@<TRIPOS>MOLECULE
NuBBE_1250
 53 57 0 0 0
SMALL
GASTEIGER

@<TRIPOS>ATOM
      1 O          -2.6255   -5.6340   -1.6272 O.2     1  LIG1       -0.2445
      2 C          -2.2965   -4.6596   -0.9618 C.ar    1  LIG1        0.3454
      3 C          -2.9063   -4.3984    0.3706 C.ar    1  LIG1        0.0744
      4 C          -3.8338   -5.2984    0.9328 C.ar    1  LIG1       -0.0017
      5 C          -4.3795   -5.0220    2.1884 C.ar    1  LIG1        0.1628
      6 O          -5.2594   -5.8673    2.8058 O.3     1  LIG1       -0.5032
      7 C          -4.0284   -3.8621    2.8731 C.ar    1  LIG1        0.2022
      8 C          -3.1145   -2.9856    2.3064 C.ar    1  LIG1        0.1854
      9 O          -2.7465   -1.8330    3.0303 O.2     1  LIG1       -0.4178
     10 C          -2.5381   -3.2470    1.0669 C.ar    1  LIG1        0.0468
     11 C          -1.5673   -2.3308    0.5363 C.ar    1  LIG1        0.0468
     12 C          -0.9615   -2.5774   -0.6858 C.ar    1  LIG1        0.1854
     13 O          -1.3286   -3.7429   -1.4107 O.2     1  LIG1       -0.4178
     14 C          -0.0029   -1.6922   -1.2107 C.ar    1  LIG1        0.2026
     15 O           0.6161   -1.9842   -2.3975 O.3     1  LIG1       -0.5009
     16 C           0.3202   -0.4972   -0.5313 C.ar    1  LIG1        0.1698
     17 O           1.2592    0.3390   -1.0928 O.3     1  LIG1       -0.4559
     18 C           1.2381    1.7612   -0.7703 C.3     1  LIG1        0.2421
     19 H           1.2558    1.8714    0.3190 H       1  LIG1        0.1096
     20 O           0.0611    2.3663   -1.3146 O.3     1  LIG1       -0.3331
     21 C          -0.0054    3.7948   -1.2016 C.3     1  LIG1        0.0884
     22 H          -0.8863    4.0818   -1.7886 H       1  LIG1        0.0621
     23 C           1.2170    4.4797   -1.8461 C.3     1  LIG1        0.1106
     24 H           1.1545    5.5651   -1.6992 H       1  LIG1        0.0646
     25 C           2.5244    3.9389   -1.2668 C.3     1  LIG1        0.1262
     26 H           3.3663    4.3420   -1.8428 H       1  LIG1        0.0659
     27 C           2.5457    2.4001   -1.3255 C.3     1  LIG1        0.1928
     28 H           2.6811    2.0736   -2.3646 H       1  LIG1        0.0825
     29 O           3.6336    1.8809   -0.5185 O.3     1  LIG1       -0.4525
     30 C           4.8795    1.8941   -1.0769 C.2     1  LIG1        0.3045
     31 C           5.7732    0.9844   -0.2724 C.3     1  LIG1        0.0332
     32 O           5.2117    2.5130   -2.0649 O.2     1  LIG1       -0.2512
     33 O           2.6924    4.4162    0.0748 O.3     1  LIG1       -0.3852
     34 O           1.2274    4.2414   -3.2605 O.3     1  LIG1       -0.3865
     35 C          -0.2766    4.2306    0.2378 C.3     1  LIG1       -0.0360
     36 C          -0.2921   -0.2622    0.7028 C.ar    1  LIG1       -0.0014
     37 C          -1.2055   -1.1873    1.2422 C.ar    1  LIG1        0.0744
     38 C          -1.7638   -0.9536    2.5961 C.ar    1  LIG1        0.3454
     39 O          -1.3601   -0.0309    3.2958 O.2     1  LIG1       -0.2445
     40 O          -4.5596   -3.6027    4.1034 O.3     1  LIG1       -0.5009
     41 H          -4.1100   -6.2020    0.3941 H       1  LIG1        0.0664
     42 H          -5.4044   -6.6475    2.2425 H       1  LIG1        0.2923
     43 H           0.2128   -2.7936   -2.7599 H       1  LIG1        0.2924
     44 H           6.5938    1.5527    0.1565 H       1  LIG1        0.0342
     45 H           6.1348    0.1842   -0.9227 H       1  LIG1        0.0342
     46 H           5.2055    0.5186    0.5438 H       1  LIG1        0.0342
     47 H           3.5656    4.1041    0.3735 H       1  LIG1        0.2101
     48 H           0.3654    4.5142   -3.6201 H       1  LIG1        0.2100
     49 H           0.4682    3.8572    0.9448 H       1  LIG1        0.0255
     50 H          -1.2376    3.8279    0.5738 H       1  LIG1        0.0255
     51 H          -0.3126    5.3219    0.3196 H       1  LIG1        0.0255
     52 H          -0.0725    0.6245    1.2878 H       1  LIG1        0.0664
     53 H          -5.1283   -4.3682    4.3151 H       1  LIG1        0.2924
@<TRIPOS>BOND
     1     1     2    2
     2     2     3   ar
     3     3     4   ar
     4     4     5   ar
     5     5     6    1
     6     5     7   ar
     7     7     8   ar
     8     8     9   ar
     9     8    10   ar
    10     3    10   ar
    11    10    11   ar
    12    11    12   ar
    13    12    13   ar
    14     2    13   ar
    15    12    14   ar
    16    14    15    1
    17    14    16   ar
    18    16    17    1
    19    17    18    1
    20    18    19    1
    21    18    20    1
    22    20    21    1
    23    21    23    1
    24    23    24    1
    25    23    25    1
    26    25    27    1
    27    18    27    1
    28    29    30    1
    29    30    31    1
    30    30    32    2
    31    23    34    1
    32    16    36   ar
    33    36    37   ar
    34    11    37   ar
    35    37    38   ar
    36     9    38   ar
    37    38    39    2
    38     7    40    1
    39    21    35    1
    40    21    22    1
    41    25    33    1
    42    25    26    1
    43    27    29    1
    44    27    28    1
    45     4    41    1
    46     6    42    1
    47    15    43    1
    48    31    44    1
    49    31    45    1
    50    31    46    1
    51    33    47    1
    52    34    48    1
    53    35    49    1
    54    35    50    1
    55    35    51    1
    56    36    52    1
    57    40    53    1
