@<TRIPOS>MOLECULE
NuBBE_564
 31 33 0 0 0
SMALL
GASTEIGER

@<TRIPOS>ATOM
      1 O          -4.8525   -2.0124   -0.2909 O.3     1  LIG1       -0.5065
      2 C          -3.5024   -2.1705   -0.1894 C.ar    1  LIG1        0.1239
      3 C          -2.9237   -3.4302   -0.0704 C.ar    1  LIG1        0.0223
      4 C          -1.5325   -3.5378    0.0320 C.ar    1  LIG1        0.1347
      5 O          -0.9774   -4.7800    0.1486 O.3     1  LIG1       -0.5058
      6 C          -0.7255   -2.3905    0.0156 C.ar    1  LIG1        0.1055
      7 C           0.7512   -2.4332    0.1226 C.ar    1  LIG1        0.1966
      8 C           1.4517   -1.1367    0.0832 C.ar    1  LIG1        0.0288
      9 C           0.7497   -0.0039   -0.0466 C.ar    1  LIG1        0.1393
     10 C           1.4044    1.3196   -0.0817 C.ar    1  LIG1        0.0211
     11 C           0.8340    2.3994    0.6156 C.ar    1  LIG1       -0.0059
     12 C           1.4427    3.6501    0.5740 C.ar    1  LIG1        0.1589
     13 O           0.9268    4.7280    1.2402 O.3     1  LIG1       -0.5033
     14 C           2.6101    3.8420   -0.1579 C.ar    1  LIG1        0.1583
     15 O           3.1997    5.0724   -0.1930 O.3     1  LIG1       -0.5033
     16 C           3.1850    2.7957   -0.8605 C.ar    1  LIG1       -0.0159
     17 C           2.5802    1.5359   -0.8251 C.ar    1  LIG1       -0.0474
     18 O          -0.6299    0.0442   -0.1309 O.2     1  LIG1       -0.4544
     19 O           1.4113   -3.4566    0.2397 O.2     1  LIG1       -0.2869
     20 C          -1.3306   -1.1365   -0.1057 C.ar    1  LIG1        0.1462
     21 C          -2.7183   -1.0244   -0.2082 C.ar    1  LIG1        0.0231
     22 H          -5.2828   -2.8834   -0.2767 H       1  LIG1        0.2921
     23 H          -3.5457   -4.3188   -0.0566 H       1  LIG1        0.0691
     24 H          -1.6597   -5.4687    0.1372 H       1  LIG1        0.2922
     25 H           2.5299   -1.1737    0.1742 H       1  LIG1        0.0693
     26 H          -0.0761    2.2511    1.1896 H       1  LIG1        0.0662
     27 H           0.1146    4.4446    1.6945 H       1  LIG1        0.2923
     28 H           2.6252    5.6358    0.3629 H       1  LIG1        0.2923
     29 H           4.0920    2.9579   -1.4351 H       1  LIG1        0.0655
     30 H           3.0337    0.7288   -1.3970 H       1  LIG1        0.0626
     31 H          -3.1854   -0.0481   -0.3042 H       1  LIG1        0.0691
@<TRIPOS>BOND
     1     1     2    1
     2     2     3   ar
     3     3     4   ar
     4     4     5    1
     5     4     6   ar
     6     6     7   ar
     7     7     8   ar
     8     8     9   ar
     9     9    10    1
    10    10    11   ar
    11    11    12   ar
    12    12    13    1
    13    12    14   ar
    14    14    15    1
    15    14    16   ar
    16    16    17   ar
    17    10    17   ar
    18     9    18   ar
    19     7    19    2
    20     6    20   ar
    21    18    20   ar
    22    20    21   ar
    23     2    21   ar
    24     1    22    1
    25     3    23    1
    26     5    24    1
    27     8    25    1
    28    11    26    1
    29    13    27    1
    30    15    28    1
    31    16    29    1
    32    17    30    1
    33    21    31    1
