@<TRIPOS>MOLECULE
NuBBE_1458
 50 54 0 0 0
SMALL
GASTEIGER

@<TRIPOS>ATOM
      1 O           0.2744   -2.5306    0.4004 O.2     1  LIG1       -0.2863
      2 C           0.0299   -1.4033   -0.0179 C.ar    1  LIG1        0.2042
      3 C          -1.3525   -0.9013    0.0548 C.ar    1  LIG1        0.1067
      4 C          -2.3632   -1.6442    0.6765 C.ar    1  LIG1        0.1347
      5 C          -3.6473   -1.1237    0.7903 C.ar    1  LIG1        0.0231
      6 C          -3.9242    0.1489    0.2921 C.ar    1  LIG1        0.1359
      7 C          -2.9349    0.8908   -0.3669 C.ar    1  LIG1        0.0597
      8 C          -3.2893    2.1990   -0.9120 C.2     1  LIG1       -0.0478
      9 C          -4.4674    2.7261   -0.5632 C.2     1  LIG1       -0.0408
     10 C          -5.4388    2.0148    0.3508 C.3     1  LIG1        0.1235
     11 C          -6.8608    2.1595   -0.2037 C.3     1  LIG1       -0.0215
     12 O          -5.2066    0.5946    0.4675 O.3     1  LIG1       -0.4814
     13 C          -5.3736    2.6209    1.7588 C.3     1  LIG1       -0.0215
     14 C          -1.6413    0.3532   -0.4811 C.ar    1  LIG1        0.1531
     15 O          -0.6842    1.1029   -1.1201 O.2     1  LIG1       -0.4546
     16 C           0.6315    0.6858   -1.0732 C.ar    1  LIG1        0.1543
     17 C           1.0593   -0.4823   -0.5653 C.ar    1  LIG1        0.0746
     18 C           2.5154   -0.7168   -0.5589 C.ar    1  LIG1        0.0345
     19 C           3.1031   -1.9633   -0.3012 C.ar    1  LIG1       -0.0049
     20 C           4.4956   -2.1014   -0.1998 C.ar    1  LIG1        0.1623
     21 O           5.1219   -3.2967    0.0551 O.3     1  LIG1       -0.4914
     22 C           4.3847   -4.2342    0.8312 C.3     1  LIG1        0.0790
     23 C           5.3254   -0.9832   -0.3795 C.ar    1  LIG1        0.1650
     24 C           4.7544    0.2532   -0.6778 C.ar    1  LIG1        0.0260
     25 C           3.3667    0.3771   -0.7743 C.ar    1  LIG1        0.1327
     26 O           2.9027    1.6397   -1.0402 O.3     1  LIG1       -0.4836
     27 C           1.6019    1.6836   -1.6366 C.3     1  LIG1        0.1477
     28 O           6.6781   -1.1883   -0.2746 O.3     1  LIG1       -0.4913
     29 C           7.4355   -0.0794    0.1954 C.3     1  LIG1        0.0790
     30 O          -2.1586   -2.8880    1.2106 O.3     1  LIG1       -0.5058
     31 H          -4.4269   -1.6994    1.2819 H       1  LIG1        0.0691
     32 H          -2.5959    2.7277   -1.5556 H       1  LIG1        0.0624
     33 H          -4.7362    3.7163   -0.9213 H       1  LIG1        0.0611
     34 H          -6.9427    1.7003   -1.1961 H       1  LIG1        0.0271
     35 H          -7.1654    3.2090   -0.2832 H       1  LIG1        0.0271
     36 H          -7.5834    1.6403    0.4370 H       1  LIG1        0.0271
     37 H          -5.6140    3.6897    1.7551 H       1  LIG1        0.0271
     38 H          -4.3756    2.4976    2.1965 H       1  LIG1        0.0271
     39 H          -6.0698    2.1113    2.4351 H       1  LIG1        0.0271
     40 H           2.4755   -2.8395   -0.1850 H       1  LIG1        0.0663
     41 H           3.6256   -4.7328    0.2207 H       1  LIG1        0.0660
     42 H           3.9357   -3.7649    1.7136 H       1  LIG1        0.0660
     43 H           5.0842   -4.9994    1.1815 H       1  LIG1        0.0660
     44 H           5.3658    1.1316   -0.8538 H       1  LIG1        0.0692
     45 H           1.7015    1.5473   -2.7203 H       1  LIG1        0.0779
     46 H           1.2236    2.6986   -1.4710 H       1  LIG1        0.0779
     47 H           8.4215   -0.4501    0.4917 H       1  LIG1        0.0660
     48 H           6.9747    0.3816    1.0763 H       1  LIG1        0.0660
     49 H           7.5820    0.6565   -0.6012 H       1  LIG1        0.0660
     50 H          -1.2180   -3.1351    1.0613 H       1  LIG1        0.2922
@<TRIPOS>BOND
     1     1     2    2
     2     2     3   ar
     3     3     4   ar
     4     4     5   ar
     5     5     6   ar
     6     6     7   ar
     7     7     8    1
     8     8     9    2
     9     9    10    1
    10    10    11    1
    11    10    12    1
    12     6    12    1
    13    10    13    1
    14     7    14   ar
    15     3    14   ar
    16    14    15   ar
    17    15    16   ar
    18    16    17   ar
    19     2    17   ar
    20    17    18    1
    21    18    19   ar
    22    19    20   ar
    23    20    21    1
    24    21    22    1
    25    20    23   ar
    26    23    24   ar
    27    24    25   ar
    28    18    25   ar
    29    25    26    1
    30    26    27    1
    31    16    27    1
    32    23    28    1
    33    28    29    1
    34     4    30    1
    35     5    31    1
    36     8    32    1
    37     9    33    1
    38    11    34    1
    39    11    35    1
    40    11    36    1
    41    13    37    1
    42    13    38    1
    43    13    39    1
    44    19    40    1
    45    22    41    1
    46    22    42    1
    47    22    43    1
    48    24    44    1
    49    27    45    1
    50    27    46    1
    51    29    47    1
    52    29    48    1
    53    29    49    1
    54    30    50    1
