@<TRIPOS>MOLECULE
NuBBE_329
 48 52 0 0 0
SMALL
GASTEIGER

@<TRIPOS>ATOM
      1 H           3.9926   -0.1601    2.1746 H       1  LIG1        0.1548
      2 N           3.1604    0.3271    1.8778 N.am    1  LIG1       -0.2845
      3 C           3.1254    1.5769    1.2853 C.ar    1  LIG1        0.0376
      4 C           4.2023    2.3812    0.9787 C.ar    1  LIG1       -0.0402
      5 C           3.9316    3.6106    0.3760 C.ar    1  LIG1       -0.0600
      6 C           2.6081    3.9985    0.1010 C.ar    1  LIG1       -0.0614
      7 C           1.5329    3.1643    0.4244 C.ar    1  LIG1       -0.0558
      8 C           1.8065    1.9449    1.0214 C.ar    1  LIG1       -0.0097
      9 C           0.8793    0.8393    1.4681 C.3     1  LIG1        0.0904
     10 C           1.8847   -0.1965    2.0396 C.2     1  LIG1        0.2293
     11 O           1.6390   -1.2747    2.5558 O.2     1  LIG1       -0.2744
     12 C          -0.0406    0.2904    0.3716 C.3     1  LIG1        0.0290
     13 H          -0.4225    1.1598   -0.1816 H       1  LIG1        0.0476
     14 C           0.5863   -0.6366   -0.6758 C.3     1  LIG1       -0.0285
     15 C          -0.5068   -1.3902   -1.4594 C.3     1  LIG1        0.0026
     16 H          -0.0138   -2.0082   -2.2219 H       1  LIG1        0.0357
     17 C          -1.2428   -2.3250   -0.4705 C.3     1  LIG1        0.0157
     18 C          -1.3542   -1.7183    0.9549 C.3     1  LIG1        0.0060
     19 N          -1.2445   -0.2558    1.0375 N.3     1  LIG1       -0.2976
     20 C          -1.2104    0.1961    2.4434 C.3     1  LIG1        0.0005
     21 C          -0.1219    1.2615    2.5370 C.3     1  LIG1       -0.0206
     22 H          -0.6247   -3.2276   -0.3522 H       1  LIG1        0.0355
     23 C          -1.4914   -0.4949   -2.1730 C.2     1  LIG1        0.0740
     24 C          -0.9698    0.6265   -2.9769 C.2     1  LIG1        0.3360
     25 O          -1.5771    1.7991   -2.6968 O.3     1  LIG1       -0.4773
     26 O          -0.0323    0.5191   -3.7479 O.2     1  LIG1       -0.2454
     27 C          -2.8171   -0.6875   -2.1181 C.2     1  LIG1        0.0951
     28 O          -3.4501   -1.6990   -1.4497 O.2     1  LIG1       -0.4957
     29 C          -2.6083   -2.7792   -1.0233 C.3     1  LIG1        0.1011
     30 H          -3.1580   -3.2963   -0.2272 H       1  LIG1        0.0733
     31 C          -2.4720   -3.7831   -2.1734 C.3     1  LIG1       -0.0275
     32 H           5.2212    2.0782    1.1896 H       1  LIG1        0.0636
     33 H           4.7509    4.2757    0.1121 H       1  LIG1        0.0618
     34 H           2.4200    4.9591   -0.3746 H       1  LIG1        0.0618
     35 H           0.5164    3.4740    0.2024 H       1  LIG1        0.0621
     36 H           1.2456   -1.3779   -0.2088 H       1  LIG1        0.0287
     37 H           1.2182   -0.0520   -1.3549 H       1  LIG1        0.0287
     38 H          -0.5615   -2.1799    1.5586 H       1  LIG1        0.0431
     39 H          -2.2968   -2.0311    1.4207 H       1  LIG1        0.0431
     40 H          -0.9710   -0.6204    3.1360 H       1  LIG1        0.0427
     41 H          -2.1841    0.6001    2.7389 H       1  LIG1        0.0427
     42 H           0.3106    1.3050    3.5425 H       1  LIG1        0.0291
     43 H          -0.5525    2.2457    2.3129 H       1  LIG1        0.0291
     44 H          -2.2090    1.7377   -1.9537 H       1  LIG1        0.2954
     45 H          -3.5534   -0.0583   -2.6052 H       1  LIG1        0.1028
     46 H          -3.4627   -4.1104   -2.5074 H       1  LIG1        0.0265
     47 H          -1.9031   -4.6647   -1.8620 H       1  LIG1        0.0265
     48 H          -1.9796   -3.3432   -3.0465 H       1  LIG1        0.0265
@<TRIPOS>BOND
     1     1     2    1
     2     2     3    1
     3     3     4   ar
     4     4     5   ar
     5     5     6   ar
     6     6     7   ar
     7     7     8   ar
     8     3     8   ar
     9     8     9    1
    10     9    10    1
    11     2    10   am
    12    10    11    2
    13     9    12    1
    14    12    14    1
    15    14    15    1
    16    15    17    1
    17    17    18    1
    18    18    19    1
    19    12    19    1
    20    19    20    1
    21    20    21    1
    22     9    21    1
    23    15    23    1
    24    24    25    1
    25    24    26    2
    26    23    27    2
    27    27    28    1
    28    28    29    1
    29    17    29    1
    30    12    13    1
    31    15    16    1
    32    17    22    1
    33    23    24    1
    34    29    31    1
    35    29    30    1
    36     4    32    1
    37     5    33    1
    38     6    34    1
    39     7    35    1
    40    14    36    1
    41    14    37    1
    42    18    38    1
    43    18    39    1
    44    20    40    1
    45    20    41    1
    46    21    42    1
    47    21    43    1
    48    25    44    1
    49    27    45    1
    50    31    46    1
    51    31    47    1
    52    31    48    1
