@<TRIPOS>MOLECULE
NuBBE_413
 68 71 0 0 0
SMALL
GASTEIGER

@<TRIPOS>ATOM
      1 C          -3.1816    0.3923   -2.7551 C.3     1  LIG1        0.0790
      2 O          -2.0385   -0.3483   -2.3265 O.3     1  LIG1       -0.4914
      3 C          -1.4853    0.1068   -1.1417 C.ar    1  LIG1        0.1630
      4 C          -0.8056   -0.8366   -0.3498 C.ar    1  LIG1       -0.0131
      5 C          -0.2306   -0.4804    0.8823 C.ar    1  LIG1       -0.0430
      6 C           0.4458   -1.5386    1.7278 C.3     1  LIG1       -0.0255
      7 C           1.9266   -1.7266    1.3984 C.3     1  LIG1       -0.0254
      8 C           2.5409   -2.8005    2.2942 C.3     1  LIG1        0.0511
      9 O           1.9187   -4.0589    2.0297 O.3     1  LIG1       -0.3487
     10 C           2.4540   -5.1208    2.8231 C.3     1  LIG1        0.1879
     11 H           2.4202   -4.8110    3.8754 H       1  LIG1        0.0937
     12 O           3.8302   -5.3828    2.5236 O.3     1  LIG1       -0.3405
     13 C           4.1035   -6.0512    1.2764 C.3     1  LIG1        0.1130
     14 H           5.1410   -6.3870    1.4002 H       1  LIG1        0.0647
     15 C           3.2370   -7.3025    1.0462 C.3     1  LIG1        0.1119
     16 H           3.3829   -7.6835    0.0290 H       1  LIG1        0.0647
     17 C           1.7507   -7.0320    1.3034 C.3     1  LIG1        0.1141
     18 H           1.2137   -7.9888    1.2929 H       1  LIG1        0.0648
     19 O           1.2214   -6.2401    0.2414 O.3     1  LIG1       -0.3864
     20 O           3.6637   -8.3350    1.9588 O.3     1  LIG1       -0.3865
     21 C           4.1050   -5.0767    0.0894 C.3     1  LIG1        0.0730
     22 O           5.1240   -4.0891    0.2787 O.3     1  LIG1       -0.3924
     23 C           1.5741   -6.3865    2.6892 C.3     1  LIG1        0.1341
     24 H           0.5223   -6.1111    2.8278 H       1  LIG1        0.0671
     25 O           1.8925   -7.3327    3.7255 O.3     1  LIG1       -0.3841
     26 C          -0.2788    0.8512    1.3299 C.ar    1  LIG1       -0.0475
     27 C          -0.9082    1.8235    0.5199 C.ar    1  LIG1        0.0247
     28 C          -1.4780    1.4212   -0.6704 C.ar    1  LIG1        0.1771
     29 O          -2.0346    2.5025   -1.2978 O.2     1  LIG1       -0.4511
     30 C          -1.8169    3.6028   -0.5350 C.ar    1  LIG1        0.1365
     31 C          -2.3059    4.8538   -1.0722 C.ar    1  LIG1        0.0210
     32 C          -1.6727    6.0647   -0.7857 C.ar    1  LIG1       -0.0056
     33 C          -2.1067    7.2752   -1.3454 C.ar    1  LIG1        0.1622
     34 O          -1.3564    8.3446   -0.9362 O.3     1  LIG1       -0.4914
     35 C          -1.2638    9.4940   -1.7668 C.3     1  LIG1        0.0790
     36 C          -3.2363    7.2938   -2.1842 C.ar    1  LIG1        0.1615
     37 C          -3.8790    6.0814   -2.4675 C.ar    1  LIG1       -0.0156
     38 C          -3.4219    4.8769   -1.9263 C.ar    1  LIG1       -0.0474
     39 O          -3.6637    8.5016   -2.6604 O.3     1  LIG1       -0.4915
     40 C          -4.8164    8.5359   -3.4898 C.3     1  LIG1        0.0790
     41 C          -1.1311    3.2297    0.6129 C.ar    1  LIG1       -0.0080
     42 H          -3.5388   -0.0387   -3.6944 H       1  LIG1        0.0660
     43 H          -2.9472    1.4333   -2.9860 H       1  LIG1        0.0660
     44 H          -3.9868    0.3223   -2.0153 H       1  LIG1        0.0660
     45 H          -0.7538   -1.8685   -0.6942 H       1  LIG1        0.0658
     46 H          -0.0918   -2.4866    1.6013 H       1  LIG1        0.0314
     47 H           0.3383   -1.2739    2.7873 H       1  LIG1        0.0314
     48 H           2.4723   -0.7849    1.5374 H       1  LIG1        0.0290
     49 H           2.0397   -2.0125    0.3446 H       1  LIG1        0.0290
     50 H           2.4186   -2.5341    3.3495 H       1  LIG1        0.0561
     51 H           3.6089   -2.8597    2.0844 H       1  LIG1        0.0561
     52 H           0.3717   -5.8650    0.5364 H       1  LIG1        0.2100
     53 H           4.5509   -8.6218    1.6719 H       1  LIG1        0.2100
     54 H           4.3433   -5.6036   -0.8391 H       1  LIG1        0.0584
     55 H           3.1584   -4.5527   -0.0468 H       1  LIG1        0.0584
     56 H           5.0868   -3.8351    1.2185 H       1  LIG1        0.2095
     57 H           2.7031   -7.8094    3.4366 H       1  LIG1        0.2101
     58 H           0.1535    1.1353    2.2830 H       1  LIG1        0.0627
     59 H          -0.7998    6.0777   -0.1331 H       1  LIG1        0.0662
     60 H          -1.7853   10.3267   -1.2846 H       1  LIG1        0.0660
     61 H          -1.6124    9.3630   -2.7932 H       1  LIG1        0.0660
     62 H          -0.2048    9.7583   -1.8439 H       1  LIG1        0.0660
     63 H          -4.7558    6.0338   -3.1090 H       1  LIG1        0.0655
     64 H          -3.9403    3.9539   -2.1648 H       1  LIG1        0.0626
     65 H          -4.9934    9.5809   -3.7623 H       1  LIG1        0.0660
     66 H          -5.6943    8.1793   -2.9441 H       1  LIG1        0.0660
     67 H          -4.6650    7.9736   -4.4178 H       1  LIG1        0.0660
     68 H          -0.8325    3.8772    1.4123 H       1  LIG1        0.0661
@<TRIPOS>BOND
     1     1     2    1
     2     2     3    1
     3     3     4   ar
     4     4     5   ar
     5     5     6    1
     6     6     7    1
     7     7     8    1
     8     8     9    1
     9     9    10    1
    10    10    11    1
    11    10    12    1
    12    12    13    1
    13    13    15    1
    14    15    16    1
    15    15    17    1
    16    15    20    1
    17    21    22    1
    18    10    23    1
    19    17    23    1
    20     5    26   ar
    21    26    27   ar
    22    27    28   ar
    23     3    28   ar
    24    28    29   ar
    25    29    30   ar
    26    30    31    1
    27    31    32   ar
    28    32    33   ar
    29    33    34    1
    30    34    35    1
    31    33    36   ar
    32    36    37   ar
    33    37    38   ar
    34    31    38   ar
    35    36    39    1
    36    39    40    1
    37    30    41   ar
    38    27    41   ar
    39    13    21    1
    40    13    14    1
    41    17    19    1
    42    17    18    1
    43    23    25    1
    44    23    24    1
    45     1    42    1
    46     1    43    1
    47     1    44    1
    48     4    45    1
    49     6    46    1
    50     6    47    1
    51     7    48    1
    52     7    49    1
    53     8    50    1
    54     8    51    1
    55    19    52    1
    56    20    53    1
    57    21    54    1
    58    21    55    1
    59    22    56    1
    60    25    57    1
    61    26    58    1
    62    32    59    1
    63    35    60    1
    64    35    61    1
    65    35    62    1
    66    37    63    1
    67    38    64    1
    68    40    65    1
    69    40    66    1
    70    40    67    1
    71    41    68    1
