@<TRIPOS>MOLECULE
NuBBE_1941
 42 44 0 0 0
SMALL
GASTEIGER

@<TRIPOS>ATOM
      1 C          -0.7964    2.8520   -1.4566 C.3     1  LIG1       -0.0619
      2 C          -1.2050    1.7456   -0.4797 C.3     1  LIG1       -0.0376
      3 H          -2.3019    1.6884   -0.4768 H       1  LIG1        0.0304
      4 C          -0.6928    0.3827   -0.9081 C.3     1  LIG1       -0.0174
      5 C          -0.1404   -0.5709    0.1460 C.3     1  LIG1       -0.0258
      6 H          -0.4588   -1.6036    0.0578 H       1  LIG1        0.0313
      7 C           0.7633    0.0299   -0.9185 C.3     1  LIG1       -0.0026
      8 H           1.5104    0.7553   -0.6281 H       1  LIG1        0.0337
      9 C           1.0734   -0.7015   -2.2013 C.3     1  LIG1        0.0669
     10 C          -0.2909   -1.2366   -2.6799 C.3     1  LIG1       -0.0234
     11 C          -1.3208   -0.2222   -2.1563 C.3     1  LIG1       -0.0439
     12 C           1.7161    0.2197   -3.2330 C.3     1  LIG1       -0.0358
     13 O           1.9654   -1.7736   -1.9376 O.3     1  LIG1       -0.3885
     14 C           0.0581   -0.1464    1.5904 C.3     1  LIG1       -0.0350
     15 H           1.0760    0.2549    1.6966 H       1  LIG1        0.0306
     16 C          -0.9239    0.9872    1.9282 C.3     1  LIG1       -0.0494
     17 C          -0.7673    2.1383    0.9381 C.3     1  LIG1       -0.0497
     18 C          -0.0614   -1.3639    2.5548 C.3     1  LIG1       -0.0436
     19 C          -0.0593   -0.9611    4.0335 C.3     1  LIG1       -0.0624
     20 C           1.0836   -2.3620    2.3215 C.3     1  LIG1       -0.0624
     21 H           0.2931    2.9254   -1.5423 H       1  LIG1        0.0233
     22 H          -1.1762    3.8239   -1.1234 H       1  LIG1        0.0233
     23 H          -1.1946    2.6727   -2.4594 H       1  LIG1        0.0233
     24 H          -0.4899   -2.2252   -2.2465 H       1  LIG1        0.0293
     25 H          -0.3493   -1.3570   -3.7668 H       1  LIG1        0.0293
     26 H          -2.2751   -0.7072   -1.9278 H       1  LIG1        0.0272
     27 H          -1.4998    0.5395   -2.9209 H       1  LIG1        0.0272
     28 H           1.0792    1.0777   -3.4710 H       1  LIG1        0.0257
     29 H           1.9310   -0.3239   -4.1598 H       1  LIG1        0.0257
     30 H           2.6749    0.6033   -2.8654 H       1  LIG1        0.0257
     31 H           1.6117   -2.2595   -1.1739 H       1  LIG1        0.2102
     32 H          -0.7238    1.3782    2.9314 H       1  LIG1        0.0268
     33 H          -1.9574    0.6198    1.9167 H       1  LIG1        0.0268
     34 H           0.2781    2.4734    0.9382 H       1  LIG1        0.0268
     35 H          -1.3675    2.9916    1.2776 H       1  LIG1        0.0268
     36 H          -1.0068   -1.8853    2.3541 H       1  LIG1        0.0298
     37 H           0.8141   -0.3464    4.2759 H       1  LIG1        0.0232
     38 H          -0.0390   -1.8459    4.6793 H       1  LIG1        0.0232
     39 H          -0.9616   -0.4000    4.2951 H       1  LIG1        0.0232
     40 H           2.0573   -1.8948    2.5051 H       1  LIG1        0.0232
     41 H           1.0834   -2.7506    1.2990 H       1  LIG1        0.0232
     42 H           0.9909   -3.2220    2.9937 H       1  LIG1        0.0232
@<TRIPOS>BOND
     1     2     4    1
     2     4     5    1
     3     5     7    1
     4     4     7    1
     5     7     9    1
     6     9    10    1
     7    10    11    1
     8     4    11    1
     9     5    14    1
    10    14    16    1
    11    16    17    1
    12     2    17    1
    13    18    19    1
    14    18    20    1
    15     5     6    1
    16     7     8    1
    17     9    13    1
    18     9    12    1
    19     2     3    1
    20     2     1    1
    21    14    18    1
    22    14    15    1
    23     1    21    1
    24     1    22    1
    25     1    23    1
    26    10    24    1
    27    10    25    1
    28    11    26    1
    29    11    27    1
    30    12    28    1
    31    12    29    1
    32    12    30    1
    33    13    31    1
    34    16    32    1
    35    16    33    1
    36    17    34    1
    37    17    35    1
    38    18    36    1
    39    19    37    1
    40    19    38    1
    41    19    39    1
    42    20    40    1
    43    20    41    1
    44    20    42    1
