REMARK  Name = NuBBE_1942
REMARK  6 active torsions:
REMARK  status: ('A' for Active; 'I' for Inactive)
REMARK    1  A    between atoms: C_1  and  C_2
REMARK    2  A    between atoms: C_1  and  C_3
REMARK    3  A    between atoms: C_1  and  O_4
REMARK    4  A    between atoms: C_1  and  C_5
REMARK    5  A    between atoms: C_8  and  C_12
REMARK    6  A    between atoms: C_15  and  C_18
REMARK                            x       y       z     vdW  Elec       q    Type
REMARK                         _______ _______ _______ _____ _____    ______ ____
ROOT
ATOM      1  C   LIG A   1       0.793  -1.038  -0.517  0.00  0.00    +0.027 C 
ATOM      2  C   LIG A   1       0.101   0.135   0.271  0.00  0.00    -0.018 C 
ATOM      3  C   LIG A   1       0.034  -0.465   1.723  0.00  0.00    -0.007 C 
ATOM      4  C   LIG A   1      -0.357  -1.923   1.480  0.00  0.00    +0.004 C 
ATOM      5  C   LIG A   1       0.364  -2.337   0.203  0.00  0.00    +0.007 C 
ATOM      6  C   LIG A   1       1.334  -0.400   2.535  0.00  0.00    +0.008 C 
ATOM      7  C   LIG A   1      -1.322   0.477  -0.240  0.00  0.00    +0.012 C 
ATOM      8  C   LIG A   1      -2.019   1.569   0.588  0.00  0.00    +0.030 C 
ATOM      9  C   LIG A   1      -1.102   2.683   1.028  0.00  0.00    -0.076 C 
ATOM     10  C   LIG A   1       0.228   2.624   0.838  0.00  0.00    -0.027 C 
ATOM     11  C   LIG A   1       0.922   1.451   0.199  0.00  0.00    +0.034 C 
ATOM     12  C   LIG A   1      -1.763   3.861   1.681  0.00  0.00    +0.038 C 
ENDROOT
BRANCH   1  13
ATOM     13  C   LIG A   1       0.745  -1.130  -2.075  0.00  0.00    +0.064 C 
ATOM     14  C   LIG A   1       1.842  -2.096  -2.561  0.00  0.00    +0.041 C 
ATOM     15  C   LIG A   1      -0.586  -1.584  -2.691  0.00  0.00    +0.041 C 
BRANCH  13  16
ATOM     16  O   LIG A   1       1.062   0.154  -2.616  0.00  0.00    -0.389 OA
ATOM     17  H   LIG A   1       1.056   0.089  -3.586  0.00  0.00    +0.210 HD
ENDBRANCH  13  16
ENDBRANCH   1  13
TORSDOF 2
