REMARK  Name = NuBBE_986
REMARK  12 active torsions:
REMARK  status: ('A' for Active; 'I' for Inactive)
REMARK    1  A    between atoms: O_1  and  C_2
REMARK    2  A    between atoms: C_11  and  O_30
REMARK    3  A    between atoms: C_13  and  C_29
REMARK    4  A    between atoms: C_17  and  C_19
REMARK    5  A    between atoms: C_19  and  C_21
REMARK    6  A    between atoms: C_19  and  C_28
REMARK    7  A    between atoms: C_21  and  C_22
REMARK    8  A    between atoms: C_22  and  C_23
REMARK    9  A    between atoms: C_23  and  C_24
REMARK   10  A    between atoms: C_24  and  C_25
REMARK   11  A    between atoms: C_24  and  C_26
REMARK   12  A    between atoms: C_31  and  C_32
REMARK                            x       y       z     vdW  Elec       q    Type
REMARK                         _______ _______ _______ _____ _____    ______ ____
ROOT
ATOM      1  C   LIG A   1      -5.668   2.468  -2.799  0.00  0.00    +0.119 C 
ATOM      2  C   LIG A   1      -5.496   1.679  -1.494  0.00  0.00    +0.062 C 
ATOM      3  C   LIG A   1      -4.125   1.041  -1.477  0.00  0.00    -0.065 C 
ATOM      4  C   LIG A   1      -4.030  -0.288  -1.597  0.00  0.00    -0.027 C 
ATOM      5  C   LIG A   1      -2.766  -1.003  -1.896  0.00  0.00    +0.031 C 
ATOM      6  C   LIG A   1      -1.490  -0.282  -1.469  0.00  0.00    +0.001 C 
ATOM      7  C   LIG A   1      -1.508   1.269  -1.588  0.00  0.00    +0.005 C 
ATOM      8  C   LIG A   1      -0.430   1.906  -0.668  0.00  0.00    +0.036 C 
ATOM      9  C   LIG A   1       0.805   1.022  -0.479  0.00  0.00    +0.121 C 
ATOM     10  C   LIG A   1       0.512  -0.396   0.143  0.00  0.00    +0.000 C 
ATOM     11  C   LIG A   1      -0.961  -0.807  -0.119  0.00  0.00    +0.001 C 
ATOM     12  C   LIG A   1      -1.768  -0.373   1.112  0.00  0.00    +0.005 C 
ATOM     13  C   LIG A   1      -0.760   0.047   2.175  0.00  0.00    +0.005 C 
ATOM     14  C   LIG A   1       0.621  -0.454   1.710  0.00  0.00    +0.001 C 
ATOM     15  C   LIG A   1       1.463  -1.363  -0.588  0.00  0.00    +0.014 C 
ATOM     16  C   LIG A   1      -2.933   1.996  -1.560  0.00  0.00    -0.008 C 
ATOM     17  C   LIG A   1      -3.017   3.045  -0.418  0.00  0.00    +0.016 C 
ATOM     18  C   LIG A   1      -3.126   2.749  -2.918  0.00  0.00    +0.013 C 
ATOM     19  C   LIG A   1      -4.499   3.420  -3.078  0.00  0.00    +0.032 C 
ENDROOT
BRANCH   1  20
ATOM     20  O   LIG A   1      -6.886   3.209  -2.765  0.00  0.00    -0.392 OA
ATOM     21  H   LIG A   1      -6.834   3.833  -2.021  0.00  0.00    +0.210 HD
ENDBRANCH   1  20
BRANCH  14  22
ATOM     22  C   LIG A   1       1.005  -1.778   2.461  0.00  0.00    -0.010 C 
ATOM     23  C   LIG A   1       0.035  -2.953   2.271  0.00  0.00    +0.008 C 
BRANCH  22  24
ATOM     24  C   LIG A   1       2.460  -2.283   2.272  0.00  0.00    +0.008 C 
BRANCH  24  25
ATOM     25  C   LIG A   1       3.542  -1.210   2.449  0.00  0.00    +0.030 C 
BRANCH  25  26
ATOM     26  C   LIG A   1       4.943  -1.764   2.248  0.00  0.00    -0.074 C 
ATOM     27  C   LIG A   1       5.653  -2.216   3.297  0.00  0.00    +0.008 C 
BRANCH  26  28
ATOM     28  C   LIG A   1       5.484  -1.721   0.823  0.00  0.00    +0.008 C 
ATOM     29  C   LIG A   1       6.219  -0.402   0.572  0.00  0.00    +0.012 C 
ATOM     30  C   LIG A   1       6.383  -2.906   0.451  0.00  0.00    +0.012 C 
ENDBRANCH  26  28
ENDBRANCH  25  26
ENDBRANCH  24  25
ENDBRANCH  22  24
ENDBRANCH  14  22
BRANCH   9  31
ATOM     31  O   LIG A   1       1.782   1.718   0.292  0.00  0.00    -0.391 OA
ATOM     32  H   LIG A   1       1.955   2.571  -0.141  0.00  0.00    +0.210 HD
ENDBRANCH   9  31
TORSDOF 7
