@<TRIPOS>MOLECULE
NuBBE_1326
 52 56 0 0 0
SMALL
GASTEIGER

@<TRIPOS>ATOM
      1 C          -4.1020    4.3020    2.1494 C.3     1  LIG1       -0.0406
      2 C          -2.6316    4.4282    2.4453 C.2     1  LIG1       -0.0395
      3 C          -1.6756    3.6515    1.5597 C.3     1  LIG1        0.1249
      4 O          -1.8892    4.0410    0.1738 O.3     1  LIG1       -0.4838
      5 C          -1.8130    2.1205    1.6806 C.3     1  LIG1        0.0204
      6 C          -1.6912    1.7428    0.2539 C.ar    1  LIG1        0.0404
      7 C          -1.7437    2.8796   -0.5356 C.ar    1  LIG1        0.1282
      8 C          -1.6800    2.8178   -1.9141 C.ar    1  LIG1       -0.0187
      9 C          -1.5278    1.5623   -2.5060 C.ar    1  LIG1       -0.0442
     10 C          -1.4657    0.4078   -1.7028 C.ar    1  LIG1        0.0629
     11 C          -1.5891    0.4879   -0.3169 C.ar    1  LIG1        0.1386
     12 O          -1.6020   -0.5821    0.5244 O.3     1  LIG1       -0.4806
     13 C          -1.7548   -1.8674   -0.1105 C.3     1  LIG1        0.1739
     14 C          -0.8887   -2.0502   -1.3588 C.3     1  LIG1        0.1968
     15 C           0.5717   -2.1344   -0.9775 C.ar    1  LIG1        0.0405
     16 C           1.5998   -1.8563   -1.8933 C.ar    1  LIG1       -0.0064
     17 C           2.9506   -1.8935   -1.5114 C.ar    1  LIG1        0.1621
     18 O           3.8120   -1.5518   -2.5232 O.3     1  LIG1       -0.4914
     19 C           5.1046   -2.1461   -2.4863 C.3     1  LIG1        0.0790
     20 C           3.2890   -2.2110   -0.1878 C.ar    1  LIG1        0.1650
     21 O           4.6018   -2.1354    0.1942 O.3     1  LIG1       -0.4913
     22 C           4.9986   -3.0063    1.2476 C.3     1  LIG1        0.0790
     23 C           2.2673   -2.5083    0.7201 C.ar    1  LIG1        0.0258
     24 C           0.9277   -2.4899    0.3263 C.ar    1  LIG1        0.1308
     25 O           0.0316   -2.7846    1.3186 O.3     1  LIG1       -0.4877
     26 C          -1.3344   -2.9245    0.9077 C.3     1  LIG1        0.1299
     27 O          -1.2318   -3.2877   -2.0027 O.3     1  LIG1       -0.3728
     28 C          -1.2329   -0.9111   -2.3088 C.2     1  LIG1        0.2063
     29 O          -1.3000   -1.0714   -3.5309 O.2     1  LIG1       -0.2883
     30 C          -2.1933    5.2140    3.4448 C.2     1  LIG1       -0.0962
     31 H          -4.3247    4.6618    1.1404 H       1  LIG1        0.0275
     32 H          -4.7105    4.8832    2.8504 H       1  LIG1        0.0275
     33 H          -4.4304    3.2616    2.2276 H       1  LIG1        0.0275
     34 H          -0.6382    3.9325    1.7942 H       1  LIG1        0.0784
     35 H          -2.7772    1.7947    2.0796 H       1  LIG1        0.0355
     36 H          -1.0110    1.7023    2.2969 H       1  LIG1        0.0355
     37 H          -1.7292    3.7203   -2.5144 H       1  LIG1        0.0654
     38 H          -1.4482    1.4824   -3.5888 H       1  LIG1        0.0627
     39 H          -2.8189   -2.0094   -0.3436 H       1  LIG1        0.0805
     40 H           1.3657   -1.5981   -2.9255 H       1  LIG1        0.0660
     41 H           5.5516   -2.0290   -3.4784 H       1  LIG1        0.0660
     42 H           5.0530   -3.2192   -2.2712 H       1  LIG1        0.0660
     43 H           5.7604   -1.6245   -1.7835 H       1  LIG1        0.0660
     44 H           6.0917   -3.0535    1.2431 H       1  LIG1        0.0660
     45 H           4.6198   -4.0225    1.0937 H       1  LIG1        0.0660
     46 H           4.6867   -2.6106    2.2190 H       1  LIG1        0.0660
     47 H           2.4834   -2.7268    1.7610 H       1  LIG1        0.0692
     48 H          -1.9366   -2.8159    1.8168 H       1  LIG1        0.0735
     49 H          -1.4880   -3.9436    0.5339 H       1  LIG1        0.0735
     50 H          -1.0895   -3.1361   -2.9601 H       1  LIG1        0.2114
     51 H          -2.8828    5.7762    4.0684 H       1  LIG1        0.0535
     52 H          -1.1354    5.3309    3.6608 H       1  LIG1        0.0535
@<TRIPOS>BOND
     1     1     2    1
     2     2     3    1
     3     3     4    1
     4     3     5    1
     5     5     6    1
     6     6     7   ar
     7     4     7    1
     8     7     8   ar
     9     8     9   ar
    10     9    10   ar
    11    10    11   ar
    12     6    11   ar
    13    11    12    1
    14    12    13    1
    15    13    14    1
    16    14    15    1
    17    15    16   ar
    18    16    17   ar
    19    17    18    1
    20    18    19    1
    21    17    20   ar
    22    20    21    1
    23    21    22    1
    24    20    23   ar
    25    23    24   ar
    26    15    24   ar
    27    24    25    1
    28    25    26    1
    29    13    26    1
    30    14    27    1
    31    14    28    1
    32    10    28    1
    33    28    29    2
    34     2    30    2
    35     1    31    1
    36     1    32    1
    37     1    33    1
    38     3    34    1
    39     5    35    1
    40     5    36    1
    41     8    37    1
    42     9    38    1
    43    13    39    1
    44    16    40    1
    45    19    41    1
    46    19    42    1
    47    19    43    1
    48    22    44    1
    49    22    45    1
    50    22    46    1
    51    23    47    1
    52    26    48    1
    53    26    49    1
    54    27    50    1
    55    30    51    1
    56    30    52    1
