REMARK  Name = NuBBE_1614
REMARK  10 active torsions:
REMARK  status: ('A' for Active; 'I' for Inactive)
REMARK    1  A    between atoms: O_1  and  C_2
REMARK    2  A    between atoms: O_1  and  C_3
REMARK    3  A    between atoms: C_14  and  O_18
REMARK    4  A    between atoms: C_15  and  O_16
REMARK    5  A    between atoms: O_16  and  C_17
REMARK    6  A    between atoms: O_18  and  C_19
REMARK    7  A    between atoms: C_21  and  O_25
REMARK    8  A    between atoms: C_22  and  O_23
REMARK    9  A    between atoms: O_23  and  C_24
REMARK   10  A    between atoms: O_25  and  C_26
REMARK                            x       y       z     vdW  Elec       q    Type
REMARK                         _______ _______ _______ _____ _____    ______ ____
ROOT
ATOM      1  C   LIG A   1      -1.654  -2.102  -0.128  0.00  0.00    +0.178 A 
ATOM      2  C   LIG A   1      -1.043  -0.836   0.021  0.00  0.00    +0.091 A 
ATOM      3  C   LIG A   1       0.354  -0.745   0.105  0.00  0.00    +0.058 A 
ATOM      4  N   LIG A   1       1.009   0.491   0.153  0.00  0.00    -0.351 N 
ATOM      5  H   LIG A   1       1.998   0.530  -0.076  0.00  0.00    +0.166 HD
ATOM      6  C   LIG A   1       0.349   1.724   0.022  0.00  0.00    +0.097 A 
ATOM      7  C   LIG A   1      -1.048   1.748   0.049  0.00  0.00    +0.050 A 
ATOM      8  C   LIG A   1      -1.809   0.459   0.083  0.00  0.00    +0.201 A 
ATOM      9  O   LIG A   1      -3.017   0.505   0.191  0.00  0.00    -0.286 OA
ATOM     10  C   LIG A   1      -1.720   2.967   0.052  0.00  0.00    +0.017 A 
ATOM     11  C   LIG A   1      -0.996   4.164   0.075  0.00  0.00    +0.050 A 
ATOM     12  C   LIG A   1       0.407   4.162   0.079  0.00  0.00    +0.164 A 
ATOM     13  C   LIG A   1       1.084   2.933  -0.012  0.00  0.00    +0.185 A 
ATOM     14  C   LIG A   1       1.113  -1.907   0.215  0.00  0.00    +0.076 A 
ATOM     15  C   LIG A   1       0.550  -3.172   0.026  0.00  0.00    +0.167 A 
ATOM     16  C   LIG A   1      -0.842  -3.266  -0.197  0.00  0.00    +0.204 A 
ENDROOT
BRANCH   1  17
ATOM     17  O   LIG A   1      -3.010  -2.111  -0.342  0.00  0.00    -0.491 OA
ATOM     18  C   LIG A   1      -3.791  -3.187   0.170  0.00  0.00    +0.277 C 
ENDBRANCH   1  17
BRANCH  13  19
ATOM     19  O   LIG A   1       2.451   2.761  -0.077  0.00  0.00    -0.489 OA
ATOM     20  C   LIG A   1       3.210   3.753  -0.766  0.00  0.00    +0.277 C 
ENDBRANCH  13  19
BRANCH  12  21
ATOM     21  O   LIG A   1       1.165   5.294   0.233  0.00  0.00    -0.491 OA
ATOM     22  C   LIG A   1       0.486   6.529   0.425  0.00  0.00    +0.277 C 
ENDBRANCH  12  21
BRANCH  16  23
ATOM     23  O   LIG A   1      -1.471  -4.394  -0.672  0.00  0.00    -0.488 OA
ATOM     24  C   LIG A   1      -1.091  -5.665  -0.166  0.00  0.00    +0.277 C 
ENDBRANCH  16  23
BRANCH  15  25
ATOM     25  O   LIG A   1       1.312  -4.311  -0.028  0.00  0.00    -0.491 OA
ATOM     26  C   LIG A   1       2.725  -4.194   0.134  0.00  0.00    +0.277 C 
ENDBRANCH  15  25
TORSDOF 5
