REMARK  Name = NuBBE_100
REMARK  13 active torsions:
REMARK  status: ('A' for Active; 'I' for Inactive)
REMARK    1  A    between atoms: C_2  and  C_3
REMARK    2  A    between atoms: C_4  and  O_28
REMARK    3  A    between atoms: C_8  and  C_24
REMARK    4  A    between atoms: C_9  and  C_10
REMARK    5  A    between atoms: C_10  and  C_11
REMARK    6  A    between atoms: C_24  and  O_25
REMARK    7  A    between atoms: O_25  and  C_26
REMARK    8  A    between atoms: O_28  and  C_29
REMARK    9  A    between atoms: C_32  and  C_40
REMARK   10  A    between atoms: C_34  and  O_39
REMARK   11  A    between atoms: C_36  and  O_38
REMARK   12  A    between atoms: C_40  and  O_41
REMARK   13  A    between atoms: C_42  and  O_44
REMARK                            x       y       z     vdW  Elec       q    Type
REMARK                         _______ _______ _______ _____ _____    ______ ____
ROOT
ATOM      1  C   LIG A   1      -0.223  -0.616  -0.114  0.00  0.00    +0.088 C 
ATOM      2  C   LIG A   1       0.322  -1.620  -1.173  0.00  0.00    +0.316 C 
ATOM      3  O   LIG A   1      -0.388  -2.871  -1.010  0.00  0.00    -0.470 OA
ATOM      4  C   LIG A   1      -0.338  -3.350   0.284  0.00  0.00    +0.201 C 
ATOM      5  C   LIG A   1       0.014  -2.640   1.393  0.00  0.00    +0.075 C 
ATOM      6  C   LIG A   1       0.217  -1.125   1.300  0.00  0.00    +0.048 C 
ENDROOT
BRANCH   1   8
ATOM      7  C   LIG A   1      -2.785  -1.031   0.086  0.00  0.00    +0.004 C 
ATOM      8  C   LIG A   1      -1.712  -0.378  -0.385  0.00  0.00    -0.025 C 
ENDBRANCH   1   8
BRANCH   5   9
ATOM      9  C   LIG A   1       0.397  -3.360   2.637  0.00  0.00    +0.338 C 
ATOM     10  O   LIG A   1       0.467  -2.863   3.772  0.00  0.00    -0.245 OA
BRANCH   9  11
ATOM     11  O   LIG A   1       0.841  -4.600   2.281  0.00  0.00    -0.465 OA
ATOM     12  C   LIG A   1       1.852  -5.158   3.129  0.00  0.00    +0.280 C 
ENDBRANCH   9  11
ENDBRANCH   5   9
BRANCH   6  13
ATOM     13  C   LIG A   1      -0.374  -0.306   2.479  0.00  0.00    +0.066 C 
BRANCH  13  14
ATOM     14  C   LIG A   1      -0.240   1.210   2.365  0.00  0.00    +0.060 C 
ATOM     15  N   LIG A   1       0.734   1.740   1.695  0.00  0.00    -0.286 NA
ATOM     16  C   LIG A   1       0.850   3.226   1.665  0.00  0.00    +0.146 C 
ATOM     17  C   LIG A   1      -0.493   3.991   1.694  0.00  0.00    +0.061 C 
ATOM     18  C   LIG A   1      -1.370   3.386   2.726  0.00  0.00    -0.011 A 
ATOM     19  C   LIG A   1      -1.205   2.052   3.036  0.00  0.00    +0.065 A 
ATOM     20  N   LIG A   1      -2.085   1.751   4.038  0.00  0.00    -0.353 N 
ATOM     21  C   LIG A   1      -2.852   2.857   4.342  0.00  0.00    +0.047 A 
ATOM     22  C   LIG A   1      -3.875   3.006   5.288  0.00  0.00    +0.026 A 
ATOM     23  C   LIG A   1      -4.522   4.242   5.356  0.00  0.00    +0.002 A 
ATOM     24  C   LIG A   1      -4.154   5.291   4.517  0.00  0.00    +0.001 A 
ATOM     25  C   LIG A   1      -3.108   5.138   3.596  0.00  0.00    +0.010 A 
ATOM     26  C   LIG A   1      -2.441   3.899   3.506  0.00  0.00    +0.004 A 
ATOM     27  H   LIG A   1      -2.169   0.857   4.500  0.00  0.00    +0.166 HD
ENDBRANCH  13  14
ENDBRANCH   6  13
BRANCH   2  28
ATOM     28  O   LIG A   1       0.223  -1.033  -2.495  0.00  0.00    -0.309 OA
BRANCH  28  29
ATOM     29  C   LIG A   1       0.662  -1.914  -3.535  0.00  0.00    +0.286 C 
ATOM     30  O   LIG A   1       2.050  -2.246  -3.442  0.00  0.00    -0.340 OA
ATOM     31  C   LIG A   1       2.998  -1.333  -4.010  0.00  0.00    +0.178 C 
ATOM     32  C   LIG A   1       2.668  -0.916  -5.454  0.00  0.00    +0.177 C 
ATOM     33  C   LIG A   1       1.224  -0.428  -5.598  0.00  0.00    +0.179 C 
ATOM     34  C   LIG A   1       0.246  -1.426  -4.956  0.00  0.00    +0.201 C 
BRANCH  33  35
ATOM     35  O   LIG A   1       1.062   0.888  -5.075  0.00  0.00    -0.386 OA
ATOM     36  H   LIG A   1       0.170   1.185  -5.335  0.00  0.00    +0.210 HD
ENDBRANCH  33  35
BRANCH  32  37
ATOM     37  O   LIG A   1       2.842  -2.065  -6.313  0.00  0.00    -0.387 OA
ATOM     38  H   LIG A   1       3.790  -2.297  -6.270  0.00  0.00    +0.210 HD
ENDBRANCH  32  37
BRANCH  34  39
ATOM     39  O   LIG A   1       0.147  -2.565  -5.840  0.00  0.00    -0.384 OA
ATOM     40  H   LIG A   1       1.069  -2.799  -6.092  0.00  0.00    +0.210 HD
ENDBRANCH  34  39
BRANCH  31  41
ATOM     41  C   LIG A   1       3.307  -0.147  -3.093  0.00  0.00    +0.190 C 
BRANCH  41  42
ATOM     42  O   LIG A   1       4.371   0.628  -3.643  0.00  0.00    -0.392 OA
ATOM     43  H   LIG A   1       4.442   1.436  -3.103  0.00  0.00    +0.209 HD
ENDBRANCH  41  42
ENDBRANCH  31  41
ENDBRANCH  28  29
ENDBRANCH   2  28
TORSDOF 12
