@<TRIPOS>MOLECULE
NuBBE_1516
 59 62 0 0 0
SMALL
GASTEIGER

@<TRIPOS>ATOM
      1 C          -2.9059   -1.7752   -0.8904 C.3     1  LIG1       -0.0589
      2 C          -1.3459   -1.7558   -0.7229 C.3     1  LIG1       -0.0213
      3 C          -0.8550   -0.2951   -1.0668 C.3     1  LIG1       -0.0321
      4 H          -1.1868   -0.0821   -2.0950 H       1  LIG1        0.0309
      5 C          -1.5273    0.7785   -0.1688 C.3     1  LIG1       -0.0340
      6 H          -2.5780    0.8260   -0.4951 H       1  LIG1        0.0307
      7 C          -1.0353    2.2303   -0.4861 C.3     1  LIG1       -0.0252
      8 H          -1.5469    2.5166   -1.4166 H       1  LIG1        0.0313
      9 C           0.4921    2.4113   -0.6882 C.3     1  LIG1       -0.0191
     10 C           1.1081    1.2608   -1.4962 C.3     1  LIG1       -0.0464
     11 C           0.6728   -0.1348   -1.0757 C.3     1  LIG1       -0.0489
     12 C           0.7757    3.7148   -1.4863 C.3     1  LIG1       -0.0586
     13 C           1.0175    2.5194    0.7721 C.3     1  LIG1        0.0229
     14 H           1.0220    1.5307    1.2419 H       1  LIG1        0.0383
     15 C          -0.1167    3.3150    1.4149 C.2     1  LIG1        0.1372
     16 O          -0.0320    3.9239    2.4739 O.2     1  LIG1       -0.2971
     17 C          -1.3870    3.2662    0.5925 C.3     1  LIG1        0.0097
     18 C           2.3904    3.1752    0.9377 C.3     1  LIG1       -0.0459
     19 C           3.0117    2.8807    2.2983 C.3     1  LIG1       -0.0646
     20 C          -1.6363    0.3483    1.3130 C.3     1  LIG1       -0.0493
     21 C          -0.8686   -0.9065    1.6995 C.3     1  LIG1       -0.0470
     22 C          -1.0441   -2.1276    0.7675 C.3     1  LIG1       -0.0067
     23 H          -1.9227   -2.6657    1.1554 H       1  LIG1        0.0332
     24 C           0.1509   -3.0712    0.9932 C.3     1  LIG1        0.0868
     25 H           1.1010   -2.5296    0.9182 H       1  LIG1        0.0623
     26 O           0.0967   -3.5808    2.3347 O.3     1  LIG1       -0.3889
     27 C           0.1528   -4.2534    0.0310 C.3     1  LIG1        0.1071
     28 H          -0.7455   -4.8654    0.1687 H       1  LIG1        0.0645
     29 C           0.2781   -3.7632   -1.4034 C.3     1  LIG1        0.0840
     30 H           0.2701   -4.6279   -2.0780 H       1  LIG1        0.0620
     31 C          -0.8421   -2.8006   -1.7875 C.3     1  LIG1       -0.0183
     32 O           1.5665   -3.1628   -1.5691 O.3     1  LIG1       -0.3891
     33 O           1.2831   -5.0857    0.3491 O.3     1  LIG1       -0.3867
     34 H          -3.4266   -1.1598   -0.1530 H       1  LIG1        0.0235
     35 H          -3.3018   -2.7907   -0.7640 H       1  LIG1        0.0235
     36 H          -3.1982   -1.4274   -1.8879 H       1  LIG1        0.0235
     37 H           2.2030    1.3162   -1.4603 H       1  LIG1        0.0271
     38 H           0.8377    1.3813   -2.5547 H       1  LIG1        0.0271
     39 H           1.1216   -0.3788   -0.1119 H       1  LIG1        0.0268
     40 H           1.1077   -0.8230   -1.8032 H       1  LIG1        0.0268
     41 H           0.2443    3.7078   -2.4452 H       1  LIG1        0.0235
     42 H           1.8435    3.8189   -1.7100 H       1  LIG1        0.0235
     43 H           0.4665    4.6169   -0.9492 H       1  LIG1        0.0235
     44 H          -1.5522    4.2546    0.1525 H       1  LIG1        0.0345
     45 H          -2.2548    2.9941    1.1965 H       1  LIG1        0.0345
     46 H           3.0790    2.8016    0.1718 H       1  LIG1        0.0269
     47 H           2.3208    4.2624    0.8153 H       1  LIG1        0.0269
     48 H           3.1330    1.8028    2.4475 H       1  LIG1        0.0230
     49 H           2.4014    3.2737    3.1160 H       1  LIG1        0.0230
     50 H           4.0016    3.3432    2.3669 H       1  LIG1        0.0230
     51 H          -2.6966    0.1761    1.5423 H       1  LIG1        0.0268
     52 H          -1.3352    1.1362    2.0053 H       1  LIG1        0.0268
     53 H          -1.1668   -1.1943    2.7168 H       1  LIG1        0.0269
     54 H           0.1910   -0.6417    1.7873 H       1  LIG1        0.0269
     55 H           0.6997   -4.3517    2.3422 H       1  LIG1        0.2099
     56 H          -1.6846   -3.4491   -2.0657 H       1  LIG1        0.0296
     57 H          -0.5735   -2.2768   -2.7138 H       1  LIG1        0.0296
     58 H           1.6755   -2.9740   -2.5190 H       1  LIG1        0.2099
     59 H           2.0508   -4.6328   -0.0580 H       1  LIG1        0.2100
@<TRIPOS>BOND
     1     2     3    1
     2     3     5    1
     3     5     7    1
     4     7     9    1
     5     9    10    1
     6    10    11    1
     7     3    11    1
     8     9    13    1
     9    13    15    1
    10    15    17    1
    11     7    17    1
    12    18    19    1
    13     5    20    1
    14    20    21    1
    15    21    22    1
    16     2    22    1
    17    22    24    1
    18    24    27    1
    19    27    29    1
    20    29    31    1
    21     2    31    1
    22     1     2    1
    23     3     4    1
    24     5     6    1
    25     7     8    1
    26     9    12    1
    27    15    16    2
    28    22    23    1
    29    29    30    1
    30    29    32    1
    31    13    18    1
    32    13    14    1
    33    24    26    1
    34    24    25    1
    35    27    33    1
    36    27    28    1
    37     1    34    1
    38     1    35    1
    39     1    36    1
    40    10    37    1
    41    10    38    1
    42    11    39    1
    43    11    40    1
    44    12    41    1
    45    12    42    1
    46    12    43    1
    47    17    44    1
    48    17    45    1
    49    18    46    1
    50    18    47    1
    51    19    48    1
    52    19    49    1
    53    19    50    1
    54    20    51    1
    55    20    52    1
    56    21    53    1
    57    21    54    1
    58    26    55    1
    59    31    56    1
    60    31    57    1
    61    32    58    1
    62    33    59    1
