REMARK  Name = NuBBE_1281
REMARK  6 active torsions:
REMARK  status: ('A' for Active; 'I' for Inactive)
REMARK    1  A    between atoms: C_8  and  O_9
REMARK    2  A    between atoms: O_9  and  C_10
REMARK    3  A    between atoms: C_10  and  C_11
REMARK    4  A    between atoms: C_11  and  C_12
REMARK    5  A    between atoms: C_12  and  C_13
REMARK    6  A    between atoms: C_12  and  C_14
REMARK                            x       y       z     vdW  Elec       q    Type
REMARK                         _______ _______ _______ _____ _____    ______ ____
ROOT
ATOM      1  O   LIG A   1      -5.922   1.377   2.438  0.00  0.00    -0.245 OA
ATOM      2  C   LIG A   1      -4.760   1.220   2.089  0.00  0.00    +0.337 A 
ATOM      3  O   LIG A   1      -3.764   2.143   2.367  0.00  0.00    -0.422 OA
ATOM      4  C   LIG A   1      -2.436   1.965   1.915  0.00  0.00    +0.146 A 
ATOM      5  C   LIG A   1      -1.544   2.981   2.259  0.00  0.00    +0.094 A 
ATOM      6  C   LIG A   1      -0.237   2.809   1.819  0.00  0.00    +0.142 A 
ATOM      7  C   LIG A   1       0.211   1.723   1.070  0.00  0.00    +0.063 A 
ATOM      8  C   LIG A   1      -0.729   0.721   0.727  0.00  0.00    +0.153 A 
ATOM      9  C   LIG A   1      -2.066   0.837   1.176  0.00  0.00    +0.061 A 
ATOM     10  C   LIG A   1      -3.093  -0.174   0.924  0.00  0.00    +0.022 A 
ATOM     11  C   LIG A   1      -4.345   0.014   1.352  0.00  0.00    +0.093 A 
ATOM     12  C   LIG A   1       1.602   1.961   0.876  0.00  0.00    +0.053 A 
ATOM     13  C   LIG A   1       1.892   3.157   1.488  0.00  0.00    +0.196 A 
ATOM     14  O   LIG A   1       0.782   3.674   2.070  0.00  0.00    -0.463 OA
ENDROOT
BRANCH   8  15
ATOM     15  O   LIG A   1      -0.381  -0.482   0.037  0.00  0.00    -0.424 OA
BRANCH  15  16
ATOM     16  C   LIG A   1       0.440  -0.445  -1.086  0.00  0.00    +0.313 C 
ATOM     17  O   LIG A   1       0.869   0.566  -1.635  0.00  0.00    -0.250 OA
BRANCH  16  18
ATOM     18  C   LIG A   1       0.695  -1.855  -1.578  0.00  0.00    +0.124 C 
BRANCH  18  19
ATOM     19  C   LIG A   1       2.179  -2.251  -1.575  0.00  0.00    -0.007 C 
ATOM     20  C   LIG A   1       2.337  -3.688  -2.082  0.00  0.00    +0.007 C 
ATOM     21  C   LIG A   1       3.046  -1.311  -2.417  0.00  0.00    +0.007 C 
ENDBRANCH  18  19
ENDBRANCH  16  18
ENDBRANCH  15  16
ENDBRANCH   8  15
TORSDOF 4
