REMARK  Name = NuBBE_1103
REMARK  15 active torsions:
REMARK  status: ('A' for Active; 'I' for Inactive)
REMARK    1  A    between atoms: C_1  and  C_2
REMARK    2  A    between atoms: C_2  and  C_3
REMARK    3  A    between atoms: C_7  and  C_8
REMARK    4  A    between atoms: C_10  and  O_11
REMARK    5  A    between atoms: O_11  and  C_12
REMARK    6  A    between atoms: C_12  and  C_13
REMARK    7  A    between atoms: C_16  and  O_18
REMARK    8  A    between atoms: O_18  and  C_19
REMARK    9  A    between atoms: C_19  and  C_20
REMARK   10  A    between atoms: C_22  and  C_23
REMARK   11  A    between atoms: C_28  and  C_30
REMARK   12  A    between atoms: C_38  and  C_39
REMARK   13  A    between atoms: C_39  and  C_40
REMARK   14  A    between atoms: C_40  and  O_41
REMARK   15  A    between atoms: O_41  and  C_42
REMARK                            x       y       z     vdW  Elec       q    Type
REMARK                         _______ _______ _______ _____ _____    ______ ____
ROOT
ATOM      1  C   LIG A   1       0.721   0.073   0.178  0.00  0.00    +0.069 C 
ATOM      2  C   LIG A   1      -0.310  -1.091   0.259  0.00  0.00    +0.225 C 
ATOM      3  C   LIG A   1      -1.345  -0.988  -0.887  0.00  0.00    +0.227 C 
ATOM      4  C   LIG A   1      -0.837  -0.884  -2.369  0.00  0.00    +0.051 C 
ATOM      5  C   LIG A   1      -1.950   0.014  -3.041  0.00  0.00    +0.019 C 
ATOM      6  C   LIG A   1       0.555  -0.176  -2.396  0.00  0.00    +0.126 C 
ATOM      7  C   LIG A   1       1.175  -0.463  -3.743  0.00  0.00    +0.157 C 
ATOM      8  C   LIG A   1       0.275  -1.377  -4.518  0.00  0.00    +0.044 C 
ATOM      9  C   LIG A   1      -0.641  -2.050  -3.422  0.00  0.00    +0.037 C 
ATOM     10  O   LIG A   1       0.665   0.829  -3.417  0.00  0.00    -0.359 OA
ATOM     11  C   LIG A   1       1.427  -0.186  -1.177  0.00  0.00    -0.035 C 
ATOM     12  C   LIG A   1       2.732  -0.526  -1.141  0.00  0.00    +0.011 C 
ENDROOT
BRANCH   1  19
ATOM     13  C   LIG A   1      -1.474   4.065   3.050  0.00  0.00    +0.019 C 
ATOM     14  C   LIG A   1      -0.704   3.594   1.792  0.00  0.00    +0.031 C 
ATOM     15  C   LIG A   1      -1.456   4.206   0.586  0.00  0.00    +0.019 C 
ATOM     16  C   LIG A   1       0.691   4.218   1.788  0.00  0.00    +0.162 C 
ATOM     17  C   LIG A   1       1.649   3.695   0.786  0.00  0.00    +0.043 C 
ATOM     18  C   LIG A   1       1.409   2.551   0.128  0.00  0.00    -0.019 C 
ATOM     19  C   LIG A   1       0.238   1.592   0.354  0.00  0.00    +0.027 C 
ATOM     20  C   LIG A   1      -0.531   2.009   1.684  0.00  0.00    +0.020 C 
ATOM     21  O   LIG A   1       1.035   5.131   2.526  0.00  0.00    -0.292 OA
BRANCH  20  22
ATOM     22  C   LIG A   1       0.025   1.378   2.996  0.00  0.00    +0.125 C 
BRANCH  22  23
ATOM     23  C   LIG A   1       1.465   1.705   3.359  0.00  0.00    +0.307 C 
ATOM     24  O   LIG A   1       2.426   1.406   2.694  0.00  0.00    -0.251 OA
BRANCH  23  25
ATOM     25  O   LIG A   1       1.510   2.424   4.522  0.00  0.00    -0.468 OA
ATOM     26  C   LIG A   1       2.767   3.063   4.757  0.00  0.00    +0.280 C 
ENDBRANCH  23  25
ENDBRANCH  22  23
ENDBRANCH  20  22
ENDBRANCH   1  19
BRANCH   9  27
ATOM     27  C   LIG A   1      -0.067  -3.362  -2.972  0.00  0.00    -0.006 A 
ATOM     28  C   LIG A   1       1.233  -3.660  -2.617  0.00  0.00    +0.198 A 
ATOM     29  O   LIG A   1       1.374  -4.976  -2.318  0.00  0.00    -0.471 OA
ATOM     30  C   LIG A   1       0.161  -5.552  -2.490  0.00  0.00    +0.195 A 
ATOM     31  C   LIG A   1      -0.742  -4.624  -2.951  0.00  0.00    +0.045 A 
ENDBRANCH   9  27
BRANCH   2  32
ATOM     32  O   LIG A   1       0.410  -2.338   0.127  0.00  0.00    -0.457 OA
BRANCH  32  33
ATOM     33  C   LIG A   1       0.987  -2.860   1.201  0.00  0.00    +0.304 C 
ATOM     34  C   LIG A   1       2.164  -3.752   0.882  0.00  0.00    +0.136 C 
ATOM     35  O   LIG A   1       0.679  -2.552   2.370  0.00  0.00    -0.251 OA
ENDBRANCH  32  33
ENDBRANCH   2  32
BRANCH   3  36
ATOM     36  O   LIG A   1      -2.429  -1.912  -0.633  0.00  0.00    -0.457 OA
BRANCH  36  37
ATOM     37  C   LIG A   1      -3.373  -1.390   0.220  0.00  0.00    +0.304 C 
ATOM     38  C   LIG A   1      -4.193  -2.436   0.902  0.00  0.00    +0.136 C 
ATOM     39  O   LIG A   1      -3.514  -0.196   0.463  0.00  0.00    -0.251 OA
ENDBRANCH  36  37
ENDBRANCH   3  36
TORSDOF 9
