REMARK  Name = NuBBE_285
REMARK  11 active torsions:
REMARK  status: ('A' for Active; 'I' for Inactive)
REMARK    1  A    between atoms: O_1  and  C_2
REMARK    2  A    between atoms: C_5  and  O_6
REMARK    3  A    between atoms: O_6  and  C_7
REMARK    4  A    between atoms: C_10  and  C_18
REMARK    5  A    between atoms: C_12  and  O_17
REMARK    6  A    between atoms: C_14  and  O_16
REMARK    7  A    between atoms: C_18  and  O_19
REMARK    8  A    between atoms: C_20  and  O_22
REMARK    9  A    between atoms: C_23  and  C_30
REMARK   10  A    between atoms: C_27  and  O_28
REMARK   11  A    between atoms: C_33  and  O_36
REMARK                            x       y       z     vdW  Elec       q    Type
REMARK                         _______ _______ _______ _____ _____    ______ ____
ROOT
ATOM      1  C   LIG A   1      -0.209  -3.750   2.356  0.00  0.00    +0.135 A 
ATOM      2  C   LIG A   1      -0.096  -2.358   2.236  0.00  0.00    +0.109 A 
ATOM      3  C   LIG A   1       0.301  -1.730   0.974  0.00  0.00    +0.238 A 
ATOM      4  C   LIG A   1       0.391  -0.238   0.933  0.00  0.00    +0.214 A 
ATOM      5  C   LIG A   1       0.081   0.418   2.070  0.00  0.00    +0.181 A 
ATOM      6  O   LIG A   1      -0.297  -0.174   3.264  0.00  0.00    -0.451 OA
ATOM      7  C   LIG A   1      -0.365  -1.542   3.328  0.00  0.00    +0.146 A 
ATOM      8  C   LIG A   1      -0.721  -2.109   4.554  0.00  0.00    +0.092 A 
ATOM      9  C   LIG A   1      -0.808  -3.496   4.665  0.00  0.00    +0.124 A 
ATOM     10  C   LIG A   1      -0.568  -4.320   3.571  0.00  0.00    +0.091 A 
ATOM     11  O   LIG A   1       0.500  -2.450  -0.001  0.00  0.00    -0.283 OA
ENDROOT
BRANCH   5  12
ATOM     12  C   LIG A   1       0.109   1.891   2.148  0.00  0.00    +0.021 A 
ATOM     13  C   LIG A   1       1.275   2.562   2.545  0.00  0.00    +0.015 A 
ATOM     14  C   LIG A   1       1.303   3.960   2.614  0.00  0.00    +0.046 A 
ATOM     15  C   LIG A   1       0.163   4.685   2.287  0.00  0.00    +0.117 A 
ATOM     16  C   LIG A   1      -1.002   4.037   1.895  0.00  0.00    +0.046 A 
ATOM     17  C   LIG A   1      -1.032   2.641   1.826  0.00  0.00    +0.015 A 
BRANCH  15  18
ATOM     18  O   LIG A   1       0.144   6.048   2.340  0.00  0.00    -0.507 OA
ATOM     19  H   LIG A   1       1.015   6.363   2.630  0.00  0.00    +0.292 HD
ENDBRANCH  15  18
ENDBRANCH   5  12
BRANCH   1  20
ATOM     20  O   LIG A   1       0.021  -4.616   1.320  0.00  0.00    -0.506 OA
ATOM     21  H   LIG A   1       0.300  -4.093   0.538  0.00  0.00    +0.292 HD
ENDBRANCH   1  20
BRANCH   9  22
ATOM     22  O   LIG A   1      -1.127  -4.098   5.846  0.00  0.00    -0.506 OA
ATOM     23  H   LIG A   1      -1.191  -3.426   6.543  0.00  0.00    +0.292 HD
ENDBRANCH   9  22
BRANCH   4  24
ATOM     24  O   LIG A   1       0.773   0.461  -0.202  0.00  0.00    -0.453 OA
BRANCH  24  25
ATOM     25  C   LIG A   1       0.628  -0.124  -1.504  0.00  0.00    +0.340 C 
ATOM     26  O   LIG A   1       1.296   0.751  -2.435  0.00  0.00    -0.331 OA
ATOM     27  C   LIG A   1       1.241   0.276  -3.786  0.00  0.00    +0.179 C 
ATOM     28  C   LIG A   1      -0.218   0.270  -4.262  0.00  0.00    +0.177 C 
ATOM     29  C   LIG A   1      -1.017  -0.659  -3.356  0.00  0.00    +0.180 C 
ATOM     30  C   LIG A   1      -0.872  -0.263  -1.889  0.00  0.00    +0.214 C 
BRANCH  29  31
ATOM     31  O   LIG A   1      -2.399  -0.623  -3.747  0.00  0.00    -0.386 OA
ATOM     32  H   LIG A   1      -2.893  -1.019  -2.999  0.00  0.00    +0.210 HD
ENDBRANCH  29  31
BRANCH  28  33
ATOM     33  O   LIG A   1      -0.338  -0.176  -5.616  0.00  0.00    -0.387 OA
ATOM     34  H   LIG A   1      -1.294  -0.363  -5.735  0.00  0.00    +0.210 HD
ENDBRANCH  28  33
BRANCH  30  35
ATOM     35  O   LIG A   1      -1.605  -1.241  -1.129  0.00  0.00    -0.383 OA
ATOM     36  H   LIG A   1      -1.043  -2.043  -1.070  0.00  0.00    +0.210 HD
ENDBRANCH  30  35
BRANCH  27  37
ATOM     37  C   LIG A   1       2.128   1.164  -4.668  0.00  0.00    +0.190 C 
BRANCH  37  38
ATOM     38  O   LIG A   1       2.158   0.737  -6.025  0.00  0.00    -0.392 OA
ATOM     39  H   LIG A   1       1.241   0.482  -6.269  0.00  0.00    +0.209 HD
ENDBRANCH  37  38
ENDBRANCH  27  37
ENDBRANCH  24  25
ENDBRANCH   4  24
TORSDOF 11
