@<TRIPOS>MOLECULE
NuBBE_241
 36 38 0 0 0
SMALL
GASTEIGER

@<TRIPOS>ATOM
      1 O          -0.5530    1.1825   -2.0929 O.3     1  LIG1       -0.3875
      2 C          -1.0466    1.2775   -0.7476 C.3     1  LIG1        0.1004
      3 H          -2.1380    1.3490   -0.8114 H       1  LIG1        0.0637
      4 C          -0.4964    2.5632   -0.1256 C.3     1  LIG1        0.0092
      5 C           0.9221    2.3974    0.3586 C.ar    1  LIG1        0.0384
      6 C           1.7074    3.4906    0.7512 C.ar    1  LIG1        0.1270
      7 O           1.2511    4.7793    0.7469 O.3     1  LIG1       -0.5063
      8 C           3.0253    3.3215    1.1769 C.ar    1  LIG1        0.0218
      9 C           3.5717    2.0451    1.2125 C.ar    1  LIG1        0.1238
     10 O           4.8589    1.8333    1.6093 O.3     1  LIG1       -0.5065
     11 C           2.8148    0.9418    0.8462 C.ar    1  LIG1        0.0221
     12 C           1.4909    1.1160    0.4414 C.ar    1  LIG1        0.1317
     13 O           0.8239   -0.0319    0.0975 O.3     1  LIG1       -0.4811
     14 C          -0.6107    0.0849    0.1243 C.3     1  LIG1        0.1514
     15 H          -0.9260    0.2806    1.1610 H       1  LIG1        0.0811
     16 C          -1.1742   -1.2850   -0.2263 C.ar    1  LIG1        0.0023
     17 C          -0.9014   -2.3615    0.6499 C.ar    1  LIG1       -0.0095
     18 C          -1.3999   -3.6339    0.3824 C.ar    1  LIG1        0.1623
     19 O          -1.1566   -4.6967    1.2068 O.3     1  LIG1       -0.5032
     20 C          -2.1702   -3.8554   -0.7496 C.ar    1  LIG1        0.2006
     21 O          -2.6666   -5.1010   -1.0235 O.3     1  LIG1       -0.5009
     22 C          -2.4426   -2.8112   -1.6201 C.ar    1  LIG1        0.1623
     23 O          -3.1976   -3.0328   -2.7357 O.3     1  LIG1       -0.5032
     24 C          -1.9534   -1.5327   -1.3705 C.ar    1  LIG1       -0.0095
     25 H           0.3414    0.7923   -2.0432 H       1  LIG1        0.2100
     26 H          -1.1149    2.8449    0.7352 H       1  LIG1        0.0342
     27 H          -0.5394    3.3666   -0.8702 H       1  LIG1        0.0342
     28 H           0.3519    4.8156    0.3866 H       1  LIG1        0.2921
     29 H           3.6042    4.1919    1.4682 H       1  LIG1        0.0691
     30 H           5.2702    2.6931    1.7992 H       1  LIG1        0.2921
     31 H           3.2521   -0.0520    0.8803 H       1  LIG1        0.0691
     32 H          -0.2917   -2.1852    1.5330 H       1  LIG1        0.0659
     33 H          -0.5740   -4.3954    1.9257 H       1  LIG1        0.2923
     34 H          -2.3403   -5.6544   -0.2845 H       1  LIG1        0.2924
     35 H          -3.4057   -3.9884   -2.7047 H       1  LIG1        0.2923
     36 H          -2.1865   -0.7497   -2.0873 H       1  LIG1        0.0659
@<TRIPOS>BOND
     1     2     4    1
     2     4     5    1
     3     5     6   ar
     4     6     7    1
     5     6     8   ar
     6     8     9   ar
     7     9    10    1
     8     9    11   ar
     9    11    12   ar
    10     5    12   ar
    11    12    13    1
    12    13    14    1
    13    14    15    1
    14     2    14    1
    15    14    16    1
    16    16    17   ar
    17    17    18   ar
    18    18    19    1
    19    18    20   ar
    20    20    21    1
    21    20    22   ar
    22    22    23    1
    23    22    24   ar
    24    16    24   ar
    25     2     3    1
    26     2     1    1
    27     1    25    1
    28     4    26    1
    29     4    27    1
    30     7    28    1
    31     8    29    1
    32    10    30    1
    33    11    31    1
    34    17    32    1
    35    19    33    1
    36    21    34    1
    37    23    35    1
    38    24    36    1
