REMARK  Name = NuBBE_1427
REMARK  6 active torsions:
REMARK  status: ('A' for Active; 'I' for Inactive)
REMARK    1  A    between atoms: C_1  and  C_2
REMARK    2  A    between atoms: C_4  and  O_6
REMARK    3  A    between atoms: C_7  and  C_9
REMARK    4  A    between atoms: C_9  and  C_11
REMARK    5  A    between atoms: C_9  and  C_12
REMARK    6  A    between atoms: C_19  and  O_21
REMARK                            x       y       z     vdW  Elec       q    Type
REMARK                         _______ _______ _______ _____ _____    ______ ____
ROOT
ATOM      1  C   LIG A   1       0.587   0.136   2.100  0.00  0.00    +0.014 C 
ATOM      2  C   LIG A   1       1.198   0.381   0.695  0.00  0.00    +0.003 C 
ATOM      3  C   LIG A   1       0.189   1.094  -0.262  0.00  0.00    +0.052 C 
ATOM      4  C   LIG A   1      -1.032   0.196  -0.614  0.00  0.00    +0.126 C 
ATOM      5  C   LIG A   1      -0.596  -1.181  -1.182  0.00  0.00    +0.021 C 
ATOM      6  C   LIG A   1       0.400  -1.878  -0.242  0.00  0.00    +0.007 C 
ATOM      7  C   LIG A   1       1.596  -0.987   0.087  0.00  0.00    +0.010 C 
ATOM      8  C   LIG A   1      -0.107   2.495   0.286  0.00  0.00    -0.070 C 
ATOM      9  C   LIG A   1       1.121   3.371   0.389  0.00  0.00    +0.033 C 
ATOM     10  C   LIG A   1       2.191   2.709   1.251  0.00  0.00    +0.036 C 
ATOM     11  C   LIG A   1       2.478   1.270   0.805  0.00  0.00    +0.121 C 
ATOM     12  C   LIG A   1      -1.312   2.957   0.660  0.00  0.00    +0.008 C 
ENDROOT
BRANCH   5  13
ATOM     13  C   LIG A   1      -1.802  -2.088  -1.581  0.00  0.00    -0.012 C 
ATOM     14  C   LIG A   1      -1.349  -3.360  -2.308  0.00  0.00    +0.007 C 
ATOM     15  C   LIG A   1      -2.713  -2.468  -0.410  0.00  0.00    +0.007 C 
ENDBRANCH   5  13
BRANCH   4  16
ATOM     16  O   LIG A   1      -1.811   0.862  -1.615  0.00  0.00    -0.391 OA
ATOM     17  H   LIG A   1      -2.708   0.489  -1.587  0.00  0.00    +0.210 HD
ENDBRANCH   4  16
BRANCH  11  18
ATOM     18  O   LIG A   1       3.442   0.690   1.684  0.00  0.00    -0.391 OA
ATOM     19  H   LIG A   1       3.135   0.817   2.597  0.00  0.00    +0.210 HD
ENDBRANCH  11  18
TORSDOF 3
