@<TRIPOS>MOLECULE
NuBBE_1664
 55 58 0 0 0
SMALL
GASTEIGER

@<TRIPOS>ATOM
      1 O          -2.6904   -3.4978    0.6771 O.2     1  LIG1       -0.2863
      2 C          -1.5816   -2.9931    0.4639 C.ar    1  LIG1        0.2038
      3 C          -1.4214   -1.5323    0.4867 C.ar    1  LIG1        0.1097
      4 C          -0.1424   -1.0044    0.4083 C.ar    1  LIG1        0.1457
      5 C           0.0515    0.3748    0.3827 C.ar    1  LIG1        0.0271
      6 C          -1.0428    1.2504    0.4177 C.ar    1  LIG1        0.1726
      7 C          -2.3557    0.7244    0.5529 C.ar    1  LIG1        0.2044
      8 C          -2.5324   -0.6716    0.5596 C.ar    1  LIG1        0.1768
      9 O          -3.7943   -1.2129    0.5824 O.3     1  LIG1       -0.5027
     10 O          -3.3913    1.6338    0.5920 O.3     1  LIG1       -0.4885
     11 C          -4.5479    1.2657    1.3468 C.3     1  LIG1        0.0791
     12 O          -0.8835    2.6179    0.3779 O.3     1  LIG1       -0.4569
     13 C           0.2739    3.1400   -0.3218 C.3     1  LIG1        0.2310
     14 H           0.4407    2.5542   -1.2371 H       1  LIG1        0.1084
     15 O           1.4419    3.0737    0.5184 O.3     1  LIG1       -0.3313
     16 C           2.6113    3.6595   -0.0676 C.3     1  LIG1        0.1140
     17 H           2.8262    3.1846   -1.0355 H       1  LIG1        0.0647
     18 C           3.8031    3.3709    0.8559 C.3     1  LIG1        0.0731
     19 O           5.0047    3.9329    0.3345 O.3     1  LIG1       -0.3924
     20 C           2.3877    5.1642   -0.2757 C.3     1  LIG1        0.1120
     21 H           2.1688    5.6605    0.6774 H       1  LIG1        0.0647
     22 C           1.2012    5.3328   -1.2231 C.3     1  LIG1        0.1152
     23 H           1.4641    4.9732   -2.2268 H       1  LIG1        0.0648
     24 C          -0.0422    4.6037   -0.7101 C.3     1  LIG1        0.1454
     25 H          -0.4565    5.1358    0.1547 H       1  LIG1        0.0683
     26 O          -1.0395    4.6591   -1.7443 O.3     1  LIG1       -0.3829
     27 O           0.8994    6.7289   -1.3886 O.3     1  LIG1       -0.3864
     28 O           3.5065    5.8407   -0.8588 O.3     1  LIG1       -0.3865
     29 O           0.9762   -1.7956    0.3358 O.2     1  LIG1       -0.4618
     30 C           0.7913   -3.1459    0.1422 C.ar    1  LIG1        0.1038
     31 C          -0.3830   -3.8003    0.1670 C.ar    1  LIG1        0.0644
     32 C          -0.4516   -5.2474   -0.0881 C.ar    1  LIG1       -0.0110
     33 C          -0.3418   -6.1625    0.9675 C.ar    1  LIG1       -0.0504
     34 C          -0.3990   -7.5402    0.7259 C.ar    1  LIG1       -0.0196
     35 C          -0.5688   -8.0034   -0.5740 C.ar    1  LIG1        0.1169
     36 C          -0.6818   -7.1125   -1.6338 C.ar    1  LIG1       -0.0196
     37 C          -0.6208   -5.7352   -1.3936 C.ar    1  LIG1       -0.0504
     38 O          -0.6256   -9.3370   -0.8517 O.3     1  LIG1       -0.5068
     39 H           1.0708    0.7423    0.3409 H       1  LIG1        0.0692
     40 H          -3.7356   -2.1898    0.6674 H       1  LIG1        0.2923
     41 H          -5.2539    2.1009    1.3194 H       1  LIG1        0.0660
     42 H          -4.2874    1.0703    2.3927 H       1  LIG1        0.0660
     43 H          -5.1051    0.4310    0.9168 H       1  LIG1        0.0660
     44 H           3.9350    2.2878    0.9588 H       1  LIG1        0.0584
     45 H           3.6306    3.7767    1.8582 H       1  LIG1        0.0584
     46 H           5.7445    3.4575    0.7583 H       1  LIG1        0.2095
     47 H          -1.1046    5.6042   -1.9857 H       1  LIG1        0.2102
     48 H           1.7696    7.1577   -1.5261 H       1  LIG1        0.2100
     49 H           4.3098    5.5092   -0.3998 H       1  LIG1        0.2100
     50 H           1.7458   -3.6176   -0.0408 H       1  LIG1        0.1037
     51 H          -0.2167   -5.8132    1.9895 H       1  LIG1        0.0625
     52 H          -0.3129   -8.2294    1.5599 H       1  LIG1        0.0654
     53 H          -0.8176   -7.4887   -2.6445 H       1  LIG1        0.0654
     54 H          -0.7113   -5.0550   -2.2375 H       1  LIG1        0.0625
     55 H          -0.5150   -9.8335   -0.0240 H       1  LIG1        0.2921
@<TRIPOS>BOND
     1     1     2    2
     2     2     3   ar
     3     3     4   ar
     4     4     5   ar
     5     5     6   ar
     6     6     7   ar
     7     7     8   ar
     8     3     8   ar
     9     8     9    1
    10     7    10    1
    11    10    11    1
    12     6    12    1
    13    12    13    1
    14    13    14    1
    15    13    15    1
    16    15    16    1
    17    16    17    1
    18    16    18    1
    19    18    19    1
    20    16    20    1
    21    20    22    1
    22    22    23    1
    23    22    24    1
    24    13    24    1
    25    22    27    1
    26     4    29   ar
    27    29    30   ar
    28    30    31   ar
    29     2    31   ar
    30    31    32    1
    31    32    33   ar
    32    33    34   ar
    33    34    35   ar
    34    35    36   ar
    35    36    37   ar
    36    32    37   ar
    37    35    38    1
    38    20    28    1
    39    20    21    1
    40    24    26    1
    41    24    25    1
    42     5    39    1
    43     9    40    1
    44    11    41    1
    45    11    42    1
    46    11    43    1
    47    18    44    1
    48    18    45    1
    49    19    46    1
    50    26    47    1
    51    27    48    1
    52    28    49    1
    53    30    50    1
    54    33    51    1
    55    34    52    1
    56    36    53    1
    57    37    54    1
    58    38    55    1
