@<TRIPOS>MOLECULE
NuBBE_333
 32 33 0 0 0
SMALL
GASTEIGER

@<TRIPOS>ATOM
      1 O          -2.6881   -0.6056    2.4957 O.2     1  LIG1       -0.2452
      2 C          -1.5674   -0.8199    2.0667 C.2     1  LIG1        0.3381
      3 O          -0.8454   -1.9559    2.2387 O.3     1  LIG1       -0.4646
      4 C          -1.4853   -2.9774    3.0051 C.3     1  LIG1        0.0820
      5 C          -0.7678    0.1453    1.2613 C.2     1  LIG1        0.0744
      6 C          -1.1072    1.4418    1.3370 C.2     1  LIG1        0.0981
      7 O          -0.4464    2.4756    0.7232 O.2     1  LIG1       -0.4705
      8 C           0.8823    2.1682    0.2964 C.3     1  LIG1        0.2021
      9 H           1.2132    2.9749   -0.3660 H       1  LIG1        0.1056
     10 O           1.7585    2.1676    1.4193 O.3     1  LIG1       -0.3575
     11 C           0.9926    0.8271   -0.4232 C.3     1  LIG1        0.0335
     12 H           2.0569    0.5998   -0.5818 H       1  LIG1        0.0370
     13 C           0.3767   -0.3278    0.3991 C.3     1  LIG1        0.0050
     14 H           1.1467   -0.7572    1.0524 H       1  LIG1        0.0358
     15 C          -0.0658   -1.3691   -0.6607 C.3     1  LIG1       -0.0190
     16 C           0.2386   -0.7567   -2.0287 C.3     1  LIG1        0.0588
     17 H          -0.5008   -1.0553   -2.7785 H       1  LIG1        0.0596
     18 O           1.5172   -1.2148   -2.4543 O.3     1  LIG1       -0.3915
     19 C           0.2431    0.7498   -1.7655 C.3     1  LIG1       -0.0087
     20 H          -0.7947    1.0862   -1.6400 H       1  LIG1        0.0328
     21 C           0.8836    1.5758   -2.8719 C.3     1  LIG1       -0.0596
     22 H          -2.5205   -3.1349    2.6867 H       1  LIG1        0.0661
     23 H          -1.4394   -2.7278    4.0691 H       1  LIG1        0.0661
     24 H          -0.9338   -3.9081    2.8437 H       1  LIG1        0.0661
     25 H          -1.9546    1.8221    1.8970 H       1  LIG1        0.1029
     26 H           1.7342    3.0786    1.7562 H       1  LIG1        0.2135
     27 H          -1.1388   -1.5825   -0.5900 H       1  LIG1        0.0296
     28 H           0.4722   -2.3129   -0.5142 H       1  LIG1        0.0296
     29 H           1.6142   -0.9865   -3.3950 H       1  LIG1        0.2098
     30 H           1.9530    1.3663   -2.9740 H       1  LIG1        0.0233
     31 H           0.7714    2.6460   -2.6712 H       1  LIG1        0.0233
     32 H           0.4014    1.3670   -3.8326 H       1  LIG1        0.0233
@<TRIPOS>BOND
     1     1     2    2
     2     2     3    1
     3     3     4    1
     4     5     6    2
     5     6     7    1
     6     7     8    1
     7     8    11    1
     8    11    13    1
     9     5    13    1
    10    13    15    1
    11    15    16    1
    12    16    19    1
    13    11    19    1
    14     2     5    1
    15     8     9    1
    16     8    10    1
    17    11    12    1
    18    13    14    1
    19    16    18    1
    20    16    17    1
    21    19    21    1
    22    19    20    1
    23     4    22    1
    24     4    23    1
    25     4    24    1
    26     6    25    1
    27    10    26    1
    28    15    27    1
    29    15    28    1
    30    18    29    1
    31    21    30    1
    32    21    31    1
    33    21    32    1
