@<TRIPOS>MOLECULE
NuBBE_1973
 9 9 0 0 0
SMALL
GASTEIGER

@<TRIPOS>ATOM
      1 C           0.6893   -0.2507   -0.0480 C.2     1  LIG1       -0.0664
      2 C           0.7761    1.0840   -0.0994 C.2     1  LIG1       -0.0209
      3 S          -0.6786    2.0060    0.0466 S.3     1  LIG1       -0.0649
      4 S          -1.9106    0.3748   -0.1200 S.3     1  LIG1       -0.0845
      5 C          -0.6465   -0.9038    0.1039 C.3     1  LIG1        0.0231
      6 H           1.5752   -0.8719   -0.1184 H       1  LIG1        0.0586
      7 H           1.7234    1.6000   -0.2070 H       1  LIG1        0.0695
      8 H          -0.7840   -1.6814   -0.6526 H       1  LIG1        0.0428
      9 H          -0.7442   -1.3570    1.0949 H       1  LIG1        0.0428
@<TRIPOS>BOND
     1     1     2    2
     2     2     3    1
     3     3     4    1
     4     4     5    1
     5     1     5    1
     6     1     6    1
     7     2     7    1
     8     5     8    1
     9     5     9    1
