REMARK  Name = NuBBE_137
REMARK  11 active torsions:
REMARK  status: ('A' for Active; 'I' for Inactive)
REMARK    1  A    between atoms: O_1  and  C_2
REMARK    2  A    between atoms: C_5  and  C_6
REMARK    3  A    between atoms: C_7  and  C_8
REMARK    4  A    between atoms: C_8  and  O_9
REMARK    5  A    between atoms: O_9  and  C_10
REMARK    6  A    between atoms: C_12  and  O_14
REMARK    7  A    between atoms: C_15  and  O_17
REMARK    8  A    between atoms: C_19  and  C_20
REMARK    9  A    between atoms: C_19  and  O_23
REMARK   10  A    between atoms: C_20  and  O_21
REMARK   11  A    between atoms: C_27  and  O_28
REMARK                            x       y       z     vdW  Elec       q    Type
REMARK                         _______ _______ _______ _____ _____    ______ ____
ROOT
ATOM      1  C   LIG A   1      -2.338   0.761   1.534  0.00  0.00    +0.211 C 
ATOM      2  C   LIG A   1      -2.666   2.263   1.567  0.00  0.00    +0.184 C 
ATOM      3  C   LIG A   1      -2.442   2.902   0.187  0.00  0.00    +0.150 C 
ATOM      4  C   LIG A   1      -3.303   2.228  -0.881  0.00  0.00    +0.080 C 
ATOM      5  C   LIG A   1      -3.123   0.709  -0.923  0.00  0.00    +0.168 C 
ATOM      6  C   LIG A   1      -3.185   0.053   0.464  0.00  0.00    +0.093 C 
ENDROOT
BRANCH   2   7
ATOM      7  O   LIG A   1      -4.030   2.456   1.965  0.00  0.00    -0.386 OA
ATOM      8  H   LIG A   1      -4.291   3.338   1.628  0.00  0.00    +0.210 HD
ENDBRANCH   2   7
BRANCH   3   9
ATOM      9  O   LIG A   1      -2.820   4.283   0.254  0.00  0.00    -0.389 OA
ATOM     10  H   LIG A   1      -2.088   4.763   0.681  0.00  0.00    +0.210 HD
ENDBRANCH   3   9
BRANCH   5  11
ATOM     11  C   LIG A   1      -1.823   0.339  -1.664  0.00  0.00    +0.337 C 
ATOM     12  O   LIG A   1      -0.789   0.984  -1.726  0.00  0.00    -0.248 OA
BRANCH  11  13
ATOM     13  O   LIG A   1      -1.921  -0.859  -2.289  0.00  0.00    -0.479 OA
ATOM     14  H   LIG A   1      -1.071  -0.954  -2.771  0.00  0.00    +0.295 HD
ENDBRANCH  11  13
ENDBRANCH   5  11
BRANCH   5  15
ATOM     15  O   LIG A   1      -4.216   0.177  -1.697  0.00  0.00    -0.377 OA
ATOM     16  H   LIG A   1      -3.962  -0.739  -1.928  0.00  0.00    +0.211 HD
ENDBRANCH   5  15
BRANCH   1  17
ATOM     17  O   LIG A   1      -0.928   0.606   1.273  0.00  0.00    -0.456 OA
BRANCH  17  18
ATOM     18  C   LIG A   1      -0.427  -0.645   1.464  0.00  0.00    +0.332 C 
ATOM     19  O   LIG A   1      -1.037  -1.615   1.855  0.00  0.00    -0.246 OA
BRANCH  18  21
ATOM     20  C   LIG A   1       1.559  -1.814   0.686  0.00  0.00    +0.015 C 
ATOM     21  C   LIG A   1       0.984  -0.654   1.038  0.00  0.00    +0.092 C 
BRANCH  20  25
ATOM     22  C   LIG A   1       5.593  -2.307  -0.653  0.00  0.00    +0.158 A 
ATOM     23  C   LIG A   1       4.949  -3.345   0.014  0.00  0.00    +0.050 A 
ATOM     24  C   LIG A   1       3.635  -3.167   0.467  0.00  0.00    +0.012 A 
ATOM     25  C   LIG A   1       2.963  -1.950   0.265  0.00  0.00    -0.021 A 
ATOM     26  C   LIG A   1       3.633  -0.912  -0.396  0.00  0.00    +0.057 A 
ATOM     27  C   LIG A   1       4.939  -1.093  -0.850  0.00  0.00    +0.159 A 
BRANCH  22  28
ATOM     28  O   LIG A   1       6.861  -2.469  -1.133  0.00  0.00    -0.503 OA
ATOM     29  H   LIG A   1       7.154  -3.376  -0.963  0.00  0.00    +0.292 HD
ENDBRANCH  22  28
BRANCH  27  30
ATOM     30  O   LIG A   1       5.579  -0.081  -1.509  0.00  0.00    -0.503 OA
ATOM     31  H   LIG A   1       4.969   0.665  -1.615  0.00  0.00    +0.292 HD
ENDBRANCH  27  30
ENDBRANCH  20  25
ENDBRANCH  18  21
ENDBRANCH  17  18
ENDBRANCH   1  17
TORSDOF 11
