REMARK  Name = NuBBE_1634
REMARK  2 active torsions:
REMARK  status: ('A' for Active; 'I' for Inactive)
REMARK    1  A    between atoms: C_1  and  C_2
REMARK    2  A    between atoms: C_19  and  C_20
REMARK                            x       y       z     vdW  Elec       q    Type
REMARK                         _______ _______ _______ _____ _____    ______ ____
ROOT
ATOM      1  C   LIG A   1      -3.245  -0.580  -0.001  0.00  0.00    +0.046 C 
ATOM      2  C   LIG A   1      -1.738  -0.584  -0.001  0.00  0.00    -0.019 A 
ATOM      3  C   LIG A   1      -0.991   0.613  -0.001  0.00  0.00    +0.051 A 
ATOM      4  C   LIG A   1       0.399   0.644  -0.001  0.00  0.00    +0.008 A 
ATOM      5  C   LIG A   1       0.813   2.014  -0.001  0.00  0.00    +0.007 A 
ATOM      6  C   LIG A   1      -0.339   2.795  -0.001  0.00  0.00    +0.048 A 
ATOM      7  N   LIG A   1      -1.406   1.929  -0.001  0.00  0.00    -0.354 N 
ATOM      8  H   LIG A   1      -2.370   2.226  -0.001  0.00  0.00    +0.166 HD
ATOM      9  C   LIG A   1      -0.307   4.194  -0.002  0.00  0.00    +0.026 A 
ATOM     10  C   LIG A   1       0.948   4.812  -0.002  0.00  0.00    +0.002 A 
ATOM     11  C   LIG A   1       2.119   4.059  -0.002  0.00  0.00    +0.001 A 
ATOM     12  C   LIG A   1       2.067   2.660  -0.002  0.00  0.00    +0.010 A 
ATOM     13  C   LIG A   1       1.099  -0.575   0.000  0.00  0.00    +0.021 A 
ATOM     14  C   LIG A   1       0.414  -1.810   0.001  0.00  0.00    +0.004 A 
ATOM     15  C   LIG A   1      -1.002  -1.813  -0.000  0.00  0.00    -0.010 A 
ATOM     16  C   LIG A   1      -1.642  -3.066  -0.001  0.00  0.00    +0.028 A 
ATOM     17  C   LIG A   1      -0.894  -4.229   0.000  0.00  0.00    +0.112 A 
ATOM     18  N   LIG A   1       0.447  -4.252   0.002  0.00  0.00    -0.260 NA
ATOM     19  C   LIG A   1       1.086  -3.056   0.002  0.00  0.00    +0.046 A 
ATOM     20  C   LIG A   1       2.588  -3.146   0.005  0.00  0.00    +0.066 C 
ENDROOT
TORSDOF 0
