@<TRIPOS>MOLECULE
NuBBE_1089
 44 45 0 0 0
SMALL
GASTEIGER

@<TRIPOS>ATOM
      1 O           0.6915   -3.9358    2.4406 O.2     1  LIG1       -0.2451
      2 C           1.3753   -2.9228    2.4214 C.2     1  LIG1        0.3374
      3 O           2.4725   -2.8403    3.1965 O.3     1  LIG1       -0.4771
      4 C           1.1180   -1.7114    1.5811 C.2     1  LIG1        0.0666
      5 C          -0.0891   -1.7089    0.7216 C.ar    1  LIG1       -0.0076
      6 C          -1.3211   -1.2309    1.1990 C.ar    1  LIG1       -0.0114
      7 C          -2.4770   -1.3362    0.4179 C.ar    1  LIG1        0.1314
      8 O          -3.6363   -0.8466    0.9676 O.3     1  LIG1       -0.5059
      9 C          -2.4368   -1.9468   -0.8423 C.ar    1  LIG1        0.1003
     10 C          -3.6635   -2.0910   -1.6516 C.2     1  LIG1        0.3425
     11 O          -3.5762   -3.1961   -2.4310 O.3     1  LIG1       -0.4644
     12 C          -4.7034   -3.4348   -3.2767 C.3     1  LIG1        0.0820
     13 O          -4.6242   -1.3242   -1.5609 O.2     1  LIG1       -0.2448
     14 C          -1.2024   -2.4121   -1.3272 C.ar    1  LIG1       -0.0436
     15 C          -0.0404   -2.2816   -0.5574 C.ar    1  LIG1       -0.0528
     16 C           2.0159   -0.7036    1.6322 C.2     1  LIG1       -0.0399
     17 C           2.0202    0.5609    0.8915 C.ar    1  LIG1       -0.0206
     18 C           1.4575    1.7088    1.4600 C.ar    1  LIG1       -0.0091
     19 C           1.5583    2.9510    0.8178 C.ar    1  LIG1        0.1620
     20 O           1.0527    4.1131    1.3502 O.3     1  LIG1       -0.4914
     21 C           1.0665    4.2019    2.7739 C.3     1  LIG1        0.0790
     22 C           2.1512    3.0212   -0.4562 C.ar    1  LIG1        0.1615
     23 O           2.1781    4.2406   -1.0906 O.3     1  LIG1       -0.4915
     24 C           2.0619    4.1746   -2.5113 C.3     1  LIG1        0.0790
     25 C           2.7440    1.8770   -1.0039 C.ar    1  LIG1       -0.0157
     26 C           2.6920    0.6569   -0.3267 C.ar    1  LIG1       -0.0509
     27 H           2.4898   -3.6971    3.6722 H       1  LIG1        0.2954
     28 H          -1.3960   -0.7940    2.1923 H       1  LIG1        0.0660
     29 H          -4.3476   -0.8694    0.2925 H       1  LIG1        0.2922
     30 H          -4.7377   -2.6735   -4.0619 H       1  LIG1        0.0661
     31 H          -5.6374   -3.4479   -2.7053 H       1  LIG1        0.0661
     32 H          -4.5728   -4.4124   -3.7469 H       1  LIG1        0.0661
     33 H          -1.1424   -2.8878   -2.3030 H       1  LIG1        0.0627
     34 H           0.8973   -2.6596   -0.9587 H       1  LIG1        0.0624
     35 H           2.8833   -0.7793    2.2877 H       1  LIG1        0.0632
     36 H           0.9402    1.6117    2.4078 H       1  LIG1        0.0661
     37 H           2.0883    4.1302    3.1641 H       1  LIG1        0.0660
     38 H           0.4189    3.4530    3.2390 H       1  LIG1        0.0660
     39 H           0.6658    5.1803    3.0575 H       1  LIG1        0.0660
     40 H           1.9225    5.1912   -2.8919 H       1  LIG1        0.0660
     41 H           1.1914    3.5802   -2.8123 H       1  LIG1        0.0660
     42 H           2.9763    3.7838   -2.9691 H       1  LIG1        0.0660
     43 H           3.2800    1.9152   -1.9463 H       1  LIG1        0.0655
     44 H           3.1950   -0.2075   -0.7529 H       1  LIG1        0.0625
@<TRIPOS>BOND
     1     1     2    2
     2     2     3    1
     3     2     4    1
     4     4     5    1
     5     5     6   ar
     6     6     7   ar
     7     7     8    1
     8     7     9   ar
     9     9    10    1
    10    10    11    1
    11    11    12    1
    12    10    13    2
    13     9    14   ar
    14    14    15   ar
    15     5    15   ar
    16     4    16    2
    17    16    17    1
    18    17    18   ar
    19    18    19   ar
    20    19    20    1
    21    20    21    1
    22    19    22   ar
    23    22    23    1
    24    23    24    1
    25    22    25   ar
    26    25    26   ar
    27    17    26   ar
    28     3    27    1
    29     6    28    1
    30     8    29    1
    31    12    30    1
    32    12    31    1
    33    12    32    1
    34    14    33    1
    35    15    34    1
    36    16    35    1
    37    18    36    1
    38    21    37    1
    39    21    38    1
    40    21    39    1
    41    24    40    1
    42    24    41    1
    43    24    42    1
    44    25    43    1
    45    26    44    1
