@<TRIPOS>MOLECULE
NuBBE_1154
 48 48 0 0 0
SMALL
GASTEIGER

@<TRIPOS>ATOM
      1 O          -5.7801   -2.7249   -0.8214 O.2     1  LIG1       -0.2509
      2 C          -6.0791   -1.8250   -1.6013 C.2     1  LIG1        0.3068
      3 O          -7.0742   -0.9191   -1.3923 O.3     1  LIG1       -0.4679
      4 C          -7.7737   -1.1064   -0.1613 C.3     1  LIG1        0.0817
      5 C          -5.4134   -1.5860   -2.9305 C.3     1  LIG1        0.0449
      6 C          -3.9397   -1.9944   -2.9337 C.3     1  LIG1       -0.0430
      7 C          -3.1001   -1.1846   -1.9409 C.3     1  LIG1       -0.0526
      8 C          -1.6293   -1.6045   -1.9686 C.3     1  LIG1       -0.0530
      9 C          -0.8176   -0.8110   -0.9448 C.3     1  LIG1       -0.0531
     10 C           0.6552   -1.2267   -0.9467 C.3     1  LIG1       -0.0531
     11 C           1.4374   -0.4194    0.0870 C.3     1  LIG1       -0.0530
     12 C           2.9198   -0.7975    0.1234 C.3     1  LIG1       -0.0528
     13 C           3.7001    0.0035    1.1709 C.3     1  LIG1       -0.0491
     14 C           3.6860    1.5134    0.9008 C.3     1  LIG1       -0.0277
     15 C           4.4611    2.2966    1.9293 C.ar    1  LIG1       -0.0474
     16 C           4.0921    2.2603    3.2815 C.ar    1  LIG1       -0.0586
     17 C           4.8104    2.9858    4.2309 C.ar    1  LIG1       -0.0615
     18 C           5.8948    3.7656    3.8358 C.ar    1  LIG1       -0.0617
     19 C           6.2585    3.8240    2.4916 C.ar    1  LIG1       -0.0615
     20 C           5.5434    3.0953    1.5412 C.ar    1  LIG1       -0.0586
     21 H          -8.6442   -0.4444   -0.1588 H       1  LIG1        0.0661
     22 H          -7.1293   -0.8404    0.6823 H       1  LIG1        0.0661
     23 H          -8.1282   -2.1378   -0.0671 H       1  LIG1        0.0661
     24 H          -5.5015   -0.5274   -3.1992 H       1  LIG1        0.0377
     25 H          -5.9609   -2.1718   -3.6771 H       1  LIG1        0.0377
     26 H          -3.5416   -1.8524   -3.9462 H       1  LIG1        0.0270
     27 H          -3.8519   -3.0629   -2.7039 H       1  LIG1        0.0270
     28 H          -3.4843   -1.3255   -0.9242 H       1  LIG1        0.0265
     29 H          -3.1860   -0.1159   -2.1715 H       1  LIG1        0.0265
     30 H          -1.2157   -1.4488   -2.9721 H       1  LIG1        0.0265
     31 H          -1.5493   -2.6751   -1.7451 H       1  LIG1        0.0265
     32 H          -1.2384   -0.9665    0.0565 H       1  LIG1        0.0265
     33 H          -0.8995    0.2615   -1.1623 H       1  LIG1        0.0265
     34 H           1.0832   -1.0629   -1.9430 H       1  LIG1        0.0265
     35 H           0.7403   -2.2962   -0.7238 H       1  LIG1        0.0265
     36 H           0.9998   -0.5706    1.0813 H       1  LIG1        0.0265
     37 H           1.3263    0.6419   -0.1576 H       1  LIG1        0.0265
     38 H           3.3719   -0.6472   -0.8640 H       1  LIG1        0.0265
     39 H           3.0168   -1.8648    0.3589 H       1  LIG1        0.0265
     40 H           4.7385   -0.3525    1.1893 H       1  LIG1        0.0268
     41 H           3.2839   -0.2135    2.1621 H       1  LIG1        0.0268
     42 H           2.6637    1.9064    0.8991 H       1  LIG1        0.0313
     43 H           4.0928    1.7017   -0.1010 H       1  LIG1        0.0313
     44 H           3.2427    1.6625    3.6047 H       1  LIG1        0.0620
     45 H           4.5235    2.9398    5.2778 H       1  LIG1        0.0618
     46 H           6.4561    4.3291    4.5756 H       1  LIG1        0.0618
     47 H           7.1017    4.4352    2.1821 H       1  LIG1        0.0618
     48 H           5.8380    3.1533    0.4960 H       1  LIG1        0.0620
@<TRIPOS>BOND
     1     1     2    2
     2     2     3    1
     3     3     4    1
     4     2     5    1
     5     5     6    1
     6     6     7    1
     7     7     8    1
     8     8     9    1
     9     9    10    1
    10    10    11    1
    11    11    12    1
    12    12    13    1
    13    13    14    1
    14    14    15    1
    15    15    16   ar
    16    16    17   ar
    17    17    18   ar
    18    18    19   ar
    19    19    20   ar
    20    15    20   ar
    21     4    21    1
    22     4    22    1
    23     4    23    1
    24     5    24    1
    25     5    25    1
    26     6    26    1
    27     6    27    1
    28     7    28    1
    29     7    29    1
    30     8    30    1
    31     8    31    1
    32     9    32    1
    33     9    33    1
    34    10    34    1
    35    10    35    1
    36    11    36    1
    37    11    37    1
    38    12    38    1
    39    12    39    1
    40    13    40    1
    41    13    41    1
    42    14    42    1
    43    14    43    1
    44    16    44    1
    45    17    45    1
    46    18    46    1
    47    19    47    1
    48    20    48    1
