REMARK  Name = NuBBE_1747
REMARK  6 active torsions:
REMARK  status: ('A' for Active; 'I' for Inactive)
REMARK    1  A    between atoms: C_1  and  C_3
REMARK    2  A    between atoms: C_1  and  C_9
REMARK    3  A    between atoms: C_3  and  C_4
REMARK    4  A    between atoms: C_4  and  C_5
REMARK    5  A    between atoms: C_6  and  C_7
REMARK    6  A    between atoms: C_6  and  C_8
REMARK                            x       y       z     vdW  Elec       q    Type
REMARK                         _______ _______ _______ _____ _____    ______ ____
ROOT
ATOM      1  C   LIG A   1       1.244  -0.780   0.035  0.00  0.00    +0.038 C 
ENDROOT
BRANCH   1   2
ATOM      2  C   LIG A   1       1.917  -1.132  -1.277  0.00  0.00    -0.055 C 
ATOM      3  C   LIG A   1       2.268  -2.403  -1.533  0.00  0.00    +0.012 C 
BRANCH   2   4
ATOM      4  C   LIG A   1       2.202  -0.096  -2.261  0.00  0.00    -0.005 C 
ATOM      5  C   LIG A   1       1.938   1.210  -2.144  0.00  0.00    +0.008 C 
ENDBRANCH   2   4
ENDBRANCH   1   2
BRANCH   1   6
ATOM      6  C   LIG A   1      -0.284  -0.795  -0.090  0.00  0.00    +0.032 C 
BRANCH   6   7
ATOM      7  C   LIG A   1      -0.946  -0.423   1.210  0.00  0.00    -0.028 C 
ATOM      8  C   LIG A   1      -1.765   0.619   1.450  0.00  0.00    -0.080 C 
ATOM      9  C   LIG A   1      -2.171   1.655   0.438  0.00  0.00    +0.038 C 
ATOM     10  C   LIG A   1      -2.361   0.827   2.819  0.00  0.00    +0.038 C 
ENDBRANCH   6   7
ENDBRANCH   1   6
TORSDOF 4
