@<TRIPOS>MOLECULE
NuBBE_379
 78 82 0 0 0
SMALL
GASTEIGER

@<TRIPOS>ATOM
      1 O          -5.8006   -2.6601    2.1460 O.2     1  LIG1       -0.2840
      2 C          -4.6731   -2.2105    2.3363 C.2     1  LIG1        0.2206
      3 C          -3.7371   -2.9175    3.2493 C.2     1  LIG1        0.1671
      4 O          -4.1941   -4.0992    3.8081 O.2     1  LIG1       -0.5030
      5 C          -2.5108   -2.4191    3.4962 C.2     1  LIG1        0.0022
      6 C          -1.5394   -3.1684    4.3726 C.3     1  LIG1       -0.0356
      7 C          -2.0988   -1.1446    2.8623 C.2     1  LIG1       -0.0144
      8 C          -0.9101   -0.5801    3.1458 C.2     1  LIG1       -0.0539
      9 C          -0.3665    0.5528    2.4430 C.2     1  LIG1       -0.0606
     10 C          -1.0473    1.2308    1.5007 C.2     1  LIG1       -0.0529
     11 C          -0.3469    2.2029    0.4841 C.3     1  LIG1       -0.0043
     12 C           1.0873    2.6546    0.9566 C.3     1  LIG1       -0.0428
     13 C           2.2954    1.7850    0.5988 C.3     1  LIG1       -0.0439
     14 C           2.3571    1.3861   -0.8953 C.3     1  LIG1       -0.0001
     15 C           2.5028    2.6790   -1.7407 C.3     1  LIG1       -0.0567
     16 C           1.0074    0.5965   -1.1217 C.3     1  LIG1       -0.0258
     17 H           0.9477   -0.1279   -0.2928 H       1  LIG1        0.0313
     18 C           1.0945   -0.3000   -2.3825 C.3     1  LIG1       -0.0335
     19 C           2.1701   -1.4235   -2.2423 C.3     1  LIG1        0.0678
     20 C           2.7734   -1.7360   -3.6319 C.3     1  LIG1       -0.0493
     21 C           1.4716   -2.6951   -1.7081 C.2     1  LIG1        0.3129
     22 O           0.9403   -3.4238   -2.7314 O.3     1  LIG1       -0.4675
     23 C          -0.0086   -4.4080   -2.3270 C.3     1  LIG1        0.0817
     24 O           1.3167   -2.9604   -0.5287 O.2     1  LIG1       -0.2502
     25 C           3.2786   -1.0363   -1.2287 C.3     1  LIG1       -0.0082
     26 C           3.6251    0.4607   -1.2213 C.3     1  LIG1        0.0699
     27 O           4.1769    0.7654   -2.5142 O.3     1  LIG1       -0.3883
     28 C           4.8163    0.6835   -0.2739 C.3     1  LIG1       -0.0355
     29 C          -1.1126    3.5609    0.4471 C.3     1  LIG1       -0.0553
     30 C          -0.3344    1.4468   -0.9481 C.3     1  LIG1       -0.0195
     31 C          -0.5610    2.4151   -2.1389 C.3     1  LIG1       -0.0585
     32 C          -1.5454    0.4294   -1.0346 C.3     1  LIG1       -0.0455
     33 C          -2.7938    0.8784   -0.2696 C.3     1  LIG1       -0.0393
     34 C          -2.5465    0.8929    1.2653 C.3     1  LIG1        0.0154
     35 C          -3.4474    1.9472    1.9646 C.3     1  LIG1       -0.0517
     36 C          -2.9803   -0.4658    1.8949 C.2     1  LIG1       -0.0262
     37 C          -4.2071   -0.9818    1.6734 C.2     1  LIG1       -0.0067
     38 H          -5.1068   -4.2018    3.4627 H       1  LIG1        0.2923
     39 H          -1.9328   -4.1295    4.7191 H       1  LIG1        0.0279
     40 H          -1.2908   -2.5847    5.2649 H       1  LIG1        0.0279
     41 H          -0.6184   -3.3908    3.8218 H       1  LIG1        0.0279
     42 H          -0.2224   -1.0252    3.8593 H       1  LIG1        0.0624
     43 H           0.6853    0.7202    2.6394 H       1  LIG1        0.0618
     44 H           1.0863    2.8207    2.0429 H       1  LIG1        0.0274
     45 H           1.3046    3.6565    0.5656 H       1  LIG1        0.0274
     46 H           2.3081    0.8851    1.2229 H       1  LIG1        0.0272
     47 H           3.1894    2.3569    0.8766 H       1  LIG1        0.0272
     48 H           1.8981    3.5124   -1.3874 H       1  LIG1        0.0236
     49 H           2.2425    2.5124   -2.7907 H       1  LIG1        0.0236
     50 H           3.5328    3.0538   -1.7054 H       1  LIG1        0.0236
     51 H           1.3111    0.3260   -3.2548 H       1  LIG1        0.0279
     52 H           0.1282   -0.7721   -2.5895 H       1  LIG1        0.0279
     53 H           3.3067   -0.8887   -4.0688 H       1  LIG1        0.0240
     54 H           1.9959   -2.0027   -4.3577 H       1  LIG1        0.0240
     55 H           3.4762   -2.5751   -3.5790 H       1  LIG1        0.0240
     56 H          -0.2753   -5.0018   -3.2053 H       1  LIG1        0.0661
     57 H          -0.9070   -3.8990   -1.9669 H       1  LIG1        0.0661
     58 H           0.3954   -5.0768   -1.5610 H       1  LIG1        0.0661
     59 H           4.1764   -1.6301   -1.4520 H       1  LIG1        0.0303
     60 H           2.9942   -1.3130   -0.2057 H       1  LIG1        0.0303
     61 H           3.4570    0.8903   -3.1509 H       1  LIG1        0.2102
     62 H           4.5948    0.3849    0.7548 H       1  LIG1        0.0257
     63 H           5.1344    1.7321   -0.2831 H       1  LIG1        0.0257
     64 H           5.6875    0.1051   -0.6061 H       1  LIG1        0.0257
     65 H          -1.2319    3.9683    1.4586 H       1  LIG1        0.0238
     66 H          -2.0962    3.5063   -0.0169 H       1  LIG1        0.0238
     67 H          -0.5705    4.3206   -0.1292 H       1  LIG1        0.0238
     68 H           0.0341    3.3242   -2.0863 H       1  LIG1        0.0235
     69 H          -1.6043    2.7475   -2.1910 H       1  LIG1        0.0235
     70 H          -0.3477    1.9318   -3.0975 H       1  LIG1        0.0235
     71 H          -1.2494   -0.5556   -0.6492 H       1  LIG1        0.0271
     72 H          -1.8259    0.2637   -2.0831 H       1  LIG1        0.0271
     73 H          -3.6120    0.2059   -0.5486 H       1  LIG1        0.0277
     74 H          -3.1251    1.8560   -0.6326 H       1  LIG1        0.0277
     75 H          -3.2830    2.9675    1.6197 H       1  LIG1        0.0241
     76 H          -3.2826    1.9517    3.0498 H       1  LIG1        0.0241
     77 H          -4.5126    1.7497    1.7949 H       1  LIG1        0.0241
     78 H          -4.9435   -0.5123    1.0328 H       1  LIG1        0.0660
@<TRIPOS>BOND
     1     2     3    1
     2     3     5    2
     3     5     7    1
     4     7     8    2
     5     8     9    1
     6     9    10    2
     7    10    11    1
     8    11    12    1
     9    12    13    1
    10    13    14    1
    11    14    16    1
    12    16    18    1
    13    18    19    1
    14    21    22    1
    15    22    23    1
    16    21    24    2
    17    19    25    1
    18    25    26    1
    19    14    26    1
    20    11    30    1
    21    16    30    1
    22    30    32    1
    23    32    33    1
    24    10    34    1
    25    33    34    1
    26    34    36    1
    27     7    36    1
    28    36    37    2
    29     2    37    1
    30     1     2    2
    31     3     4    1
    32     5     6    1
    33    11    29    1
    34    14    15    1
    35    16    17    1
    36    30    31    1
    37    34    35    1
    38    19    21    1
    39    19    20    1
    40    26    28    1
    41    26    27    1
    42     4    38    1
    43     6    39    1
    44     6    40    1
    45     6    41    1
    46     8    42    1
    47     9    43    1
    48    12    44    1
    49    12    45    1
    50    13    46    1
    51    13    47    1
    52    15    48    1
    53    15    49    1
    54    15    50    1
    55    18    51    1
    56    18    52    1
    57    20    53    1
    58    20    54    1
    59    20    55    1
    60    23    56    1
    61    23    57    1
    62    23    58    1
    63    25    59    1
    64    25    60    1
    65    27    61    1
    66    28    62    1
    67    28    63    1
    68    28    64    1
    69    29    65    1
    70    29    66    1
    71    29    67    1
    72    31    68    1
    73    31    69    1
    74    31    70    1
    75    32    71    1
    76    32    72    1
    77    33    73    1
    78    33    74    1
    79    35    75    1
    80    35    76    1
    81    35    77    1
    82    37    78    1
