REMARK  Name = NuBBE_2180
REMARK  14 active torsions:
REMARK  status: ('A' for Active; 'I' for Inactive)
REMARK    1  A    between atoms: C_1  and  C_3
REMARK    2  A    between atoms: C_1  and  C_14
REMARK    3  A    between atoms: C_1  and  C_15
REMARK    4  A    between atoms: C_3  and  C_4
REMARK    5  A    between atoms: C_6  and  O_7
REMARK    6  A    between atoms: O_7  and  C_8
REMARK    7  A    between atoms: C_9  and  O_12
REMARK    8  A    between atoms: O_12  and  C_13
REMARK    9  A    between atoms: C_15  and  O_16
REMARK   10  A    between atoms: O_16  and  C_17
REMARK   11  A    between atoms: C_18  and  O_27
REMARK   12  A    between atoms: C_22  and  C_24
REMARK   13  A    between atoms: C_24  and  C_25
REMARK   14  A    between atoms: O_27  and  C_28
REMARK                            x       y       z     vdW  Elec       q    Type
REMARK                         _______ _______ _______ _____ _____    ______ ____
ROOT
ATOM      1  C   LIG A   1      -0.567  -0.208   1.898  0.00  0.00    +0.147 C 
ATOM      2  C   LIG A   1      -0.657  -1.726   2.256  0.00  0.00    +0.137 C 
ATOM      3  C   LIG A   1       0.209  -2.308   3.102  0.00  0.00    +0.095 C 
ATOM      4  C   LIG A   1       1.322  -1.586   3.740  0.00  0.00    +0.185 C 
ATOM      5  O   LIG A   1       2.181  -2.240   4.378  0.00  0.00    -0.287 OA
ATOM      6  C   LIG A   1       1.366  -0.144   3.618  0.00  0.00    +0.002 C 
ATOM      7  C   LIG A   1       0.506   0.472   2.771  0.00  0.00    +0.023 C 
ENDROOT
BRANCH   1   8
ATOM      8  C   LIG A   1      -0.213   0.013   0.319  0.00  0.00    +0.034 C 
ATOM      9  C   LIG A   1       0.293   1.449   0.035  0.00  0.00    +0.011 C 
BRANCH   8  10
ATOM     10  C   LIG A   1      -1.358  -0.313  -0.706  0.00  0.00    +0.042 C 
BRANCH  10  11
ATOM     11  C   LIG A   1      -1.030  -0.188  -2.202  0.00  0.00    -0.043 A 
ATOM     12  C   LIG A   1      -1.293   1.011  -2.878  0.00  0.00    +0.053 A 
ATOM     13  C   LIG A   1      -1.021   1.197  -4.254  0.00  0.00    +0.162 A 
ATOM     14  C   LIG A   1      -0.559   0.104  -5.020  0.00  0.00    +0.162 A 
ATOM     15  C   LIG A   1      -0.312  -1.098  -4.343  0.00  0.00    +0.050 A 
ATOM     16  C   LIG A   1      -0.512  -1.235  -2.958  0.00  0.00    +0.007 A 
BRANCH  13  17
ATOM     17  O   LIG A   1      -1.181   2.442  -4.833  0.00  0.00    -0.491 OA
ATOM     18  C   LIG A   1      -1.050   3.539  -3.911  0.00  0.00    +0.277 C 
ENDBRANCH  13  17
BRANCH  14  19
ATOM     19  O   LIG A   1      -0.391   0.223  -6.383  0.00  0.00    -0.491 OA
ATOM     20  C   LIG A   1       0.502  -0.700  -7.029  0.00  0.00    +0.277 C 
ENDBRANCH  14  19
ENDBRANCH  10  11
ENDBRANCH   8  10
ENDBRANCH   1   8
BRANCH   1  21
ATOM     21  O   LIG A   1      -1.817   0.484   2.191  0.00  0.00    -0.364 OA
ATOM     22  C   LIG A   1      -2.249   0.599   3.557  0.00  0.00    +0.195 C 
ENDBRANCH   1  21
BRANCH   2  23
ATOM     23  O   LIG A   1      -1.624  -2.508   1.621  0.00  0.00    -0.496 OA
ATOM     24  C   LIG A   1      -1.608  -3.898   2.009  0.00  0.00    +0.277 C 
ENDBRANCH   2  23
BRANCH   6  25
ATOM     25  C   LIG A   1       2.303   0.567   4.549  0.00  0.00    +0.065 C 
BRANCH  25  26
ATOM     26  C   LIG A   1       3.676   0.710   3.967  0.00  0.00    -0.030 C 
ATOM     27  C   LIG A   1       4.061   1.815   3.316  0.00  0.00    +0.004 C 
ENDBRANCH  25  26
ENDBRANCH   6  25
TORSDOF 9
