@<TRIPOS>MOLECULE
NuBBE_1937
 42 43 0 0 0
SMALL
GASTEIGER

@<TRIPOS>ATOM
      1 C           1.6845   -1.7149   -0.7753 C.3     1  LIG1       -0.0433
      2 C           3.2188   -1.7731   -0.7921 C.3     1  LIG1       -0.0624
      3 C           1.2026   -2.0707   -2.1927 C.3     1  LIG1       -0.0624
      4 C           1.0677   -0.3491   -0.2946 C.3     1  LIG1       -0.0320
      5 H           0.8116    0.2270   -1.1947 H       1  LIG1        0.0309
      6 C          -0.2438   -0.5444    0.5468 C.3     1  LIG1       -0.0142
      7 H           0.0188   -1.1409    1.4317 H       1  LIG1        0.0349
      8 C          -0.8486    0.7992    1.0634 C.3     1  LIG1       -0.0056
      9 H          -1.6135    0.5362    1.8113 H       1  LIG1        0.0334
     10 C           0.2032    1.6731    1.7922 C.3     1  LIG1        0.0667
     11 C           1.4782    1.8419    0.9614 C.3     1  LIG1       -0.0237
     12 C           2.0677    0.5105    0.5038 C.3     1  LIG1       -0.0468
     13 C          -0.3368    3.0527    2.1889 C.3     1  LIG1       -0.0358
     14 O           0.5424    1.0451    3.0393 O.3     1  LIG1       -0.3886
     15 C          -1.5740    1.5165   -0.0929 C.3     1  LIG1       -0.0434
     16 C          -2.7107    0.6629   -0.6645 C.3     1  LIG1       -0.0316
     17 C          -2.4061   -0.8092   -0.7360 C.2     1  LIG1       -0.0762
     18 C          -1.2975   -1.3386   -0.1912 C.2     1  LIG1       -0.0813
     19 C          -3.4284   -1.6554   -1.4392 C.3     1  LIG1       -0.0438
     20 H           1.3523   -2.5093   -0.0948 H       1  LIG1        0.0298
     21 H           3.6428   -1.0086   -1.4515 H       1  LIG1        0.0232
     22 H           3.5632   -2.7485   -1.1548 H       1  LIG1        0.0232
     23 H           3.6368   -1.6465    0.2111 H       1  LIG1        0.0232
     24 H           1.5627   -1.3379   -2.9235 H       1  LIG1        0.0232
     25 H           0.1146   -2.1073   -2.2706 H       1  LIG1        0.0232
     26 H           1.5801   -3.0546   -2.4930 H       1  LIG1        0.0232
     27 H           2.2419    2.3622    1.5536 H       1  LIG1        0.0293
     28 H           1.2777    2.4645    0.0806 H       1  LIG1        0.0293
     29 H           2.4319   -0.0475    1.3743 H       1  LIG1        0.0269
     30 H           2.9425    0.7411   -0.1150 H       1  LIG1        0.0269
     31 H          -0.5067    3.7001    1.3233 H       1  LIG1        0.0257
     32 H           0.3657    3.5667    2.8561 H       1  LIG1        0.0257
     33 H          -1.2756    2.9569    2.7463 H       1  LIG1        0.0257
     34 H           0.9015    0.1603    2.8691 H       1  LIG1        0.2102
     35 H          -0.8676    1.7655   -0.8933 H       1  LIG1        0.0272
     36 H          -2.0112    2.4638    0.2395 H       1  LIG1        0.0272
     37 H          -2.9646    1.0413   -1.6620 H       1  LIG1        0.0310
     38 H          -3.6012    0.7959   -0.0368 H       1  LIG1        0.0310
     39 H          -1.1333   -2.4129   -0.2551 H       1  LIG1        0.0575
     40 H          -4.4014   -1.5633   -0.9459 H       1  LIG1        0.0274
     41 H          -3.1546   -2.7157   -1.4423 H       1  LIG1        0.0274
     42 H          -3.5338   -1.3354   -2.4808 H       1  LIG1        0.0274
@<TRIPOS>BOND
     1     1     2    1
     2     1     3    1
     3     4     6    1
     4     6     8    1
     5     8    10    1
     6    10    11    1
     7    11    12    1
     8     4    12    1
     9     8    15    1
    10    15    16    1
    11    16    17    1
    12    17    18    2
    13     6    18    1
    14     1     4    1
    15     4     5    1
    16     6     7    1
    17     8     9    1
    18    17    19    1
    19    10    14    1
    20    10    13    1
    21     1    20    1
    22     2    21    1
    23     2    22    1
    24     2    23    1
    25     3    24    1
    26     3    25    1
    27     3    26    1
    28    11    27    1
    29    11    28    1
    30    12    29    1
    31    12    30    1
    32    13    31    1
    33    13    32    1
    34    13    33    1
    35    14    34    1
    36    15    35    1
    37    15    36    1
    38    16    37    1
    39    16    38    1
    40    18    39    1
    41    19    40    1
    42    19    41    1
    43    19    42    1
