REMARK  Name = NuBBE_375
REMARK  4 active torsions:
REMARK  status: ('A' for Active; 'I' for Inactive)
REMARK    1  A    between atoms: C_2  and  C_8
REMARK    2  A    between atoms: C_9  and  C_10
REMARK    3  A    between atoms: C_10  and  C_11
REMARK    4  A    between atoms: C_11  and  C_12
REMARK                            x       y       z     vdW  Elec       q    Type
REMARK                         _______ _______ _______ _____ _____    ______ ____
ROOT
ATOM      1  C   LIG A   1      -0.031  -0.619  -1.067  0.00  0.00    +0.032 C 
ENDROOT
BRANCH   1   3
ATOM      2  C   LIG A   1      -1.743  -0.488   0.742  0.00  0.00    +0.063 C 
ATOM      3  C   LIG A   1      -0.944  -1.230  -0.041  0.00  0.00    -0.021 C 
BRANCH   2   5
ATOM      4  O   LIG A   1      -2.931  -2.296   1.706  0.00  0.00    -0.271 OA
ATOM      5  C   LIG A   1      -2.658  -1.103   1.743  0.00  0.00    +0.239 C 
ATOM      6  N   LIG A   1      -3.155  -0.241   2.696  0.00  0.00    -0.298 N 
ATOM      7  C   LIG A   1      -4.053  -0.714   3.736  0.00  0.00    +0.108 C 
ATOM      8  C   LIG A   1      -4.603   0.556   4.373  0.00  0.00    +0.020 C 
ATOM      9  C   LIG A   1      -3.471   1.556   4.183  0.00  0.00    +0.020 C 
ATOM     10  C   LIG A   1      -2.928   1.191   2.812  0.00  0.00    +0.108 C 
ENDBRANCH   2   5
ENDBRANCH   1   3
BRANCH   1  11
ATOM     11  C   LIG A   1       1.442  -0.948  -0.798  0.00  0.00    +0.039 C 
BRANCH  11  12
ATOM     12  C   LIG A   1       2.376  -0.332  -1.816  0.00  0.00    -0.043 A 
ATOM     13  C   LIG A   1       2.441   1.073  -1.975  0.00  0.00    +0.007 A 
ATOM     14  C   LIG A   1       3.311   1.657  -2.901  0.00  0.00    +0.050 A 
ATOM     15  C   LIG A   1       4.113   0.819  -3.642  0.00  0.00    +0.166 A 
ATOM     16  C   LIG A   1       4.067  -0.546  -3.490  0.00  0.00    +0.167 A 
ATOM     17  O   LIG A   1       4.946  -1.188  -4.306  0.00  0.00    -0.453 OA
ATOM     18  C   LIG A   1       5.564  -0.067  -4.973  0.00  0.00    +0.466 C 
ATOM     19  O   LIG A   1       5.023   1.209  -4.574  0.00  0.00    -0.453 OA
ATOM     20  C   LIG A   1       3.212  -1.151  -2.592  0.00  0.00    +0.053 A 
ENDBRANCH  11  12
ENDBRANCH   1  11
TORSDOF 4
