@<TRIPOS>MOLECULE
NuBBE_34
 54 55 0 0 0
SMALL
GASTEIGER

@<TRIPOS>ATOM
      1 C          -4.1895   -0.1184    1.1267 C.3     1  LIG1       -0.0392
      2 C          -2.7087   -0.0035    1.3629 C.ar    1  LIG1       -0.0401
      3 C          -2.0348    1.2028    1.6486 C.ar    1  LIG1        0.0012
      4 C          -2.7553    2.5407    1.6864 C.3     1  LIG1       -0.0055
      5 C          -2.7464    3.2529    0.3542 C.2     1  LIG1       -0.0809
      6 C          -3.8072    3.6248   -0.3910 C.2     1  LIG1       -0.0793
      7 C          -5.2401    3.3777   -0.0113 C.3     1  LIG1       -0.0440
      8 C          -3.6278    4.3378   -1.7058 C.3     1  LIG1       -0.0440
      9 C          -0.6392    1.1578    1.8754 C.ar    1  LIG1        0.1272
     10 O          -0.0220    2.3485    2.1711 O.3     1  LIG1       -0.5061
     11 C           0.0986   -0.0383    1.7966 C.ar    1  LIG1        0.0361
     12 C          -0.5905   -1.2108    1.4872 C.ar    1  LIG1        0.1287
     13 O           0.0004   -2.4371    1.3357 O.3     1  LIG1       -0.4815
     14 C           1.4211   -2.4466    1.0923 C.3     1  LIG1        0.1266
     15 C           1.6685   -2.1398   -0.3821 C.2     1  LIG1       -0.0413
     16 C           2.8698   -2.0599   -0.9708 C.2     1  LIG1       -0.0620
     17 C           3.0520   -1.7416   -2.3750 C.2     1  LIG1       -0.0632
     18 C           4.2219   -1.6466   -3.0309 C.2     1  LIG1       -0.0757
     19 C           5.5883   -1.8640   -2.4387 C.3     1  LIG1       -0.0438
     20 C           4.2530   -1.2968   -4.5001 C.3     1  LIG1       -0.0438
     21 C           1.8674   -3.8846    1.4149 C.3     1  LIG1       -0.0212
     22 C           2.1289   -1.4947    2.0665 C.3     1  LIG1       -0.0053
     23 C           1.5908   -0.0745    1.9661 C.3     1  LIG1       -0.0168
     24 C          -1.9724   -1.1978    1.3057 C.ar    1  LIG1       -0.0162
     25 H          -4.6971    0.8407    1.0470 H       1  LIG1        0.0278
     26 H          -4.6546   -0.6713    1.9497 H       1  LIG1        0.0278
     27 H          -4.3778   -0.6527    0.1890 H       1  LIG1        0.0278
     28 H          -2.2881    3.1963    2.4320 H       1  LIG1        0.0357
     29 H          -3.7655    2.4000    2.0759 H       1  LIG1        0.0357
     30 H          -1.7453    3.4828   -0.0145 H       1  LIG1        0.0575
     31 H          -5.3826    3.2826    1.0678 H       1  LIG1        0.0274
     32 H          -5.6003    2.4650   -0.4962 H       1  LIG1        0.0274
     33 H          -5.8766    4.2082   -0.3325 H       1  LIG1        0.0274
     34 H          -2.5762    4.5384   -1.9350 H       1  LIG1        0.0274
     35 H          -4.1494    5.3011   -1.6867 H       1  LIG1        0.0274
     36 H          -4.0425    3.7368   -2.5217 H       1  LIG1        0.0274
     37 H           0.8665    2.1816    2.5176 H       1  LIG1        0.2922
     38 H           0.7710   -1.9657   -0.9788 H       1  LIG1        0.0611
     39 H           3.7590   -2.2394   -0.3746 H       1  LIG1        0.0616
     40 H           2.1297   -1.5574   -2.9318 H       1  LIG1        0.0617
     41 H           5.5712   -2.2364   -1.4124 H       1  LIG1        0.0274
     42 H           6.1513   -0.9235   -2.4388 H       1  LIG1        0.0274
     43 H           6.1449   -2.5973   -3.0312 H       1  LIG1        0.0274
     44 H           3.2524   -1.1202   -4.9091 H       1  LIG1        0.0274
     45 H           4.7064   -2.1123   -5.0724 H       1  LIG1        0.0274
     46 H           4.8432   -0.3893   -4.6624 H       1  LIG1        0.0274
     47 H           1.2898   -4.6216    0.8451 H       1  LIG1        0.0271
     48 H           1.6858   -4.1132    2.4733 H       1  LIG1        0.0271
     49 H           2.9327   -4.0439    1.2181 H       1  LIG1        0.0271
     50 H           3.2155   -1.4931    1.9187 H       1  LIG1        0.0310
     51 H           1.9537   -1.8441    3.0940 H       1  LIG1        0.0310
     52 H           2.0542    0.4424    1.1178 H       1  LIG1        0.0317
     53 H           1.8820    0.4528    2.8820 H       1  LIG1        0.0317
     54 H          -2.4800   -2.1355    1.0857 H       1  LIG1        0.0657
@<TRIPOS>BOND
     1     1     2    1
     2     2     3   ar
     3     3     4    1
     4     4     5    1
     5     5     6    2
     6     6     7    1
     7     6     8    1
     8     3     9   ar
     9     9    10    1
    10     9    11   ar
    11    11    12   ar
    12    12    13    1
    13    13    14    1
    14    14    15    1
    15    15    16    2
    16    16    17    1
    17    17    18    2
    18    18    19    1
    19    18    20    1
    20    14    21    1
    21    14    22    1
    22    22    23    1
    23    11    23    1
    24    12    24   ar
    25     2    24   ar
    26     1    25    1
    27     1    26    1
    28     1    27    1
    29     4    28    1
    30     4    29    1
    31     5    30    1
    32     7    31    1
    33     7    32    1
    34     7    33    1
    35     8    34    1
    36     8    35    1
    37     8    36    1
    38    10    37    1
    39    15    38    1
    40    16    39    1
    41    17    40    1
    42    19    41    1
    43    19    42    1
    44    19    43    1
    45    20    44    1
    46    20    45    1
    47    20    46    1
    48    21    47    1
    49    21    48    1
    50    21    49    1
    51    22    50    1
    52    22    51    1
    53    23    52    1
    54    23    53    1
    55    24    54    1
