@<TRIPOS>MOLECULE
NuBBE_2072
 46 50 0 0 0
SMALL
GASTEIGER

@<TRIPOS>ATOM
      1 O          -4.4113   -1.1889    0.6055 O.2     1  LIG1       -0.2500
      2 C          -3.1718   -1.0553    0.6804 C.2     1  LIG1        0.3189
      3 C          -2.3898    0.1886    0.9584 C.3     1  LIG1        0.1249
      4 C          -2.4750    0.1071    2.5336 C.3     1  LIG1       -0.0440
      5 C          -2.5024    1.6726    0.5292 C.3     1  LIG1        0.1832
      6 O          -3.8577    2.0515    0.5005 O.3     1  LIG1       -0.3636
      7 C          -1.8674    2.3310   -0.7320 C.3     1  LIG1        0.0029
      8 C          -0.4538    1.8217   -0.9857 C.3     1  LIG1       -0.0397
      9 C          -0.0793    0.8212    0.1456 C.3     1  LIG1        0.0049
     10 C          -0.2539    1.7267    1.4267 C.3     1  LIG1        0.0572
     11 O          -1.6166    2.3251    1.5046 O.3     1  LIG1       -0.3471
     12 C           1.3337    0.1611   -0.0360 C.3     1  LIG1       -0.0276
     13 C           2.1509    0.8734   -1.1370 C.3     1  LIG1       -0.0492
     14 C           3.4673    0.2486   -1.5636 C.3     1  LIG1       -0.0504
     15 C           3.5132   -1.2696   -1.5472 C.3     1  LIG1       -0.0266
     16 C           2.7028   -1.9399   -0.4349 C.3     1  LIG1        0.0584
     17 H           3.2189   -1.8239    0.5241 H       1  LIG1        0.0596
     18 O           2.6566   -3.3271   -0.7596 O.3     1  LIG1       -0.3915
     19 C           1.2805   -1.3621   -0.3676 C.3     1  LIG1       -0.0082
     20 C           0.3028   -2.1294    0.5706 C.3     1  LIG1       -0.0099
     21 C          -1.0850   -1.6949    0.1482 C.3     1  LIG1        0.1080
     22 H          -1.1969   -2.1049   -0.8758 H       1  LIG1        0.0737
     23 O          -2.2800   -2.1297    0.7736 O.3     1  LIG1       -0.4605
     24 C          -1.2194   -0.2088    0.0922 C.3     1  LIG1        0.0246
     25 H          -3.5305    0.2267    2.8297 H       1  LIG1        0.0242
     26 H          -1.9650    0.8816    3.1127 H       1  LIG1        0.0242
     27 H          -2.1301   -0.8461    2.9436 H       1  LIG1        0.0242
     28 H          -4.1968    1.6931   -0.3472 H       1  LIG1        0.2128
     29 H          -1.7596    3.4106   -0.5148 H       1  LIG1        0.0317
     30 H          -2.4765    2.3022   -1.6376 H       1  LIG1        0.0317
     31 H           0.2443    2.6682   -1.0213 H       1  LIG1        0.0273
     32 H          -0.4408    1.3436   -1.9712 H       1  LIG1        0.0273
     33 H           0.4477    2.5663    1.4418 H       1  LIG1        0.0566
     34 H          -0.0736    1.1504    2.3409 H       1  LIG1        0.0566
     35 H           1.8765    0.2625    0.9146 H       1  LIG1        0.0310
     36 H           2.3416    1.9098   -0.8335 H       1  LIG1        0.0268
     37 H           1.5544    0.9127   -2.0545 H       1  LIG1        0.0268
     38 H           3.6708    0.5838   -2.5922 H       1  LIG1        0.0266
     39 H           4.2776    0.6578   -0.9543 H       1  LIG1        0.0266
     40 H           4.5610   -1.5883   -1.4779 H       1  LIG1        0.0290
     41 H           3.1741   -1.6492   -2.5218 H       1  LIG1        0.0290
     42 H           2.5019   -3.8281    0.0582 H       1  LIG1        0.2098
     43 H           0.8716   -1.4692   -1.3861 H       1  LIG1        0.0330
     44 H           0.5034   -1.9314    1.6284 H       1  LIG1        0.0304
     45 H           0.3833   -3.2148    0.4328 H       1  LIG1        0.0304
     46 H          -1.6020   -0.1361   -0.9443 H       1  LIG1        0.0355
@<TRIPOS>BOND
     1     1     2    2
     2     2     3    1
     3     3     4    1
     4     3     5    1
     5     5     6    1
     6     5     7    1
     7     7     8    1
     8     8     9    1
     9     9    10    1
    10    10    11    1
    11     5    11    1
    12     9    12    1
    13    12    13    1
    14    13    14    1
    15    14    15    1
    16    15    16    1
    17    16    19    1
    18    12    19    1
    19    19    20    1
    20    20    21    1
    21    21    22    1
    22    21    23    1
    23     2    23    1
    24    21    24    1
    25     9    24    1
    26     3    24    1
    27    16    18    1
    28    16    17    1
    29     4    25    1
    30     4    26    1
    31     4    27    1
    32     6    28    1
    33     7    29    1
    34     7    30    1
    35     8    31    1
    36     8    32    1
    37    10    33    1
    38    10    34    1
    39    12    35    1
    40    13    36    1
    41    13    37    1
    42    14    38    1
    43    14    39    1
    44    15    40    1
    45    15    41    1
    46    18    42    1
    47    19    43    1
    48    20    44    1
    49    20    45    1
    50    24    46    1
