@<TRIPOS>MOLECULE
NuBBE_408
 45 46 0 0 0
SMALL
GASTEIGER

@<TRIPOS>ATOM
      1 O          -2.3363    1.4065   -1.9285 O.2     1  LIG1       -0.2708
      2 C          -2.8778    0.8465   -0.9791 C.2     1  LIG1        0.2369
      3 N          -4.2287    0.6598   -0.8645 N.am    1  LIG1       -0.3116
      4 H          -4.5992    0.1886   -0.0513 H       1  LIG1        0.1490
      5 C          -5.1031    0.7875   -2.0232 C.3     1  LIG1        0.0142
      6 C          -5.2345   -0.5364   -2.7969 C.3     1  LIG1       -0.0311
      7 C          -5.8440   -1.6526   -1.9433 C.3     1  LIG1       -0.0612
      8 C          -6.0814   -0.3203   -4.0520 C.3     1  LIG1       -0.0612
      9 C          -2.1363    0.2227    0.1475 C.2     1  LIG1        0.0001
     10 C          -0.9145   -0.3129    0.0463 C.2     1  LIG1       -0.0571
     11 C          -0.1133   -0.3436   -1.1552 C.2     1  LIG1       -0.0655
     12 C           1.2253   -0.4039   -1.1976 C.2     1  LIG1       -0.0837
     13 C           2.1861   -0.5663   -0.0447 C.3     1  LIG1       -0.0305
     14 C           2.6734    0.7572    0.5646 C.3     1  LIG1       -0.0241
     15 C           3.6833    0.5696    1.6847 C.ar    1  LIG1       -0.0434
     16 C           3.2773    0.4485    3.0358 C.ar    1  LIG1       -0.0549
     17 C           4.2197    0.3052    4.0701 C.ar    1  LIG1       -0.0159
     18 C           5.5555    0.2781    3.7280 C.ar    1  LIG1        0.1662
     19 C           5.9564    0.3872    2.4195 C.ar    1  LIG1        0.1665
     20 O           7.3083    0.3429    2.2787 O.3     1  LIG1       -0.4526
     21 C           7.7173    0.1842    3.6511 C.3     1  LIG1        0.2332
     22 O           6.6101    0.1520    4.5796 O.3     1  LIG1       -0.4526
     23 C           5.0547    0.5324    1.3846 C.ar    1  LIG1       -0.0130
     24 H          -4.6889    1.5592   -2.6828 H       1  LIG1        0.0465
     25 H          -6.0710    1.1334   -1.6560 H       1  LIG1        0.0465
     26 H          -4.2369   -0.8681   -3.1137 H       1  LIG1        0.0311
     27 H          -6.8441   -1.3846   -1.5868 H       1  LIG1        0.0233
     28 H          -5.2192   -1.8740   -1.0721 H       1  LIG1        0.0233
     29 H          -5.9304   -2.5787   -2.5231 H       1  LIG1        0.0233
     30 H          -7.0938    0.0124   -3.7975 H       1  LIG1        0.0233
     31 H          -6.1658   -1.2464   -4.6305 H       1  LIG1        0.0233
     32 H          -5.6282    0.4370   -4.7001 H       1  LIG1        0.0233
     33 H          -2.6384    0.2193    1.1141 H       1  LIG1        0.0669
     34 H          -0.4717   -0.7563    0.9361 H       1  LIG1        0.0619
     35 H          -0.6430   -0.2457   -2.1053 H       1  LIG1        0.0614
     36 H           1.6765   -0.3268   -2.1873 H       1  LIG1        0.0572
     37 H           3.0454   -1.1323   -0.4255 H       1  LIG1        0.0311
     38 H           1.7417   -1.1983    0.7319 H       1  LIG1        0.0311
     39 H           1.8246    1.3416    0.9423 H       1  LIG1        0.0316
     40 H           3.1335    1.3758   -0.2176 H       1  LIG1        0.0316
     41 H           2.2198    0.4804    3.2922 H       1  LIG1        0.0621
     42 H           3.9087    0.2246    5.1067 H       1  LIG1        0.0655
     43 H           8.3807    1.0169    3.9138 H       1  LIG1        0.1166
     44 H           8.2819   -0.7518    3.7380 H       1  LIG1        0.1166
     45 H           5.4204    0.6293    0.3689 H       1  LIG1        0.0658
@<TRIPOS>BOND
     1     1     2    2
     2     2     3   am
     3     3     4    1
     4     3     5    1
     5     5     6    1
     6     6     7    1
     7     6     8    1
     8     2     9    1
     9     9    10    2
    10    10    11    1
    11    11    12    2
    12    12    13    1
    13    13    14    1
    14    14    15    1
    15    15    16   ar
    16    16    17   ar
    17    17    18   ar
    18    18    19   ar
    19    19    20    1
    20    20    21    1
    21    21    22    1
    22    18    22    1
    23    19    23   ar
    24    15    23   ar
    25     5    24    1
    26     5    25    1
    27     6    26    1
    28     7    27    1
    29     7    28    1
    30     7    29    1
    31     8    30    1
    32     8    31    1
    33     8    32    1
    34     9    33    1
    35    10    34    1
    36    11    35    1
    37    12    36    1
    38    13    37    1
    39    13    38    1
    40    14    39    1
    41    14    40    1
    42    16    41    1
    43    17    42    1
    44    21    43    1
    45    21    44    1
    46    23    45    1
