@<TRIPOS>MOLECULE
NuBBE_1667
 55 56 0 0 0
SMALL
GASTEIGER

@<TRIPOS>ATOM
      1 O           0.5369   -1.1693   -2.9369 O.2     1  LIG1       -0.2918
      2 C          -0.4755   -0.6522   -2.5022 C.2     1  LIG1        0.1663
      3 C          -0.7307    0.7898   -2.8629 C.ar    1  LIG1        0.0214
      4 C          -1.9848    1.3632   -2.9495 C.ar    1  LIG1       -0.0476
      5 C          -2.1129    2.7184   -3.3073 C.ar    1  LIG1       -0.0156
      6 C          -0.9835    3.5187   -3.5511 C.ar    1  LIG1        0.1615
      7 O          -1.0828    4.8414   -3.8924 O.3     1  LIG1       -0.4915
      8 C          -2.1722    5.5727   -3.3391 C.3     1  LIG1        0.0790
      9 C           0.2845    2.9267   -3.4928 C.ar    1  LIG1        0.1621
     10 O           1.5070    3.5241   -3.6612 O.3     1  LIG1       -0.4914
     11 C           1.5679    4.6723   -4.4934 C.3     1  LIG1        0.0790
     12 C           0.3995    1.5651   -3.1573 C.ar    1  LIG1       -0.0058
     13 C          -1.4296   -1.4323   -1.5894 C.3     1  LIG1        0.0222
     14 H          -2.4555   -1.1195   -1.8069 H       1  LIG1        0.0381
     15 C          -1.3426   -2.9198   -1.9512 C.3     1  LIG1       -0.0551
     16 C          -1.1302   -1.1602   -0.0840 C.3     1  LIG1       -0.0303
     17 H          -1.2347   -0.0780    0.0693 H       1  LIG1        0.0308
     18 C          -2.1874   -1.8568    0.7978 C.3     1  LIG1       -0.0615
     19 C           0.3079   -1.5769    0.3473 C.3     1  LIG1       -0.0243
     20 C           0.6629   -1.3563    1.8070 C.ar    1  LIG1       -0.0434
     21 C           0.1723   -0.2696    2.5325 C.ar    1  LIG1       -0.0549
     22 C           0.4539   -0.1425    3.8914 C.ar    1  LIG1       -0.0160
     23 C           1.2415   -1.0843    4.5610 C.ar    1  LIG1        0.1615
     24 O           1.2993   -0.8556    5.9103 O.3     1  LIG1       -0.4915
     25 C           2.4880   -1.2228    6.5924 C.3     1  LIG1        0.0790
     26 C           1.7651   -2.1716    3.8466 C.ar    1  LIG1        0.1617
     27 O           2.4916   -3.1173    4.5218 O.3     1  LIG1       -0.4914
     28 C           2.4357   -4.4432    4.0011 C.3     1  LIG1        0.0790
     29 C           1.5081   -2.2689    2.4655 C.ar    1  LIG1       -0.0131
     30 H          -2.8940    0.7876   -2.7842 H       1  LIG1        0.0626
     31 H          -3.1130    3.1263   -3.4146 H       1  LIG1        0.0655
     32 H          -2.1592    5.5301   -2.2449 H       1  LIG1        0.0660
     33 H          -3.1321    5.2327   -3.7377 H       1  LIG1        0.0660
     34 H          -2.0581    6.6205   -3.6374 H       1  LIG1        0.0660
     35 H           1.0954    4.4853   -5.4631 H       1  LIG1        0.0660
     36 H           2.6255    4.8920   -4.6738 H       1  LIG1        0.0660
     37 H           1.1474    5.5486   -3.9933 H       1  LIG1        0.0660
     38 H           1.3911    1.1211   -3.1339 H       1  LIG1        0.0662
     39 H          -1.5969   -3.0762   -3.0032 H       1  LIG1        0.0237
     40 H          -2.0333   -3.5219   -1.3515 H       1  LIG1        0.0237
     41 H          -0.3354   -3.3211   -1.8009 H       1  LIG1        0.0237
     42 H          -3.1997   -1.5946    0.4753 H       1  LIG1        0.0233
     43 H          -2.1056   -1.5634    1.8487 H       1  LIG1        0.0233
     44 H          -2.0857   -2.9465    0.7685 H       1  LIG1        0.0233
     45 H           1.0494   -1.0380   -0.2535 H       1  LIG1        0.0316
     46 H           0.4378   -2.6450    0.1339 H       1  LIG1        0.0316
     47 H          -0.4721    0.4726    2.0709 H       1  LIG1        0.0621
     48 H           0.0310    0.6915    4.4457 H       1  LIG1        0.0655
     49 H           2.4098   -0.8169    7.6072 H       1  LIG1        0.0660
     50 H           3.3732   -0.7801    6.1249 H       1  LIG1        0.0660
     51 H           2.5814   -2.3052    6.7007 H       1  LIG1        0.0660
     52 H           2.6611   -5.1356    4.8184 H       1  LIG1        0.0660
     53 H           3.1976   -4.5762    3.2266 H       1  LIG1        0.0660
     54 H           1.4417   -4.7034    3.6190 H       1  LIG1        0.0660
     55 H           1.9432   -3.0795    1.8859 H       1  LIG1        0.0658
@<TRIPOS>BOND
     1     1     2    2
     2     2     3    1
     3     3     4   ar
     4     4     5   ar
     5     5     6   ar
     6     6     7    1
     7     7     8    1
     8     6     9   ar
     9     9    10    1
    10    10    11    1
    11     9    12   ar
    12     3    12   ar
    13     2    13    1
    14    13    14    1
    15    13    15    1
    16    13    16    1
    17    16    17    1
    18    16    18    1
    19    16    19    1
    20    19    20    1
    21    20    21   ar
    22    21    22   ar
    23    22    23   ar
    24    23    24    1
    25    24    25    1
    26    23    26   ar
    27    26    27    1
    28    27    28    1
    29    26    29   ar
    30    20    29   ar
    31     4    30    1
    32     5    31    1
    33     8    32    1
    34     8    33    1
    35     8    34    1
    36    11    35    1
    37    11    36    1
    38    11    37    1
    39    12    38    1
    40    15    39    1
    41    15    40    1
    42    15    41    1
    43    18    42    1
    44    18    43    1
    45    18    44    1
    46    19    45    1
    47    19    46    1
    48    21    47    1
    49    22    48    1
    50    25    49    1
    51    25    50    1
    52    25    51    1
    53    28    52    1
    54    28    53    1
    55    28    54    1
    56    29    55    1
