@<TRIPOS>MOLECULE
NuBBE_1544
 39 39 0 0 0
SMALL
GASTEIGER

@<TRIPOS>ATOM
      1 C          -4.8347    1.8482   -0.8487 C.3     1  LIG1       -0.0438
      2 C          -3.3466    1.7699   -0.6639 C.2     1  LIG1       -0.0759
      3 C          -2.5876    2.8535   -0.4342 C.2     1  LIG1       -0.0810
      4 C          -1.0904    2.8385   -0.2726 C.3     1  LIG1       -0.0130
      5 C          -0.4451    1.4594   -0.3317 C.2     1  LIG1       -0.0665
      6 C          -1.3948    0.3293    0.0225 C.3     1  LIG1       -0.0275
      7 C          -2.7204    0.4034   -0.7448 C.3     1  LIG1       -0.0283
      8 C           0.8750    1.2834   -0.6120 C.2     1  LIG1       -0.0728
      9 C           1.8310    2.4242   -0.8802 C.3     1  LIG1       -0.0435
     10 C           1.5656   -0.0739   -0.6566 C.3     1  LIG1       -0.0283
     11 C           2.1607   -0.4572    0.7044 C.3     1  LIG1       -0.0308
     12 C           2.8513   -1.7947    0.6661 C.2     1  LIG1       -0.0850
     13 C           2.3346   -2.9874    1.0187 C.2     1  LIG1       -0.0796
     14 C           0.9162   -3.2094    1.4674 C.3     1  LIG1       -0.0440
     15 C           3.1733   -4.2378    0.9722 C.3     1  LIG1       -0.0440
     16 H          -5.2031    2.8774   -0.7735 H       1  LIG1        0.0274
     17 H          -5.3434    1.2578   -0.0806 H       1  LIG1        0.0274
     18 H          -5.1174    1.4619   -1.8315 H       1  LIG1        0.0274
     19 H          -3.0533    3.8371   -0.3727 H       1  LIG1        0.0575
     20 H          -0.8472    3.2962    0.6907 H       1  LIG1        0.0352
     21 H          -0.6919    3.4795   -1.0683 H       1  LIG1        0.0352
     22 H          -1.6006    0.3883    1.0997 H       1  LIG1        0.0313
     23 H          -0.9670   -0.6618   -0.1458 H       1  LIG1        0.0313
     24 H          -3.4020   -0.3434   -0.3226 H       1  LIG1        0.0313
     25 H          -2.5676    0.1442   -1.7996 H       1  LIG1        0.0313
     26 H           1.3999    3.4134   -0.7135 H       1  LIG1        0.0274
     27 H           2.1832    2.3824   -1.9163 H       1  LIG1        0.0274
     28 H           2.7009    2.3535   -0.2184 H       1  LIG1        0.0274
     29 H           2.3612   -0.0469   -1.4142 H       1  LIG1        0.0313
     30 H           0.8833   -0.8547   -1.0087 H       1  LIG1        0.0313
     31 H           1.3891   -0.4368    1.4820 H       1  LIG1        0.0310
     32 H           2.9026    0.2903    1.0134 H       1  LIG1        0.0310
     33 H           3.8896   -1.7527    0.3358 H       1  LIG1        0.0572
     34 H           0.2996   -2.3092    1.4139 H       1  LIG1        0.0274
     35 H           0.8987   -3.5666    2.5019 H       1  LIG1        0.0274
     36 H           0.4366   -3.9626    0.8331 H       1  LIG1        0.0274
     37 H           4.2015   -4.0376    0.6529 H       1  LIG1        0.0274
     38 H           2.7409   -4.9595    0.2716 H       1  LIG1        0.0274
     39 H           3.2183   -4.6996    1.9641 H       1  LIG1        0.0274
@<TRIPOS>BOND
     1     1     2    1
     2     2     3    2
     3     3     4    1
     4     4     5    1
     5     5     6    1
     6     6     7    1
     7     2     7    1
     8     5     8    2
     9     8     9    1
    10     8    10    1
    11    10    11    1
    12    11    12    1
    13    12    13    2
    14    13    14    1
    15    13    15    1
    16     1    16    1
    17     1    17    1
    18     1    18    1
    19     3    19    1
    20     4    20    1
    21     4    21    1
    22     6    22    1
    23     6    23    1
    24     7    24    1
    25     7    25    1
    26     9    26    1
    27     9    27    1
    28     9    28    1
    29    10    29    1
    30    10    30    1
    31    11    31    1
    32    11    32    1
    33    12    33    1
    34    14    34    1
    35    14    35    1
    36    14    36    1
    37    15    37    1
    38    15    38    1
    39    15    39    1
