REMARK  Name = NuBBE_1048
REMARK  11 active torsions:
REMARK  status: ('A' for Active; 'I' for Inactive)
REMARK    1  A    between atoms: C_5  and  C_38
REMARK    2  A    between atoms: C_7  and  C_8
REMARK    3  A    between atoms: C_7  and  C_9
REMARK    4  A    between atoms: C_13  and  C_37
REMARK    5  A    between atoms: C_19  and  C_20
REMARK    6  A    between atoms: C_23  and  C_25
REMARK    7  A    between atoms: C_25  and  C_35
REMARK    8  A    between atoms: C_27  and  C_31
REMARK    9  A    between atoms: C_31  and  O_32
REMARK   10  A    between atoms: C_31  and  C_33
REMARK   11  A    between atoms: C_31  and  C_34
REMARK                            x       y       z     vdW  Elec       q    Type
REMARK                         _______ _______ _______ _____ _____    ______ ____
ROOT
ATOM      1  O   LIG A   1      -6.954  -0.649   0.602  0.00  0.00    -0.297 OA
ATOM      2  C   LIG A   1      -5.891  -0.064   0.386  0.00  0.00    +0.139 C 
ATOM      3  C   LIG A   1      -5.097   0.489   1.544  0.00  0.00    +0.075 C 
ATOM      4  C   LIG A   1      -3.605   0.219   1.400  0.00  0.00    +0.015 C 
ATOM      5  C   LIG A   1      -2.989   0.675   0.039  0.00  0.00    -0.025 C 
ATOM      6  C   LIG A   1      -3.851   0.002  -1.094  0.00  0.00    +0.008 C 
ATOM      7  C   LIG A   1      -5.397   0.249  -1.037  0.00  0.00    +0.027 C 
ATOM      8  C   LIG A   1      -6.119  -0.724  -2.004  0.00  0.00    +0.019 C 
ATOM      9  C   LIG A   1      -5.846   1.669  -1.406  0.00  0.00    +0.019 C 
ATOM     10  C   LIG A   1      -3.220   0.234  -2.482  0.00  0.00    +0.005 C 
ATOM     11  C   LIG A   1      -1.821  -0.388  -2.552  0.00  0.00    +0.008 C 
ATOM     12  C   LIG A   1      -0.816   0.141  -1.486  0.00  0.00    -0.023 C 
ATOM     13  C   LIG A   1      -1.510   0.088  -0.071  0.00  0.00    +0.002 C 
ATOM     14  C   LIG A   1      -0.538   0.596   1.010  0.00  0.00    +0.005 C 
ATOM     15  C   LIG A   1       0.697  -0.288   1.104  0.00  0.00    +0.005 C 
ATOM     16  C   LIG A   1       1.442  -0.533  -0.208  0.00  0.00    +0.001 C 
ATOM     17  C   LIG A   1       0.518  -0.780  -1.444  0.00  0.00    -0.023 C 
ATOM     18  C   LIG A   1       0.171  -2.296  -1.467  0.00  0.00    +0.012 C 
ATOM     19  C   LIG A   1       1.502  -0.526  -2.609  0.00  0.00    +0.008 C 
ATOM     20  C   LIG A   1       2.490   0.543  -2.147  0.00  0.00    +0.007 C 
ATOM     21  C   LIG A   1       2.448   0.575  -0.607  0.00  0.00    +0.024 C 
ATOM     22  C   LIG A   1      -0.478   1.598  -1.907  0.00  0.00    +0.012 C 
ATOM     23  C   LIG A   1      -3.002   2.220   0.004  0.00  0.00    +0.012 C 
ENDROOT
BRANCH  21  24
ATOM     24  C   LIG A   1       3.867   0.471   0.038  0.00  0.00    +0.070 C 
ATOM     25  O   LIG A   1       3.756   0.502   1.486  0.00  0.00    -0.367 OA
ATOM     26  C   LIG A   1       4.771  -0.382   2.014  0.00  0.00    +0.150 C 
ATOM     27  C   LIG A   1       4.783  -1.537   1.037  0.00  0.00    +0.037 C 
ATOM     28  C   LIG A   1       4.636  -0.825  -0.294  0.00  0.00    +0.037 C 
ATOM     29  C   LIG A   1       4.704   1.705  -0.357  0.00  0.00    +0.042 C 
BRANCH  26  30
ATOM     30  C   LIG A   1       4.517  -0.709   3.503  0.00  0.00    +0.086 C 
ATOM     31  C   LIG A   1       3.160  -1.352   3.792  0.00  0.00    +0.043 C 
ATOM     32  C   LIG A   1       5.636  -1.583   4.072  0.00  0.00    +0.043 C 
BRANCH  30  33
ATOM     33  O   LIG A   1       4.545   0.536   4.225  0.00  0.00    -0.387 OA
ATOM     34  H   LIG A   1       3.983   1.148   3.709  0.00  0.00    +0.210 HD
ENDBRANCH  30  33
ENDBRANCH  26  30
ENDBRANCH  21  24
TORSDOF 3
