@<TRIPOS>MOLECULE
NuBBE_1116
 35 36 0 0 0
SMALL
GASTEIGER

@<TRIPOS>ATOM
      1 O          -3.1928   -1.4171   -0.3742 O.2     1  LIG1       -0.2449
      2 C          -2.0006   -1.2098   -0.2024 C.ar    1  LIG1        0.3413
      3 C          -1.4314    0.1732   -0.0546 C.ar    1  LIG1        0.0470
      4 C          -2.4181    1.3705   -0.0924 C.3     1  LIG1        0.0146
      5 C          -3.1637    1.4168   -1.4467 C.3     1  LIG1       -0.0521
      6 C          -3.4615    1.2585    1.0437 C.3     1  LIG1       -0.0521
      7 C          -1.6948    2.7122    0.1639 C.2     1  LIG1       -0.0809
      8 C          -1.5847    3.7687   -0.6565 C.2     1  LIG1       -0.1018
      9 C          -0.0987    0.3023    0.0978 C.ar    1  LIG1       -0.0402
     10 O          -1.1168   -2.2863   -0.1306 O.2     1  LIG1       -0.4218
     11 C           0.2663   -2.1136    0.0119 C.ar    1  LIG1        0.1428
     12 C           0.8022   -0.8389    0.1220 C.ar    1  LIG1        0.0216
     13 C           2.1886   -0.6836    0.2454 C.ar    1  LIG1       -0.0056
     14 C           3.0202   -1.8064    0.2527 C.ar    1  LIG1        0.1621
     15 O           4.3878   -1.7942    0.3576 O.3     1  LIG1       -0.4914
     16 C           5.0057   -0.5148    0.4523 C.3     1  LIG1        0.0790
     17 C           2.4430   -3.0795    0.1428 C.ar    1  LIG1        0.1620
     18 O           3.2348   -4.1957    0.1435 O.3     1  LIG1       -0.5032
     19 C           1.0700   -3.2485    0.0243 C.ar    1  LIG1        0.0265
     20 H          -3.7624    0.5217   -1.6344 H       1  LIG1        0.0241
     21 H          -2.4654    1.5219   -2.2856 H       1  LIG1        0.0241
     22 H          -3.8650    2.2603   -1.4830 H       1  LIG1        0.0241
     23 H          -4.0881    0.3663    0.9560 H       1  LIG1        0.0241
     24 H          -4.1444    2.1177    1.0375 H       1  LIG1        0.0241
     25 H          -2.9824    1.2259    2.0299 H       1  LIG1        0.0241
     26 H          -1.2199    2.8037    1.1427 H       1  LIG1        0.0575
     27 H          -2.0281    3.7968   -1.6463 H       1  LIG1        0.0532
     28 H          -1.0396    4.6560   -0.3469 H       1  LIG1        0.0532
     29 H           0.3716    1.2737    0.2051 H       1  LIG1        0.0630
     30 H           2.5963    0.3181    0.3278 H       1  LIG1        0.0662
     31 H           6.0841   -0.6687    0.5522 H       1  LIG1        0.0660
     32 H           4.6636    0.0244    1.3420 H       1  LIG1        0.0660
     33 H           4.8339    0.0719   -0.4565 H       1  LIG1        0.0660
     34 H           4.1499   -3.8624    0.2229 H       1  LIG1        0.2923
     35 H           0.6406   -4.2408   -0.0639 H       1  LIG1        0.0692
@<TRIPOS>BOND
     1     1     2    2
     2     2     3   ar
     3     3     4    1
     4     4     5    1
     5     4     6    1
     6     4     7    1
     7     7     8    2
     8     3     9   ar
     9     2    10   ar
    10    10    11   ar
    11    11    12   ar
    12     9    12   ar
    13    12    13   ar
    14    13    14   ar
    15    14    15    1
    16    15    16    1
    17    14    17   ar
    18    17    18    1
    19    17    19   ar
    20    11    19   ar
    21     5    20    1
    22     5    21    1
    23     5    22    1
    24     6    23    1
    25     6    24    1
    26     6    25    1
    27     7    26    1
    28     8    27    1
    29     8    28    1
    30     9    29    1
    31    13    30    1
    32    16    31    1
    33    16    32    1
    34    16    33    1
    35    18    34    1
    36    19    35    1
