@<TRIPOS>MOLECULE
NuBBE_1815
 43 46 0 0 0
SMALL
GASTEIGER

@<TRIPOS>ATOM
      1 O          -4.0282   -1.2258   -0.1352 O.2     1  LIG1       -0.2890
      2 C          -2.8066   -1.1852   -0.1491 C.2     1  LIG1        0.1991
      3 C          -2.0092   -2.4111   -0.3372 C.ar    1  LIG1        0.0620
      4 C          -2.6229   -3.5863   -0.7742 C.ar    1  LIG1       -0.0442
      5 C          -1.8477   -4.7235   -1.0119 C.ar    1  LIG1       -0.0191
      6 C          -0.4659   -4.6831   -0.8145 C.ar    1  LIG1        0.1236
      7 O           0.3816   -5.7399   -1.0067 O.3     1  LIG1       -0.4950
      8 C          -0.0103   -6.6608   -2.0203 C.3     1  LIG1        0.0788
      9 C           0.1324   -3.5109   -0.3422 C.ar    1  LIG1        0.0225
     10 C          -0.6387   -2.3733   -0.1023 C.ar    1  LIG1        0.1355
     11 O           0.0347   -1.2668    0.3366 O.3     1  LIG1       -0.4803
     12 C          -0.8017   -0.2317    0.8761 C.3     1  LIG1        0.1588
     13 H          -1.1282   -0.5335    1.8815 H       1  LIG1        0.0816
     14 C          -2.0141    0.0918    0.0036 C.3     1  LIG1        0.1622
     15 H          -2.6616    0.8378    0.4842 H       1  LIG1        0.0721
     16 O          -1.5937    0.5632   -1.2747 O.3     1  LIG1       -0.3599
     17 C          -0.9627    1.8479   -1.1807 C.3     1  LIG1        0.0777
     18 C           0.0035    1.9937   -0.0205 C.ar    1  LIG1        0.0301
     19 C           0.0715    0.9970    0.9745 C.ar    1  LIG1        0.0047
     20 C           0.9688    1.1328    2.0346 C.ar    1  LIG1       -0.0510
     21 C           1.7648    2.2706    2.1337 C.ar    1  LIG1       -0.0159
     22 C           1.6685    3.3028    1.1897 C.ar    1  LIG1        0.1619
     23 O           2.3909    4.4621    1.3120 O.3     1  LIG1       -0.4914
     24 C           2.6820    4.8650    2.6488 C.3     1  LIG1        0.0790
     25 C           0.8060    3.1505    0.0877 C.ar    1  LIG1        0.1672
     26 O           0.5587    4.1102   -0.8648 O.3     1  LIG1       -0.4911
     27 C           1.6924    4.7818   -1.4023 C.3     1  LIG1        0.0790
     28 H          -3.6968   -3.6163   -0.9436 H       1  LIG1        0.0627
     29 H          -2.3524   -5.6255   -1.3406 H       1  LIG1        0.0654
     30 H           0.7840   -7.4067   -2.1194 H       1  LIG1        0.0660
     31 H          -0.1208   -6.1540   -2.9852 H       1  LIG1        0.0660
     32 H          -0.9252   -7.1967   -1.7507 H       1  LIG1        0.0660
     33 H           1.2062   -3.4830   -0.1736 H       1  LIG1        0.0691
     34 H          -1.7504    2.6055   -1.1025 H       1  LIG1        0.0611
     35 H          -0.4291    1.9962   -2.1258 H       1  LIG1        0.0611
     36 H           1.0519    0.3545    2.7904 H       1  LIG1        0.0623
     37 H           2.4528    2.3279    2.9708 H       1  LIG1        0.0655
     38 H           3.0553    5.8925    2.6190 H       1  LIG1        0.0660
     39 H           3.4710    4.2439    3.0854 H       1  LIG1        0.0660
     40 H           1.7820    4.8525    3.2744 H       1  LIG1        0.0660
     41 H           2.5015    4.0885   -1.6540 H       1  LIG1        0.0660
     42 H           2.0359    5.5794   -0.7396 H       1  LIG1        0.0660
     43 H           1.3698    5.2660   -2.3310 H       1  LIG1        0.0660
@<TRIPOS>BOND
     1     1     2    2
     2     2     3    1
     3     3     4   ar
     4     4     5   ar
     5     5     6   ar
     6     6     7    1
     7     7     8    1
     8     6     9   ar
     9     9    10   ar
    10     3    10   ar
    11    10    11    1
    12    11    12    1
    13    12    13    1
    14    12    14    1
    15    14    15    1
    16     2    14    1
    17    14    16    1
    18    16    17    1
    19    17    18    1
    20    18    19   ar
    21    12    19    1
    22    19    20   ar
    23    20    21   ar
    24    21    22   ar
    25    22    23    1
    26    23    24    1
    27    22    25   ar
    28    18    25   ar
    29    25    26    1
    30    26    27    1
    31     4    28    1
    32     5    29    1
    33     8    30    1
    34     8    31    1
    35     8    32    1
    36     9    33    1
    37    17    34    1
    38    17    35    1
    39    20    36    1
    40    21    37    1
    41    24    38    1
    42    24    39    1
    43    24    40    1
    44    27    41    1
    45    27    42    1
    46    27    43    1
