REMARK  Name = NuBBE_2234
REMARK  3 active torsions:
REMARK  status: ('A' for Active; 'I' for Inactive)
REMARK    1  A    between atoms: C_11  and  C_12
REMARK    2  A    between atoms: C_11  and  C_13
REMARK    3  A    between atoms: C_17  and  C_18
REMARK                            x       y       z     vdW  Elec       q    Type
REMARK                         _______ _______ _______ _____ _____    ______ ____
ROOT
ATOM      1  O   LIG A   1       1.229  -2.857  -0.096  0.00  0.00    -0.297 OA
ATOM      2  C   LIG A   1       0.359  -2.248   0.501  0.00  0.00    +0.138 C 
ATOM      3  C   LIG A   1       0.042  -0.777   0.170  0.00  0.00    +0.068 C 
ATOM      4  C   LIG A   1      -0.516  -0.075   1.510  0.00  0.00    -0.015 C 
ATOM      5  C   LIG A   1       0.439  -0.204   2.729  0.00  0.00    +0.038 C 
ATOM      6  C   LIG A   1      -0.984   1.366   1.316  0.00  0.00    +0.008 C 
ATOM      7  C   LIG A   1      -0.114   2.141   0.382  0.00  0.00    +0.005 C 
ATOM      8  C   LIG A   1       0.337   1.377  -0.855  0.00  0.00    +0.001 C 
ATOM      9  C   LIG A   1      -0.692   1.112  -2.127  0.00  0.00    -0.032 C 
ATOM     10  C   LIG A   1      -0.835  -0.263  -2.955  0.00  0.00    +0.011 C 
ATOM     11  C   LIG A   1      -2.157   1.423  -1.817  0.00  0.00    +0.011 C 
ATOM     12  C   LIG A   1       0.086   1.942  -3.141  0.00  0.00    +0.007 C 
ATOM     13  C   LIG A   1       1.527   1.272  -3.168  0.00  0.00    +0.001 C 
ATOM     14  C   LIG A   1       1.762  -0.028  -2.149  0.00  0.00    +0.007 C 
ATOM     15  C   LIG A   1       1.155   0.114  -0.633  0.00  0.00    -0.019 C 
ATOM     16  C   LIG A   1       2.425   0.199   0.243  0.00  0.00    +0.012 C 
ATOM     17  C   LIG A   1      -0.607  -2.971   1.460  0.00  0.00    +0.082 C 
ATOM     18  C   LIG A   1      -1.123  -2.096   2.601  0.00  0.00    +0.022 C 
ATOM     19  C   LIG A   1      -1.754  -0.847   2.025  0.00  0.00    +0.016 C 
ATOM     20  C   LIG A   1       0.026  -1.504   3.369  0.00  0.00    -0.073 C 
ATOM     21  C   LIG A   1       0.587  -2.015   4.467  0.00  0.00    +0.008 C 
ENDROOT
TORSDOF 0
