REMARK  Name = NuBBE_2061
REMARK  7 active torsions:
REMARK  status: ('A' for Active; 'I' for Inactive)
REMARK    1  A    between atoms: C_1  and  O_2
REMARK    2  A    between atoms: O_2  and  C_3
REMARK    3  A    between atoms: C_13  and  O_15
REMARK    4  A    between atoms: C_18  and  O_19
REMARK    5  A    between atoms: O_19  and  C_20
REMARK    6  A    between atoms: C_21  and  O_22
REMARK    7  A    between atoms: O_22  and  C_23
REMARK                            x       y       z     vdW  Elec       q    Type
REMARK                         _______ _______ _______ _____ _____    ______ ____
ROOT
ATOM      1  C   LIG A   1       2.343  -1.551   1.752  0.00  0.00    +0.147 C 
ATOM      2  C   LIG A   1       2.304  -0.348   2.667  0.00  0.00    +0.005 C 
ATOM      3  C   LIG A   1       2.149   0.893   2.164  0.00  0.00    +0.008 C 
ATOM      4  C   LIG A   1       2.051   0.980   0.735  0.00  0.00    +0.009 C 
ATOM      5  C   LIG A   1       3.082   1.456   0.011  0.00  0.00    +0.033 C 
ATOM      6  C   LIG A   1       3.123   0.823  -1.330  0.00  0.00    +0.160 C 
ATOM      7  N   LIG A   1       1.832   0.027  -1.510  0.00  0.00    +0.233 N 
ATOM      8  O   LIG A   1       2.080  -1.192  -2.092  0.00  0.00    -0.774 OA
ATOM      9  C   LIG A   1       0.968   0.810  -2.461  0.00  0.00    +0.168 C 
ATOM     10  C   LIG A   1      -0.412   0.203  -2.549  0.00  0.00    +0.190 C 
ATOM     11  C   LIG A   1      -1.086   0.417  -1.218  0.00  0.00    -0.001 A 
ATOM     12  C   LIG A   1      -2.470   0.663  -1.175  0.00  0.00    +0.056 A 
ATOM     13  C   LIG A   1      -3.145   0.875   0.026  0.00  0.00    +0.162 A 
ATOM     14  C   LIG A   1      -2.421   0.828   1.220  0.00  0.00    +0.162 A 
ATOM     15  C   LIG A   1      -1.035   0.589   1.182  0.00  0.00    +0.059 A 
ATOM     16  C   LIG A   1      -0.336   0.369  -0.028  0.00  0.00    +0.017 A 
ATOM     17  C   LIG A   1       1.176  -0.015  -0.038  0.00  0.00    +0.044 C 
ATOM     18  C   LIG A   1       1.297  -1.438   0.620  0.00  0.00    +0.103 C 
ENDROOT
BRANCH   1  20
ATOM     19  C   LIG A   1       3.959  -2.778   0.477  0.00  0.00    +0.194 C 
ATOM     20  O   LIG A   1       3.695  -1.648   1.296  0.00  0.00    -0.376 OA
ENDBRANCH   1  20
BRANCH  10  21
ATOM     21  O   LIG A   1      -1.135   0.858  -3.594  0.00  0.00    -0.382 OA
ATOM     22  H   LIG A   1      -0.829   0.463  -4.429  0.00  0.00    +0.210 HD
ENDBRANCH  10  21
BRANCH  13  23
ATOM     23  O   LIG A   1      -4.467   1.228   0.051  0.00  0.00    -0.491 OA
ATOM     24  C   LIG A   1      -5.298   0.601  -0.921  0.00  0.00    +0.277 C 
ENDBRANCH  13  23
BRANCH  14  25
ATOM     25  O   LIG A   1      -2.921   1.002   2.488  0.00  0.00    -0.491 OA
ATOM     26  C   LIG A   1      -4.279   0.614   2.682  0.00  0.00    +0.277 C 
ENDBRANCH  14  25
TORSDOF 4
