REMARK  Name = NuBBE_854
REMARK  4 active torsions:
REMARK  status: ('A' for Active; 'I' for Inactive)
REMARK    1  A    between atoms: C_3  and  O_4
REMARK    2  A    between atoms: C_13  and  C_14
REMARK    3  A    between atoms: C_18  and  C_20
REMARK    4  A    between atoms: C_20  and  C_21
REMARK                            x       y       z     vdW  Elec       q    Type
REMARK                         _______ _______ _______ _____ _____    ______ ____
ROOT
ATOM      1  O   LIG A   1      -0.633   3.275  -1.429  0.00  0.00    -0.289 OA
ATOM      2  C   LIG A   1      -0.176   2.907  -0.343  0.00  0.00    +0.196 C 
ATOM      3  C   LIG A   1       0.165   3.928   0.829  0.00  0.00    +0.154 C 
ATOM      4  C   LIG A   1       1.681   3.553   0.553  0.00  0.00    +0.084 C 
ATOM      5  C   LIG A   1       1.887   2.315   1.399  0.00  0.00    +0.187 C 
ATOM      6  O   LIG A   1       1.235   2.655   2.626  0.00  0.00    -0.365 OA
ATOM      7  C   LIG A   1       0.535   3.887   2.361  0.00  0.00    +0.203 C 
ATOM      8  C   LIG A   1       0.175   1.441  -0.161  0.00  0.00    +0.038 C 
ATOM      9  C   LIG A   1       1.148   1.178   0.739  0.00  0.00    +0.134 C 
ATOM     10  O   LIG A   1       1.612  -0.101   1.030  0.00  0.00    -0.487 OA
ATOM     11  C   LIG A   1       1.172  -1.097   0.093  0.00  0.00    +0.111 C 
ATOM     12  C   LIG A   1       2.125  -1.076  -1.119  0.00  0.00    +0.056 C 
ATOM     13  C   LIG A   1      -0.325  -0.924  -0.210  0.00  0.00    +0.044 C 
ATOM     14  C   LIG A   1      -0.583   0.396  -0.919  0.00  0.00    +0.050 C 
ATOM     15  C   LIG A   1      -0.721  -2.233  -0.897  0.00  0.00    +0.021 C 
ATOM     16  C   LIG A   1       0.147  -3.289  -0.154  0.00  0.00    +0.012 C 
ATOM     17  C   LIG A   1       1.152  -2.501   0.708  0.00  0.00    +0.049 C 
ENDROOT
BRANCH  15  18
ATOM     18  C   LIG A   1      -2.218  -2.475  -0.906  0.00  0.00    -0.076 C 
ATOM     19  C   LIG A   1      -2.913  -2.211  -2.215  0.00  0.00    +0.038 C 
ATOM     20  C   LIG A   1      -2.913  -2.885   0.168  0.00  0.00    +0.007 C 
ENDBRANCH  15  18
BRANCH   3  21
ATOM     21  O   LIG A   1      -1.169   3.298   1.167  0.00  0.00    -0.378 OA
ATOM     22  H   LIG A   1      -1.044   2.513   1.742  0.00  0.00    +0.211 HD
ENDBRANCH   3  21
TORSDOF 2
