REMARK  Name = NuBBE_1022
REMARK  10 active torsions:
REMARK  status: ('A' for Active; 'I' for Inactive)
REMARK    1  A    between atoms: C_1  and  C_2
REMARK    2  A    between atoms: C_2  and  C_3
REMARK    3  A    between atoms: C_7  and  O_8
REMARK    4  A    between atoms: O_8  and  C_9
REMARK    5  A    between atoms: C_10  and  C_11
REMARK    6  A    between atoms: C_11  and  C_12
REMARK    7  A    between atoms: C_12  and  C_13
REMARK    8  A    between atoms: C_13  and  O_14
REMARK    9  A    between atoms: C_18  and  O_19
REMARK   10  A    between atoms: O_19  and  C_20
REMARK                            x       y       z     vdW  Elec       q    Type
REMARK                         _______ _______ _______ _____ _____    ______ ____
ROOT
ATOM      1  C   LIG A   1      -3.379   1.260  -2.142  0.00  0.00    +0.060 C 
ATOM      2  C   LIG A   1      -2.053   0.853  -2.803  0.00  0.00    +0.124 C 
ATOM      3  C   LIG A   1      -2.337   0.413  -4.249  0.00  0.00    +0.060 C 
ATOM      4  O   LIG A   1      -1.546  -0.322  -2.135  0.00  0.00    -0.478 OA
ATOM      5  C   LIG A   1      -0.773  -0.108  -1.015  0.00  0.00    +0.174 A 
ATOM      6  C   LIG A   1      -0.022   1.080  -0.817  0.00  0.00    +0.062 A 
ATOM      7  C   LIG A   1       0.747   1.269   0.384  0.00  0.00    +0.134 A 
ATOM      8  C   LIG A   1       0.748   0.248   1.352  0.00  0.00    -0.001 A 
ATOM      9  C   LIG A   1       0.010  -0.916   1.081  0.00  0.00    +0.056 A 
ATOM     10  C   LIG A   1      -0.709  -1.140  -0.084  0.00  0.00    +0.163 A 
ATOM     11  C   LIG A   1      -0.032   2.037  -1.938  0.00  0.00    +0.015 C 
ATOM     12  C   LIG A   1      -1.028   1.966  -2.834  0.00  0.00    +0.020 C 
ENDROOT
BRANCH   7  13
ATOM     13  O   LIG A   1       1.370   2.493   0.543  0.00  0.00    -0.494 OA
ATOM     14  C   LIG A   1       2.560   2.561   1.330  0.00  0.00    +0.277 C 
ENDBRANCH   7  13
BRANCH  10  15
ATOM     15  O   LIG A   1      -1.379  -2.322  -0.292  0.00  0.00    -0.491 OA
ATOM     16  C   LIG A   1      -0.774  -3.465   0.331  0.00  0.00    +0.277 C 
ENDBRANCH  10  15
BRANCH   8  17
ATOM     17  C   LIG A   1       1.415   0.240   2.709  0.00  0.00    +0.050 C 
BRANCH  17  18
ATOM     18  C   LIG A   1       2.618  -0.685   2.856  0.00  0.00    +0.125 C 
BRANCH  18  19
ATOM     19  C   LIG A   1       2.203  -2.111   2.900  0.00  0.00    +0.305 C 
ATOM     20  O   LIG A   1       2.149  -2.897   1.927  0.00  0.00    -0.251 OA
BRANCH  19  21
ATOM     21  O   LIG A   1       1.757  -2.497   4.090  0.00  0.00    -0.481 OA
ATOM     22  H   LIG A   1       1.445  -3.418   3.953  0.00  0.00    +0.295 HD
ENDBRANCH  19  21
ENDBRANCH  18  19
ENDBRANCH  17  18
ENDBRANCH   8  17
TORSDOF 6
