REMARK  Name = NuBBE_1640
REMARK  21 active torsions:
REMARK  status: ('A' for Active; 'I' for Inactive)
REMARK    1  A    between atoms: C_1  and  C_2
REMARK    2  A    between atoms: C_6  and  O_8
REMARK    3  A    between atoms: O_8  and  C_9
REMARK    4  A    between atoms: C_9  and  C_11
REMARK    5  A    between atoms: C_14  and  C_16
REMARK    6  A    between atoms: C_14  and  C_33
REMARK    7  A    between atoms: C_16  and  C_17
REMARK    8  A    between atoms: C_17  and  C_18
REMARK    9  A    between atoms: C_18  and  C_19
REMARK   10  A    between atoms: C_18  and  C_32
REMARK   11  A    between atoms: C_19  and  C_20
REMARK   12  A    between atoms: C_20  and  C_21
REMARK   13  A    between atoms: C_21  and  C_22
REMARK   14  A    between atoms: C_22  and  C_23
REMARK   15  A    between atoms: C_22  and  C_29
REMARK   16  A    between atoms: C_23  and  C_24
REMARK   17  A    between atoms: C_24  and  C_25
REMARK   18  A    between atoms: C_25  and  C_26
REMARK   19  A    between atoms: C_26  and  C_27
REMARK   20  A    between atoms: C_26  and  C_28
REMARK   21  A    between atoms: C_29  and  O_31
REMARK                            x       y       z     vdW  Elec       q    Type
REMARK                         _______ _______ _______ _____ _____    ______ ____
ROOT
ATOM      1  C   LIG A   1       0.958  -1.741   0.846  0.00  0.00    +0.048 C 
ENDROOT
BRANCH   1  11
ATOM      2  C   LIG A   1      -3.626  -2.447   2.848  0.00  0.00    +0.048 C 
ATOM      3  C   LIG A   1      -2.613  -3.540   3.054  0.00  0.00    -0.005 A 
ATOM      4  C   LIG A   1      -1.428  -3.598   2.293  0.00  0.00    +0.128 A 
ATOM      5  C   LIG A   1      -0.504  -4.623   2.510  0.00  0.00    -0.002 A 
ATOM      6  C   LIG A   1      -0.736  -5.564   3.512  0.00  0.00    +0.053 A 
ATOM      7  C   LIG A   1      -1.929  -5.549   4.226  0.00  0.00    +0.132 A 
ATOM      8  C   LIG A   1      -2.853  -4.524   4.031  0.00  0.00    +0.053 A 
ATOM      9  C   LIG A   1       0.721  -4.753   1.661  0.00  0.00    +0.043 C 
ATOM     10  C   LIG A   1       0.398  -4.191   0.289  0.00  0.00    +0.052 C 
ATOM     11  C   LIG A   1      -0.139  -2.752   0.406  0.00  0.00    +0.108 C 
ATOM     12  O   LIG A   1      -1.243  -2.634   1.341  0.00  0.00    -0.485 OA
ATOM     13  C   LIG A   1      -0.754  -2.330  -0.940  0.00  0.00    +0.056 C 
BRANCH   7  14
ATOM     14  O   LIG A   1      -2.237  -6.538   5.179  0.00  0.00    -0.426 OA
BRANCH  14  15
ATOM     15  C   LIG A   1      -1.814  -7.849   4.948  0.00  0.00    +0.309 C 
ATOM     16  O   LIG A   1      -1.219  -8.278   3.966  0.00  0.00    -0.251 OA
ATOM     17  C   LIG A   1      -2.181  -8.723   6.104  0.00  0.00    +0.136 C 
ENDBRANCH  14  15
ENDBRANCH   7  14
ENDBRANCH   1  11
BRANCH   1  18
ATOM     18  C   LIG A   1       2.182  -1.643  -0.088  0.00  0.00    +0.007 C 
BRANCH  18  19
ATOM     19  C   LIG A   1       3.272  -0.647   0.363  0.00  0.00    -0.014 C 
ATOM     20  C   LIG A   1       3.907  -1.109   1.681  0.00  0.00    +0.007 C 
BRANCH  19  21
ATOM     21  C   LIG A   1       2.780   0.819   0.460  0.00  0.00    +0.003 C 
BRANCH  21  22
ATOM     22  C   LIG A   1       2.216   1.364  -0.869  0.00  0.00    +0.001 C 
BRANCH  22  23
ATOM     23  C   LIG A   1       1.694   2.814  -0.779  0.00  0.00    +0.015 C 
BRANCH  23  24
ATOM     24  C   LIG A   1       1.131   3.347  -2.131  0.00  0.00    +0.098 C 
BRANCH  24  25
ATOM     25  C   LIG A   1       2.192   3.295  -3.197  0.00  0.00    +0.308 C 
ATOM     26  O   LIG A   1       3.365   3.673  -3.092  0.00  0.00    -0.251 OA
BRANCH  25  27
ATOM     27  O   LIG A   1       1.745   2.803  -4.360  0.00  0.00    -0.480 OA
ATOM     28  H   LIG A   1       2.503   2.900  -4.977  0.00  0.00    +0.295 HD
ENDBRANCH  25  27
ENDBRANCH  24  25
BRANCH  24  29
ATOM     29  C   LIG A   1       0.605   4.803  -2.007  0.00  0.00    +0.015 C 
BRANCH  29  30
ATOM     30  C   LIG A   1      -0.130   5.338  -3.264  0.00  0.00    +0.001 C 
BRANCH  30  31
ATOM     31  C   LIG A   1      -0.572   6.809  -3.101  0.00  0.00    +0.003 C 
BRANCH  31  32
ATOM     32  C   LIG A   1      -1.361   7.412  -4.293  0.00  0.00    -0.017 C 
ATOM     33  C   LIG A   1      -2.734   6.769  -4.501  0.00  0.00    +0.007 C 
ATOM     34  C   LIG A   1      -1.550   8.923  -4.084  0.00  0.00    +0.007 C 
ENDBRANCH  31  32
ENDBRANCH  30  31
ENDBRANCH  29  30
ENDBRANCH  24  29
ENDBRANCH  23  24
ENDBRANCH  22  23
ENDBRANCH  21  22
ENDBRANCH  19  21
ENDBRANCH  18  19
ENDBRANCH   1  18
TORSDOF 15
