@<TRIPOS>MOLECULE
NuBBE_2433
 37 38 0 0 0
SMALL
GASTEIGER

@<TRIPOS>ATOM
      1 C          -0.7254   -1.3176   -0.1992 C.2     1  LIG1        0.1931
      2 O          -1.4208   -2.2217   -0.6723 O.2     1  LIG1       -0.2870
      3 C          -1.3601   -0.1843    0.5370 C.2     1  LIG1       -0.0135
      4 C          -2.6741    0.0494    0.3813 C.2     1  LIG1       -0.0510
      5 C          -3.3727    1.1722    1.0119 C.ar    1  LIG1       -0.0249
      6 C          -3.9574    1.0265    2.2742 C.ar    1  LIG1       -0.0546
      7 C          -4.6613    2.0869    2.8537 C.ar    1  LIG1       -0.0612
      8 C          -4.7839    3.2994    2.1763 C.ar    1  LIG1       -0.0617
      9 C          -4.2004    3.4538    0.9198 C.ar    1  LIG1       -0.0612
     10 C          -3.4970    2.3940    0.3389 C.ar    1  LIG1       -0.0546
     11 C           0.7613   -1.3312   -0.3751 C.ar    1  LIG1        0.1047
     12 C           1.4841   -0.1716   -0.7193 C.ar    1  LIG1        0.1379
     13 O           0.8074    1.0190   -0.8064 O.3     1  LIG1       -0.4942
     14 C           1.3309    1.9777   -1.7212 C.3     1  LIG1        0.0788
     15 C           2.8696   -0.2567   -0.9402 C.ar    1  LIG1        0.0227
     16 C           3.5402   -1.4814   -0.8937 C.ar    1  LIG1        0.1271
     17 C           2.8267   -2.6342   -0.5861 C.ar    1  LIG1        0.0225
     18 C           1.4561   -2.5540   -0.3081 C.ar    1  LIG1        0.1346
     19 O           0.8110   -3.7005    0.0743 O.3     1  LIG1       -0.5058
     20 O           4.8809   -1.4137   -1.1594 O.3     1  LIG1       -0.4949
     21 C           5.6069   -2.6381   -1.1371 C.3     1  LIG1        0.0788
     22 H          -0.7311    0.4454    1.1540 H       1  LIG1        0.0656
     23 H          -3.2869   -0.5837   -0.2572 H       1  LIG1        0.0625
     24 H          -3.8816    0.0824    2.8082 H       1  LIG1        0.0623
     25 H          -5.1208    1.9636    3.8311 H       1  LIG1        0.0618
     26 H          -5.3375    4.1207    2.6249 H       1  LIG1        0.0618
     27 H          -4.2997    4.3971    0.3886 H       1  LIG1        0.0618
     28 H          -3.0586    2.5246   -0.6476 H       1  LIG1        0.0623
     29 H           1.4967    1.5345   -2.7090 H       1  LIG1        0.0660
     30 H           2.2469    2.4355   -1.3348 H       1  LIG1        0.0660
     31 H           0.5886    2.7740   -1.8294 H       1  LIG1        0.0660
     32 H           3.4610    0.6292   -1.1530 H       1  LIG1        0.0691
     33 H           3.3197   -3.5986   -0.5496 H       1  LIG1        0.0691
     34 H           1.4159   -4.4582    0.0370 H       1  LIG1        0.2922
     35 H           6.6539   -2.4150   -1.3638 H       1  LIG1        0.0660
     36 H           5.2391   -3.3273   -1.9046 H       1  LIG1        0.0660
     37 H           5.5725   -3.0980   -0.1438 H       1  LIG1        0.0660
@<TRIPOS>BOND
     1     1     2    2
     2     1     3    1
     3     3     4    2
     4     4     5    1
     5     5     6   ar
     6     6     7   ar
     7     7     8   ar
     8     8     9   ar
     9     9    10   ar
    10     5    10   ar
    11     1    11    1
    12    11    12   ar
    13    12    13    1
    14    13    14    1
    15    12    15   ar
    16    15    16   ar
    17    16    17   ar
    18    17    18   ar
    19    11    18   ar
    20    18    19    1
    21    16    20    1
    22    20    21    1
    23     3    22    1
    24     4    23    1
    25     6    24    1
    26     7    25    1
    27     8    26    1
    28     9    27    1
    29    10    28    1
    30    14    29    1
    31    14    30    1
    32    14    31    1
    33    15    32    1
    34    17    33    1
    35    19    34    1
    36    21    35    1
    37    21    36    1
    38    21    37    1
