REMARK  Name = NuBBE_357
REMARK  11 active torsions:
REMARK  status: ('A' for Active; 'I' for Inactive)
REMARK    1  A    between atoms: O_1  and  C_2
REMARK    2  A    between atoms: C_3  and  C_4
REMARK    3  A    between atoms: C_4  and  C_5
REMARK    4  A    between atoms: C_6  and  C_7
REMARK    5  A    between atoms: C_6  and  C_8
REMARK    6  A    between atoms: C_8  and  C_9
REMARK    7  A    between atoms: C_9  and  C_10
REMARK    8  A    between atoms: C_11  and  C_12
REMARK    9  A    between atoms: C_11  and  C_13
REMARK   10  A    between atoms: C_15  and  C_16
REMARK   11  A    between atoms: C_16  and  O_17
REMARK                            x       y       z     vdW  Elec       q    Type
REMARK                         _______ _______ _______ _____ _____    ______ ____
ROOT
ATOM      1  C   LIG A   1      -2.407  -1.954  -1.293  0.00  0.00    +0.120 A 
ATOM      2  C   LIG A   1      -2.245  -2.066   0.094  0.00  0.00    -0.002 A 
ATOM      3  C   LIG A   1      -2.066  -3.350   0.637  0.00  0.00    +0.022 A 
ATOM      4  C   LIG A   1      -2.059  -4.497  -0.181  0.00  0.00    +0.059 A 
ATOM      5  C   LIG A   1      -2.235  -4.353  -1.562  0.00  0.00    +0.018 A 
ATOM      6  C   LIG A   1      -2.409  -3.084  -2.113  0.00  0.00    +0.046 A 
ENDROOT
BRANCH   1   7
ATOM      7  O   LIG A   1      -2.579  -0.756  -1.925  0.00  0.00    -0.506 OA
ATOM      8  H   LIG A   1      -2.381  -0.038  -1.302  0.00  0.00    +0.292 HD
ENDBRANCH   1   7
BRANCH   4   9
ATOM      9  C   LIG A   1      -1.866  -5.852   0.384  0.00  0.00    +0.337 C 
ATOM     10  O   LIG A   1      -1.875  -6.903  -0.246  0.00  0.00    -0.245 OA
BRANCH   9  11
ATOM     11  O   LIG A   1      -1.670  -5.831   1.712  0.00  0.00    -0.477 OA
ATOM     12  H   LIG A   1      -1.545  -6.769   1.960  0.00  0.00    +0.295 HD
ENDBRANCH   9  11
ENDBRANCH   4   9
BRANCH   2  13
ATOM     13  C   LIG A   1      -2.252  -0.877   1.032  0.00  0.00    +0.066 C 
BRANCH  13  14
ATOM     14  C   LIG A   1      -0.908  -0.196   1.117  0.00  0.00    -0.023 C 
ATOM     15  C   LIG A   1      -0.606   1.102   0.900  0.00  0.00    -0.076 C 
ATOM     16  C   LIG A   1      -1.610   2.170   0.557  0.00  0.00    +0.038 C 
BRANCH  15  17
ATOM     17  C   LIG A   1       0.830   1.603   1.043  0.00  0.00    +0.034 C 
BRANCH  17  18
ATOM     18  C   LIG A   1       1.598   1.591  -0.286  0.00  0.00    +0.031 C 
BRANCH  18  19
ATOM     19  C   LIG A   1       3.027   2.057  -0.153  0.00  0.00    -0.028 C 
ATOM     20  C   LIG A   1       3.508   3.305  -0.324  0.00  0.00    -0.080 C 
ATOM     21  C   LIG A   1       2.667   4.519  -0.605  0.00  0.00    +0.038 C 
ATOM     22  C   LIG A   1       4.988   3.587  -0.239  0.00  0.00    +0.038 C 
ENDBRANCH  18  19
ENDBRANCH  17  18
ENDBRANCH  15  17
ENDBRANCH  13  14
ENDBRANCH   2  13
TORSDOF 8
