@<TRIPOS>MOLECULE
NuBBE_79
 37 39 0 0 0
SMALL
GASTEIGER

@<TRIPOS>ATOM
      1 O          -1.4897    0.8106   -3.7546 O.2     1  LIG1       -0.2706
      2 C          -1.7262    0.0228   -2.8520 C.2     1  LIG1        0.2394
      3 N          -2.5336   -1.0866   -2.9777 N.am    1  LIG1       -0.2980
      4 C          -3.2167   -1.4204   -4.2189 C.3     1  LIG1        0.0150
      5 C          -4.1725   -2.5427   -3.8256 C.3     1  LIG1       -0.0357
      6 C          -3.4306   -3.2429   -2.6950 C.3     1  LIG1       -0.0357
      7 C          -2.7780   -2.0902   -1.9566 C.3     1  LIG1        0.0150
      8 C          -1.1447    0.1998   -1.4951 C.2     1  LIG1        0.0003
      9 C           0.1135    0.6276   -1.3292 C.2     1  LIG1       -0.0568
     10 C           0.6849    0.7787   -0.0089 C.2     1  LIG1       -0.0610
     11 C           1.9344    1.2123    0.2147 C.2     1  LIG1       -0.0545
     12 C           2.5150    1.3592    1.5601 C.ar    1  LIG1       -0.0213
     13 C           3.9080    1.1816    1.7185 C.ar    1  LIG1       -0.0509
     14 C           4.5179    1.3107    2.9724 C.ar    1  LIG1       -0.0156
     15 C           3.7150    1.6249    4.0458 C.ar    1  LIG1        0.1663
     16 C           2.3631    1.8191    3.9013 C.ar    1  LIG1        0.1668
     17 O           1.7529    2.1257    5.0777 O.3     1  LIG1       -0.4526
     18 C           2.8763    2.0896    5.9819 C.3     1  LIG1        0.2332
     19 O           4.1273    1.7822    5.3315 O.3     1  LIG1       -0.4526
     20 C           1.7371    1.7048    2.6774 C.ar    1  LIG1       -0.0090
     21 H          -2.4704   -1.7697   -4.9416 H       1  LIG1        0.0465
     22 H          -3.7317   -0.5489   -4.6339 H       1  LIG1        0.0465
     23 H          -4.4100   -3.2142   -4.6549 H       1  LIG1        0.0281
     24 H          -5.1104   -2.1211   -3.4440 H       1  LIG1        0.0281
     25 H          -2.6594   -3.9041   -3.1076 H       1  LIG1        0.0281
     26 H          -4.0818   -3.8336   -2.0456 H       1  LIG1        0.0281
     27 H          -1.8488   -2.3873   -1.4616 H       1  LIG1        0.0465
     28 H          -3.4588   -1.6483   -1.2209 H       1  LIG1        0.0465
     29 H          -1.7779   -0.0394   -0.6509 H       1  LIG1        0.0669
     30 H           0.7308    0.8570   -2.1954 H       1  LIG1        0.0619
     31 H           0.0452    0.5086    0.8291 H       1  LIG1        0.0618
     32 H           2.5885    1.4580   -0.6188 H       1  LIG1        0.0623
     33 H           4.5271    0.9275    0.8599 H       1  LIG1        0.0625
     34 H           5.5849    1.1655    3.0956 H       1  LIG1        0.0655
     35 H           2.6838    1.3301    6.7486 H       1  LIG1        0.1166
     36 H           2.9647    3.0670    6.4696 H       1  LIG1        0.1166
     37 H           0.6708    1.8863    2.6044 H       1  LIG1        0.0661
@<TRIPOS>BOND
     1     1     2    2
     2     2     3   am
     3     3     4    1
     4     4     5    1
     5     5     6    1
     6     6     7    1
     7     3     7    1
     8     2     8    1
     9     8     9    2
    10     9    10    1
    11    10    11    2
    12    11    12    1
    13    12    13   ar
    14    13    14   ar
    15    14    15   ar
    16    15    16   ar
    17    16    17    1
    18    17    18    1
    19    18    19    1
    20    15    19    1
    21    16    20   ar
    22    12    20   ar
    23     4    21    1
    24     4    22    1
    25     5    23    1
    26     5    24    1
    27     6    25    1
    28     6    26    1
    29     7    27    1
    30     7    28    1
    31     8    29    1
    32     9    30    1
    33    10    31    1
    34    11    32    1
    35    13    33    1
    36    14    34    1
    37    18    35    1
    38    18    36    1
    39    20    37    1
