REMARK  Name = NuBBE_1010
REMARK  2 active torsions:
REMARK  status: ('A' for Active; 'I' for Inactive)
REMARK    1  A    between atoms: C_5  and  O_7
REMARK    2  A    between atoms: C_12  and  O_13
REMARK                            x       y       z     vdW  Elec       q    Type
REMARK                         _______ _______ _______ _____ _____    ______ ____
ROOT
ATOM      1  O   LIG A   1      -2.685  -1.006  -0.584  0.00  0.00    -0.292 OA
ATOM      2  C   LIG A   1      -1.462  -0.970  -0.504  0.00  0.00    +0.167 C 
ATOM      3  C   LIG A   1      -0.653  -2.234  -0.671  0.00  0.00    +0.082 C 
ATOM      4  C   LIG A   1       0.405  -2.297   0.409  0.00  0.00    +0.044 C 
ATOM      5  C   LIG A   1       1.370  -1.126   0.271  0.00  0.00    +0.146 C 
ATOM      6  C   LIG A   1       0.665   0.204   0.120  0.00  0.00    -0.005 A 
ATOM      7  C   LIG A   1       1.402   1.389   0.304  0.00  0.00    +0.007 A 
ATOM      8  C   LIG A   1       0.802   2.636   0.146  0.00  0.00    +0.004 A 
ATOM      9  C   LIG A   1      -0.541   2.722  -0.210  0.00  0.00    +0.046 A 
ATOM     10  C   LIG A   1      -1.284   1.556  -0.418  0.00  0.00    +0.128 A 
ATOM     11  C   LIG A   1      -0.692   0.292  -0.261  0.00  0.00    +0.064 A 
ENDROOT
BRANCH   5  12
ATOM     12  O   LIG A   1       2.213  -1.122   1.421  0.00  0.00    -0.387 OA
ATOM     13  H   LIG A   1       1.692  -0.770   2.164  0.00  0.00    +0.210 HD
ENDBRANCH   5  12
BRANCH  10  14
ATOM     14  O   LIG A   1      -2.586   1.679  -0.809  0.00  0.00    -0.506 OA
ATOM     15  H   LIG A   1      -2.859   2.609  -0.791  0.00  0.00    +0.292 HD
ENDBRANCH  10  14
TORSDOF 2
