REMARK  Name = NuBBE_642
REMARK  16 active torsions:
REMARK  status: ('A' for Active; 'I' for Inactive)
REMARK    1  A    between atoms: O_1  and  C_2
REMARK    2  A    between atoms: C_2  and  C_3
REMARK    3  A    between atoms: C_3  and  C_4
REMARK    4  A    between atoms: C_4  and  C_5
REMARK    5  A    between atoms: C_5  and  C_6
REMARK    6  A    between atoms: C_6  and  C_7
REMARK    7  A    between atoms: C_7  and  C_8
REMARK    8  A    between atoms: C_8  and  C_9
REMARK    9  A    between atoms: C_9  and  C_10
REMARK   10  A    between atoms: C_10  and  C_11
REMARK   11  A    between atoms: C_11  and  C_12
REMARK   12  A    between atoms: C_12  and  C_13
REMARK   13  A    between atoms: C_13  and  C_14
REMARK   14  A    between atoms: C_14  and  C_15
REMARK   15  A    between atoms: C_15  and  C_16
REMARK   16  A    between atoms: C_16  and  C_17
REMARK                            x       y       z     vdW  Elec       q    Type
REMARK                         _______ _______ _______ _____ _____    ______ ____
ROOT
ATOM      1  C   LIG A   1      -0.306  -2.424  -2.007  0.00  0.00    -0.000 C 
ENDROOT
BRANCH   1   2
ATOM      2  C   LIG A   1      -0.064  -3.868  -1.523  0.00  0.00    -0.000 C 
BRANCH   2   3
ATOM      3  C   LIG A   1       0.922  -4.028  -0.351  0.00  0.00    -0.000 C 
BRANCH   3   4
ATOM      4  C   LIG A   1       0.487  -3.397   0.978  0.00  0.00    -0.000 C 
BRANCH   4   5
ATOM      5  C   LIG A   1       1.516  -3.546   2.075  0.00  0.00    -0.000 C 
BRANCH   5   6
ATOM      6  C   LIG A   1       1.130  -2.869   3.406  0.00  0.00    -0.000 C 
BRANCH   6   7
ATOM      7  C   LIG A   1       0.989  -1.323   3.409  0.00  0.00    +0.000 C 
BRANCH   7   8
ATOM      8  C   LIG A   1       0.685  -0.791   4.828  0.00  0.00    +0.000 C 
BRANCH   8   9
ATOM      9  C   LIG A   1       0.455   0.728   4.967  0.00  0.00    +0.011 C 
BRANCH   9  10
ATOM     10  C   LIG A   1      -0.774   1.276   4.252  0.00  0.00    +0.120 C 
BRANCH  10  11
ATOM     11  C   LIG A   1      -0.924   2.779   4.495  0.00  0.00    +0.305 C 
ATOM     12  O   LIG A   1      -1.529   3.276   5.408  0.00  0.00    -0.251 OA
BRANCH  11  13
ATOM     13  O   LIG A   1      -0.262   3.511   3.556  0.00  0.00    -0.481 OA
ATOM     14  H   LIG A   1       0.200   2.983   2.883  0.00  0.00    +0.295 HD
ENDBRANCH  11  13
ENDBRANCH  10  11
ENDBRANCH   9  10
ENDBRANCH   8   9
ENDBRANCH   7   8
ENDBRANCH   6   7
ENDBRANCH   5   6
ENDBRANCH   4   5
ENDBRANCH   3   4
ENDBRANCH   2   3
ENDBRANCH   1   2
BRANCH   1  15
ATOM     15  C   LIG A   1      -0.996  -1.553  -0.959  0.00  0.00    +0.000 C 
BRANCH  15  16
ATOM     16  C   LIG A   1      -1.227  -0.090  -1.253  0.00  0.00    +0.000 C 
BRANCH  16  17
ATOM     17  C   LIG A   1      -2.178   0.100  -2.405  0.00  0.00    +0.005 C 
BRANCH  17  18
ATOM     18  C   LIG A   1      -2.441   1.568  -2.700  0.00  0.00    +0.035 C 
BRANCH  18  19
ATOM     19  C   LIG A   1      -1.224   2.387  -3.074  0.00  0.00    -0.044 A 
ATOM     20  C   LIG A   1      -0.436   2.111  -4.206  0.00  0.00    +0.053 A 
ATOM     21  C   LIG A   1       0.608   2.974  -4.495  0.00  0.00    +0.167 A 
ATOM     22  O   LIG A   1       1.501   2.850  -5.516  0.00  0.00    -0.453 OA
ATOM     23  C   LIG A   1       2.294   4.045  -5.336  0.00  0.00    +0.466 C 
ATOM     24  O   LIG A   1       1.904   4.825  -4.190  0.00  0.00    -0.453 OA
ATOM     25  C   LIG A   1       0.855   4.092  -3.733  0.00  0.00    +0.166 A 
ATOM     26  C   LIG A   1       0.115   4.385  -2.614  0.00  0.00    +0.050 A 
ATOM     27  C   LIG A   1      -0.903   3.499  -2.263  0.00  0.00    +0.007 A 
ENDBRANCH  18  19
ENDBRANCH  17  18
ENDBRANCH  16  17
ENDBRANCH  15  16
ENDBRANCH   1  15
TORSDOF 16
