@<TRIPOS>MOLECULE
NuBBE_588
 49 52 0 0 0
SMALL
GASTEIGER

@<TRIPOS>ATOM
      1 O          -3.7938   -0.2930    0.0628 O.2     1  LIG1       -0.2917
      2 C          -2.6091   -0.5040    0.3519 C.2     1  LIG1        0.1668
      3 C          -2.0429   -1.9031    0.3118 C.3     1  LIG1        0.0251
      4 H          -2.8065   -2.5585    0.7504 H       1  LIG1        0.0382
      5 C          -0.7687   -2.0457    1.1706 C.3     1  LIG1        0.0030
      6 H          -0.3190   -3.0225    0.9482 H       1  LIG1        0.0339
      7 C           0.2877   -0.9217    0.9130 C.3     1  LIG1        0.1199
      8 O           1.2642   -1.0107    1.9672 O.3     1  LIG1       -0.3790
      9 C          -0.3698    0.4557    0.9817 C.ar    1  LIG1        0.0027
     10 C          -1.7232    0.6431    0.6867 C.ar    1  LIG1        0.0276
     11 C          -2.2832    1.9308    0.6859 C.ar    1  LIG1       -0.0055
     12 C          -1.4932    3.0528    0.9590 C.ar    1  LIG1        0.1622
     13 C          -0.1307    2.8837    1.2470 C.ar    1  LIG1        0.1619
     14 O           0.5979    4.0151    1.5157 O.3     1  LIG1       -0.4914
     15 C           1.9891    3.9500    1.2176 C.3     1  LIG1        0.0790
     16 C           0.4154    1.5955    1.2655 C.ar    1  LIG1       -0.0094
     17 O          -1.9964    4.3272    1.0202 O.3     1  LIG1       -0.4914
     18 C          -3.0240    4.6437    0.0861 C.3     1  LIG1        0.0790
     19 C           1.0983   -1.1487   -0.3787 C.ar    1  LIG1       -0.0077
     20 C           1.1135   -0.2118   -1.4486 C.ar    1  LIG1       -0.0518
     21 C           1.8706   -0.4210   -2.6067 C.ar    1  LIG1       -0.0158
     22 C           2.6098   -1.5756   -2.6877 C.ar    1  LIG1        0.1662
     23 O           3.3975   -1.9403   -3.7329 O.3     1  LIG1       -0.4526
     24 C           3.9273   -3.1897   -3.2458 C.3     1  LIG1        0.2332
     25 O           3.4184   -3.5621   -1.9473 O.3     1  LIG1       -0.4526
     26 C           2.6198   -2.4963   -1.6700 C.ar    1  LIG1        0.1666
     27 C           1.8890   -2.3118   -0.5123 C.ar    1  LIG1       -0.0099
     28 C          -1.1704   -2.1491    2.6619 C.3     1  LIG1       -0.0585
     29 C          -1.8760   -2.3320   -1.1421 C.3     1  LIG1       -0.0550
     30 H           0.9230   -0.5273    2.7389 H       1  LIG1        0.2111
     31 H          -3.3432    2.0359    0.4809 H       1  LIG1        0.0662
     32 H           2.4061    4.9548    1.3344 H       1  LIG1        0.0660
     33 H           2.1566    3.6333    0.1819 H       1  LIG1        0.0660
     34 H           2.5171    3.2962    1.9189 H       1  LIG1        0.0660
     35 H           1.4715    1.4503    1.4801 H       1  LIG1        0.0659
     36 H          -3.3292    5.6792    0.2675 H       1  LIG1        0.0660
     37 H          -3.9165    4.0255    0.2157 H       1  LIG1        0.0660
     38 H          -2.6472    4.5763   -0.9399 H       1  LIG1        0.0660
     39 H           0.5365    0.7090   -1.4032 H       1  LIG1        0.0622
     40 H           1.8768    0.3053   -3.4115 H       1  LIG1        0.0655
     41 H           5.0184   -3.1044   -3.1835 H       1  LIG1        0.1166
     42 H           3.6768   -3.9795   -3.9633 H       1  LIG1        0.1166
     43 H           1.9461   -3.0496    0.2826 H       1  LIG1        0.0659
     44 H          -1.5838   -1.2110    3.0446 H       1  LIG1        0.0234
     45 H          -0.3132   -2.4245    3.2850 H       1  LIG1        0.0234
     46 H          -1.9246   -2.9310    2.8062 H       1  LIG1        0.0234
     47 H          -1.4013   -1.5612   -1.7546 H       1  LIG1        0.0237
     48 H          -2.8608   -2.5176   -1.5873 H       1  LIG1        0.0237
     49 H          -1.3005   -3.2596   -1.2244 H       1  LIG1        0.0237
@<TRIPOS>BOND
     1     1     2    2
     2     2     3    1
     3     3     5    1
     4     5     7    1
     5     7     8    1
     6     7     9    1
     7     9    10   ar
     8     2    10    1
     9    10    11   ar
    10    11    12   ar
    11    12    13   ar
    12    13    14    1
    13    14    15    1
    14    13    16   ar
    15     9    16   ar
    16    12    17    1
    17    17    18    1
    18     7    19    1
    19    19    20   ar
    20    20    21   ar
    21    21    22   ar
    22    22    23    1
    23    23    24    1
    24    24    25    1
    25    25    26    1
    26    22    26   ar
    27    26    27   ar
    28    19    27   ar
    29     3    29    1
    30     3     4    1
    31     5    28    1
    32     5     6    1
    33     8    30    1
    34    11    31    1
    35    15    32    1
    36    15    33    1
    37    15    34    1
    38    16    35    1
    39    18    36    1
    40    18    37    1
    41    18    38    1
    42    20    39    1
    43    21    40    1
    44    24    41    1
    45    24    42    1
    46    27    43    1
    47    28    44    1
    48    28    45    1
    49    28    46    1
    50    29    47    1
    51    29    48    1
    52    29    49    1
