@<TRIPOS>MOLECULE
NuBBE_2311
 53 56 0 0 0
SMALL
GASTEIGER

@<TRIPOS>ATOM
      1 C           0.8683    3.0615   -1.9074 C.ar    1  LIG1        0.0000
      2 C          -0.1118    3.4456   -2.7976 C.ar    1  LIG1        0.0000
      3 C          -1.3187    2.8716   -2.8176 C.ar    1  LIG1        0.0000
      4 C          -1.6839    1.8450   -1.9366 C.ar    1  LIG1        0.0000
      5 C          -0.7290    1.4058   -0.9702 C.ar    1  LIG1        0.0000
      6 C          -1.1260    0.3272    0.1281 C.3     1  LIG1        0.0000
      7 H          -2.2065    0.4702    0.3310 H       1  LIG1        0.0000
      8 C          -0.8532   -1.1153   -0.3718 C.3     1  LIG1        0.0000
      9 H          -1.1030   -1.0889   -1.4430 H       1  LIG1        0.0000
     10 C           0.6634   -1.3873    0.0189 C.3     1  LIG1        0.0000
     11 C           0.7482   -2.2978    1.2363 C.2     1  LIG1        0.0000
     12 C           0.1715   -1.9459    2.3959 C.2     1  LIG1        0.0000
     13 O           0.2516   -2.7415    3.4921 O.2     1  LIG1        0.0000
     14 C          -0.7135   -2.8026    4.4677 C.3     1  LIG1        0.0000
     15 C          -0.5134   -0.6139    2.5352 C.3     1  LIG1        0.0000
     16 H          -0.0793   -0.3328    3.5045 H       1  LIG1        0.0000
     17 C          -0.1655    0.4429    1.3686 C.3     1  LIG1        0.0000
     18 C           1.1596    0.0020    0.6175 C.3     1  LIG1        0.0000
     19 O           2.2572   -0.0832    1.4930 O.3     1  LIG1        0.0000
     20 O          -0.1300    1.8130    1.8210 O.3     1  LIG1        0.0000
     21 C           0.1716    2.8075    0.8451 C.3     1  LIG1        0.0000
     22 O          -1.8918   -0.8167    2.7204 O.3     1  LIG1        0.0000
     23 AC         -3.0485    1.3423    2.9526 Ac      1  LIG1        0.0000
     24 C           1.3291   -2.1579   -1.1915 C.3     1  LIG1        0.0000
     25 C           2.7635   -2.5826   -1.1772 C.2     1  LIG1        0.0000
     26 C           3.0481   -3.7994   -0.6812 C.2     1  LIG1        0.0000
     27 C          -1.8307   -2.2587    0.0021 C.3     1  LIG1        0.0000
     28 C           0.5684    2.0489   -0.9955 C.ar    1  LIG1        0.0000
     29 O          -2.0509    3.4637   -3.7697 O.3     1  LIG1        0.0000
     30 C          -1.2747    4.4636   -4.3718 C.3     1  LIG1        0.0000
     31 O          -0.0440    4.4008   -3.7160 O.3     1  LIG1        0.0000
     32 H           1.8350    3.5496   -1.8990 H       1  LIG1        0.0000
     33 H          -2.6781    1.4222   -1.9810 H       1  LIG1        0.0000
     34 H           1.3072   -3.2225    1.1826 H       1  LIG1        0.0000
     35 H          -0.4720   -3.6379    5.1535 H       1  LIG1        0.0000
     36 H          -1.7266   -2.9702    4.0538 H       1  LIG1        0.0000
     37 H          -0.6894   -1.8473    5.0300 H       1  LIG1        0.0000
     38 H           1.4299    0.7439   -0.1611 H       1  LIG1        0.0000
     39 H           3.0493   -0.2816    0.9306 H       1  LIG1        0.0000
     40 H           0.1728    3.8111    1.3108 H       1  LIG1        0.0000
     41 H          -0.6032    2.8474    0.0475 H       1  LIG1        0.0000
     42 H           1.1962    2.6895    0.4209 H       1  LIG1        0.0000
     43 H           0.7177   -3.0360   -1.4867 H       1  LIG1        0.0000
     44 H           1.2499   -1.5297   -2.1042 H       1  LIG1        0.0000
     45 H           3.5540   -1.9530   -1.5650 H       1  LIG1        0.0000
     46 H           2.2477   -4.4365   -0.2977 H       1  LIG1        0.0000
     47 H           4.0615   -4.1773   -0.6519 H       1  LIG1        0.0000
     48 H          -1.8392   -2.5761    1.0552 H       1  LIG1        0.0000
     49 H          -1.5525   -3.1596   -0.5896 H       1  LIG1        0.0000
     50 H          -2.8703   -1.9782   -0.2608 H       1  LIG1        0.0000
     51 H           1.3517    1.8297   -0.2982 H       1  LIG1        0.0000
     52 H          -1.7326    5.4649   -4.2187 H       1  LIG1        0.0000
     53 H          -1.1352    4.2605   -5.4539 H       1  LIG1        0.0000
@<TRIPOS>BOND
     1     1     2   ar
     2     2     3   ar
     3     3     4   ar
     4     4     5   ar
     5     6     8    1
     6     8    10    1
     7    10    11    1
     8    11    12    2
     9    13    14    1
    10    12    15    1
    11    15    17    1
    12     6    17    1
    13    17    18    1
    14    10    18    1
    15    20    21    1
    16    22    23    1
    17    24    25    1
    18    25    26    2
    19     5    28   ar
    20     1    28   ar
    21     3    29    1
    22    29    30    1
    23    30    31    1
    24     2    31    1
    25    10    24    1
    26    12    13    1
    27    15    16    1
    28    15    22    1
    29    17    20    1
    30    18    19    1
    31     8    27    1
    32     8     9    1
    33     6     7    1
    34     6     5    1
    35     1    32    1
    36     4    33    1
    37    11    34    1
    38    14    35    1
    39    14    36    1
    40    14    37    1
    41    18    38    1
    42    19    39    1
    43    21    40    1
    44    21    41    1
    45    21    42    1
    46    24    43    1
    47    24    44    1
    48    25    45    1
    49    26    46    1
    50    26    47    1
    51    27    48    1
    52    27    49    1
    53    27    50    1
    54    28    51    1
    55    30    52    1
    56    30    53    1
