REMARK  Name = NuBBE_2384
REMARK  9 active torsions:
REMARK  status: ('A' for Active; 'I' for Inactive)
REMARK    1  A    between atoms: C_1  and  C_22
REMARK    2  A    between atoms: C_1  and  C_23
REMARK    3  A    between atoms: C_5  and  O_17
REMARK    4  A    between atoms: C_6  and  O_7
REMARK    5  A    between atoms: O_7  and  C_8
REMARK    6  A    between atoms: C_9  and  C_14
REMARK    7  A    between atoms: C_14  and  C_15
REMARK    8  A    between atoms: C_14  and  C_16
REMARK    9  A    between atoms: O_17  and  C_18
REMARK                            x       y       z     vdW  Elec       q    Type
REMARK                         _______ _______ _______ _____ _____    ______ ____
ROOT
ATOM      1  C   LIG A   1       2.134  -1.549   2.745  0.00  0.00    -0.032 C 
ATOM      2  C   LIG A   1       1.706  -0.676   1.513  0.00  0.00    +0.003 C 
ATOM      3  C   LIG A   1       0.242  -0.972   1.062  0.00  0.00    +0.027 C 
ATOM      4  C   LIG A   1      -0.217  -0.076  -0.089  0.00  0.00    +0.004 A 
ATOM      5  C   LIG A   1      -1.303  -0.444  -0.915  0.00  0.00    +0.165 A 
ATOM      6  C   LIG A   1      -1.795   0.432  -1.908  0.00  0.00    +0.165 A 
ATOM      7  C   LIG A   1      -1.224   1.699  -2.100  0.00  0.00    +0.001 A 
ATOM      8  C   LIG A   1      -0.103   2.030  -1.316  0.00  0.00    +0.011 A 
ATOM      9  C   LIG A   1       0.390   1.169  -0.312  0.00  0.00    -0.040 A 
ATOM     10  C   LIG A   1       1.594   1.627   0.470  0.00  0.00    +0.036 C 
ATOM     11  C   LIG A   1       1.860   0.839   1.748  0.00  0.00    +0.009 C 
ATOM     12  C   LIG A   1      -0.747  -0.866   2.243  0.00  0.00    +0.008 C 
ATOM     13  C   LIG A   1      -0.326  -1.694   3.454  0.00  0.00    +0.001 C 
ATOM     14  C   LIG A   1       1.107  -1.409   3.891  0.00  0.00    +0.007 C 
ATOM     15  C   LIG A   1       2.252  -3.034   2.326  0.00  0.00    +0.011 C 
ATOM     16  C   LIG A   1       3.524  -1.140   3.282  0.00  0.00    +0.011 C 
ENDROOT
BRANCH   7  17
ATOM     17  C   LIG A   1      -1.811   2.724  -3.065  0.00  0.00    +0.017 C 
ATOM     18  C   LIG A   1      -2.227   4.012  -2.341  0.00  0.00    +0.012 C 
ATOM     19  C   LIG A   1      -0.862   3.060  -4.220  0.00  0.00    +0.012 C 
ENDBRANCH   7  17
BRANCH   6  20
ATOM     20  O   LIG A   1      -2.926   0.084  -2.608  0.00  0.00    -0.491 OA
ATOM     21  C   LIG A   1      -2.600  -0.549  -3.845  0.00  0.00    +0.277 C 
ENDBRANCH   6  20
BRANCH   5  22
ATOM     22  O   LIG A   1      -1.970  -1.618  -0.663  0.00  0.00    -0.491 OA
ATOM     23  C   LIG A   1      -1.448  -2.701  -1.431  0.00  0.00    +0.277 C 
ENDBRANCH   5  22
TORSDOF 3
