REMARK  Name = NuBBE_1572
REMARK  6 active torsions:
REMARK  status: ('A' for Active; 'I' for Inactive)
REMARK    1  A    between atoms: C_1  and  O_3
REMARK    2  A    between atoms: C_1  and  C_5
REMARK    3  A    between atoms: O_3  and  C_4
REMARK    4  A    between atoms: C_8  and  C_33
REMARK    5  A    between atoms: C_25  and  O_27
REMARK    6  A    between atoms: O_27  and  C_28
REMARK                            x       y       z     vdW  Elec       q    Type
REMARK                         _______ _______ _______ _____ _____    ______ ____
ROOT
ATOM      1  C   LIG A   1       1.767  -0.412  -3.067  0.00  0.00    +0.074 C 
ATOM      2  C   LIG A   1       2.182   0.600  -3.852  0.00  0.00    +0.198 C 
ATOM      3  O   LIG A   1       3.110   1.553  -3.522  0.00  0.00    -0.496 OA
ATOM      4  C   LIG A   1       3.853   1.289  -2.323  0.00  0.00    +0.174 C 
ATOM      5  C   LIG A   1       2.954   0.760  -1.192  0.00  0.00    +0.051 C 
ATOM      6  C   LIG A   1       2.321  -0.577  -1.663  0.00  0.00    +0.039 C 
ATOM      7  C   LIG A   1       1.341  -1.052  -0.576  0.00  0.00    +0.034 C 
ATOM      8  C   LIG A   1       0.289   0.012  -0.264  0.00  0.00    +0.104 C 
ATOM      9  C   LIG A   1      -0.702  -0.452   0.754  0.00  0.00    +0.038 A 
ATOM     10  C   LIG A   1      -1.199   0.315   1.785  0.00  0.00    -0.016 A 
ATOM     11  C   LIG A   1      -2.136  -0.469   2.494  0.00  0.00    +0.007 A 
ATOM     12  C   LIG A   1      -2.205  -1.709   1.859  0.00  0.00    +0.047 A 
ATOM     13  N   LIG A   1      -1.329  -1.670   0.793  0.00  0.00    -0.356 N 
ATOM     14  H   LIG A   1      -1.179  -2.432   0.145  0.00  0.00    +0.166 HD
ATOM     15  C   LIG A   1      -3.051  -2.730   2.307  0.00  0.00    +0.030 A 
ATOM     16  C   LIG A   1      -3.840  -2.464   3.436  0.00  0.00    +0.048 A 
ATOM     17  C   LIG A   1      -3.775  -1.237   4.100  0.00  0.00    +0.121 A 
ATOM     18  C   LIG A   1      -2.937  -0.228   3.621  0.00  0.00    +0.056 A 
ATOM     19  C   LIG A   1      -0.726   1.707   2.014  0.00  0.00    +0.053 C 
ATOM     20  C   LIG A   1       0.039   2.224   0.772  0.00  0.00    +0.090 C 
ATOM     21  N   LIG A   1       0.993   1.215   0.253  0.00  0.00    -0.293 NA
ATOM     22  C   LIG A   1       1.874   1.784  -0.768  0.00  0.00    +0.092 C 
ATOM     23  C   LIG A   1       4.593   2.570  -1.954  0.00  0.00    +0.052 C 
ENDROOT
BRANCH   1  24
ATOM     24  C   LIG A   1       0.784  -1.386  -3.614  0.00  0.00    +0.338 C 
ATOM     25  O   LIG A   1       0.606  -2.507  -3.151  0.00  0.00    -0.245 OA
BRANCH  24  26
ATOM     26  O   LIG A   1       0.097  -0.854  -4.655  0.00  0.00    -0.465 OA
ATOM     27  C   LIG A   1      -0.874  -1.720  -5.245  0.00  0.00    +0.280 C 
ENDBRANCH  24  26
ENDBRANCH   1  24
BRANCH  17  28
ATOM     28  O   LIG A   1      -4.592  -1.099   5.192  0.00  0.00    -0.495 OA
ATOM     29  C   LIG A   1      -4.150  -0.144   6.155  0.00  0.00    +0.277 C 
ENDBRANCH  17  28
TORSDOF 3
