REMARK  Name = NuBBE_1342
REMARK  10 active torsions:
REMARK  status: ('A' for Active; 'I' for Inactive)
REMARK    1  A    between atoms: O_1  and  C_2
REMARK    2  A    between atoms: C_3  and  C_9
REMARK    3  A    between atoms: C_5  and  C_6
REMARK    4  A    between atoms: C_9  and  C_10
REMARK    5  A    between atoms: C_9  and  C_13
REMARK    6  A    between atoms: C_10  and  C_11
REMARK    7  A    between atoms: C_10  and  C_12
REMARK    8  A    between atoms: C_13  and  C_14
REMARK    9  A    between atoms: C_14  and  C_15
REMARK   10  A    between atoms: C_15  and  C_16
REMARK                            x       y       z     vdW  Elec       q    Type
REMARK                         _______ _______ _______ _____ _____    ______ ____
ROOT
ATOM      1  C   LIG A   1      -0.390  -1.762  -1.151  0.00  0.00    +0.120 A 
ATOM      2  C   LIG A   1      -0.302  -0.818  -0.116  0.00  0.00    -0.002 A 
ATOM      3  C   LIG A   1       0.474  -1.154   1.011  0.00  0.00    +0.010 A 
ATOM      4  C   LIG A   1       1.117  -2.399   1.114  0.00  0.00    -0.050 A 
ATOM      5  C   LIG A   1       1.937  -2.757   2.319  0.00  0.00    +0.044 C 
ATOM      6  C   LIG A   1       0.978  -3.326   0.078  0.00  0.00    +0.007 A 
ATOM      7  C   LIG A   1       0.234  -3.007  -1.056  0.00  0.00    +0.046 A 
ENDROOT
BRANCH   1   8
ATOM      8  O   LIG A   1      -1.097  -1.454  -2.279  0.00  0.00    -0.506 OA
ATOM      9  H   LIG A   1      -1.059  -2.212  -2.886  0.00  0.00    +0.292 HD
ENDBRANCH   1   8
BRANCH   2  10
ATOM     10  C   LIG A   1      -1.027   0.531  -0.199  0.00  0.00    +0.026 C 
BRANCH  10  11
ATOM     11  C   LIG A   1      -2.052   0.712   0.979  0.00  0.00    -0.010 C 
ATOM     12  C   LIG A   1      -2.795   2.056   0.931  0.00  0.00    +0.008 C 
ATOM     13  C   LIG A   1      -3.114  -0.400   1.009  0.00  0.00    +0.008 C 
ENDBRANCH  10  11
BRANCH  10  14
ATOM     14  C   LIG A   1      -0.005   1.700  -0.277  0.00  0.00    +0.016 C 
BRANCH  14  15
ATOM     15  C   LIG A   1       0.922   1.631  -1.496  0.00  0.00    +0.075 C 
BRANCH  15  16
ATOM     16  C   LIG A   1       1.888   2.808  -1.507  0.00  0.00    +0.130 C 
ATOM     17  C   LIG A   1       3.365   2.491  -1.498  0.00  0.00    +0.086 C 
ATOM     18  O   LIG A   1       1.490   3.968  -1.569  0.00  0.00    -0.298 OA
ENDBRANCH  15  16
ENDBRANCH  14  15
ENDBRANCH  10  14
ENDBRANCH   2  10
TORSDOF 6
