@<TRIPOS>MOLECULE
NuBBE_2047
 43 46 0 0 0
SMALL
GASTEIGER

@<TRIPOS>ATOM
      1 O          -4.2058    2.5127   -0.2761 O.3     1  LIG1       -0.5033
      2 C          -2.8492    2.6690   -0.2044 C.ar    1  LIG1        0.1590
      3 C          -2.0482    1.5951   -0.5895 C.ar    1  LIG1       -0.0063
      4 C          -0.6512    1.6770   -0.4911 C.ar    1  LIG1        0.0387
      5 C           0.1987    0.5395   -0.9666 C.3     1  LIG1        0.1388
      6 H          -0.0151    0.3621   -2.0309 H       1  LIG1        0.0793
      7 C           1.6998    0.7597   -0.7727 C.3     1  LIG1        0.0632
      8 H           2.1344    1.1620   -1.6953 H       1  LIG1        0.0423
      9 C           2.0972   -0.6512   -0.5159 C.ar    1  LIG1        0.0118
     10 C           0.9674   -1.4186   -0.2154 C.ar    1  LIG1        0.1704
     11 O          -0.1803   -0.6605   -0.2501 O.3     1  LIG1       -0.4793
     12 C           1.0301   -2.7822    0.0723 C.ar    1  LIG1        0.2076
     13 O          -0.0358   -3.5949    0.3331 O.3     1  LIG1       -0.4884
     14 C          -1.3431   -3.0395    0.3383 C.3     1  LIG1        0.0791
     15 C           2.3081   -3.3709    0.0374 C.ar    1  LIG1        0.2070
     16 C           3.4353   -2.5852   -0.3006 C.ar    1  LIG1        0.1627
     17 C           3.3509   -1.2240   -0.5658 C.ar    1  LIG1       -0.0091
     18 O           4.6728   -3.1717   -0.3782 O.3     1  LIG1       -0.5032
     19 O           2.6238   -4.6956    0.2483 O.3     1  LIG1       -0.4884
     20 C           1.7766   -5.4270    1.1277 C.3     1  LIG1        0.0791
     21 C           1.9461    1.7102    0.3904 C.3     1  LIG1        0.1002
     22 O           1.2828    2.9689    0.1861 O.3     1  LIG1       -0.4907
     23 C          -0.0716    2.8345    0.0285 C.ar    1  LIG1        0.1309
     24 C          -0.8726    3.9224    0.3813 C.ar    1  LIG1        0.0258
     25 C          -2.2693    3.8539    0.2567 C.ar    1  LIG1        0.1648
     26 O          -2.9222    4.9856    0.6717 O.3     1  LIG1       -0.4913
     27 C          -4.1890    5.2418    0.0770 C.3     1  LIG1        0.0790
     28 H          -4.4096    1.5781   -0.4388 H       1  LIG1        0.2923
     29 H          -2.4922    0.6784   -0.9654 H       1  LIG1        0.0660
     30 H          -2.0468   -3.8541    0.5369 H       1  LIG1        0.0660
     31 H          -1.6048   -2.6227   -0.6395 H       1  LIG1        0.0660
     32 H          -1.4596   -2.3062    1.1426 H       1  LIG1        0.0660
     33 H           4.2379   -0.6532   -0.8177 H       1  LIG1        0.0659
     34 H           4.5103   -4.1201   -0.2040 H       1  LIG1        0.2923
     35 H           2.3342   -6.3069    1.4639 H       1  LIG1        0.0660
     36 H           0.8911   -5.7927    0.5996 H       1  LIG1        0.0660
     37 H           1.5097   -4.8489    2.0189 H       1  LIG1        0.0660
     38 H           3.0186    1.9185    0.4783 H       1  LIG1        0.0704
     39 H           1.6327    1.2915    1.3566 H       1  LIG1        0.0704
     40 H          -0.4109    4.8294    0.7611 H       1  LIG1        0.0692
     41 H          -4.4846    6.2580    0.3570 H       1  LIG1        0.0660
     42 H          -4.9616    4.5764    0.4702 H       1  LIG1        0.0660
     43 H          -4.1345    5.2012   -1.0161 H       1  LIG1        0.0660
@<TRIPOS>BOND
     1     1     2    1
     2     2     3   ar
     3     3     4   ar
     4     4     5    1
     5     5     6    1
     6     5     7    1
     7     7     8    1
     8     7     9    1
     9     9    10   ar
    10    10    11    1
    11     5    11    1
    12    10    12   ar
    13    12    13    1
    14    13    14    1
    15    12    15   ar
    16    15    16   ar
    17    16    17   ar
    18     9    17   ar
    19    16    18    1
    20    15    19    1
    21    19    20    1
    22     7    21    1
    23    21    22    1
    24    22    23    1
    25     4    23   ar
    26    23    24   ar
    27    24    25   ar
    28     2    25   ar
    29    25    26    1
    30    26    27    1
    31     1    28    1
    32     3    29    1
    33    14    30    1
    34    14    31    1
    35    14    32    1
    36    17    33    1
    37    18    34    1
    38    20    35    1
    39    20    36    1
    40    20    37    1
    41    21    38    1
    42    21    39    1
    43    24    40    1
    44    27    41    1
    45    27    42    1
    46    27    43    1
