@<TRIPOS>MOLECULE
NuBBE_1528
 33 35 0 0 0
SMALL
GASTEIGER

@<TRIPOS>ATOM
      1 C          -0.4634    0.6840    2.5733 C.3     1  LIG1       -0.0516
      2 C          -0.3571    0.3485    1.0631 C.3     1  LIG1        0.0409
      3 C          -0.5616    1.6360    0.2481 C.3     1  LIG1        0.1407
      4 H          -1.3078    2.2736    0.7406 H       1  LIG1        0.0795
      5 O           0.7017    2.3304    0.3541 O.3     1  LIG1       -0.4523
      6 C           1.7126    1.4366    0.5699 C.2     1  LIG1        0.3364
      7 O           2.8933    1.7141    0.6320 O.2     1  LIG1       -0.2453
      8 C           1.0829    0.0989    0.7192 C.2     1  LIG1        0.0453
      9 C           1.6208   -1.1001    0.4324 C.2     1  LIG1       -0.0620
     10 C           3.0580   -1.3591    0.0826 C.3     1  LIG1       -0.0430
     11 C           0.7125   -2.3058    0.3611 C.3     1  LIG1       -0.0312
     12 C          -0.6943   -1.9196   -0.1092 C.3     1  LIG1       -0.0484
     13 C          -1.3086   -0.8352    0.7757 C.3     1  LIG1       -0.0394
     14 C          -0.9788    1.4778   -1.1866 C.ar    1  LIG1        0.0313
     15 C          -2.3007    1.6017   -1.7109 C.ar    1  LIG1       -0.0172
     16 C          -2.2110    1.3803   -3.0645 C.ar    1  LIG1        0.0921
     17 O          -0.9253    1.1365   -3.4178 O.2     1  LIG1       -0.4706
     18 C          -0.1831    1.2089   -2.2847 C.ar    1  LIG1        0.0984
     19 H           0.1622    1.5359    2.8639 H       1  LIG1        0.0240
     20 H          -0.1541   -0.1685    3.1901 H       1  LIG1        0.0240
     21 H          -1.4968    0.9347    2.8400 H       1  LIG1        0.0240
     22 H           3.7034   -0.4883    0.2056 H       1  LIG1        0.0275
     23 H           3.1391   -1.6894   -0.9582 H       1  LIG1        0.0275
     24 H           3.4602   -2.1486    0.7266 H       1  LIG1        0.0275
     25 H           0.6745   -2.7917    1.3432 H       1  LIG1        0.0310
     26 H           1.1146   -3.0390   -0.3485 H       1  LIG1        0.0310
     27 H          -1.3391   -2.8061   -0.1039 H       1  LIG1        0.0269
     28 H          -0.6525   -1.5714   -1.1481 H       1  LIG1        0.0269
     29 H          -1.5856   -1.3245    1.7200 H       1  LIG1        0.0275
     30 H          -2.2571   -0.4906    0.3495 H       1  LIG1        0.0275
     31 H          -3.2084    1.8252   -1.1672 H       1  LIG1        0.0653
     32 H          -2.9290    1.3666   -3.8727 H       1  LIG1        0.1029
     33 H           0.8786    1.0482   -2.4185 H       1  LIG1        0.1033
@<TRIPOS>BOND
     1     1     2    1
     2     2     3    1
     3     3     4    1
     4     3     5    1
     5     5     6    1
     6     6     7    2
     7     6     8    1
     8     2     8    1
     9     8     9    2
    10     9    10    1
    11     9    11    1
    12    11    12    1
    13    12    13    1
    14     2    13    1
    15     3    14    1
    16    14    15   ar
    17    15    16   ar
    18    16    17   ar
    19    17    18   ar
    20    14    18   ar
    21     1    19    1
    22     1    20    1
    23     1    21    1
    24    10    22    1
    25    10    23    1
    26    10    24    1
    27    11    25    1
    28    11    26    1
    29    12    27    1
    30    12    28    1
    31    13    29    1
    32    13    30    1
    33    15    31    1
    34    16    32    1
    35    18    33    1
