@<TRIPOS>MOLECULE
NuBBE_228
 86 88 0 0 0
SMALL
GASTEIGER

@<TRIPOS>ATOM
      1 C          -2.7802    0.8451    2.2157 C.3     1  LIG1       -0.0584
      2 C          -1.4488    0.6992    1.4557 C.3     1  LIG1        0.0018
      3 H          -1.7488    0.0410    0.6393 H       1  LIG1        0.0340
      4 C          -0.3861   -0.0924    2.2345 C.3     1  LIG1        0.1328
      5 H          -0.1667    0.3696    3.2045 H       1  LIG1        0.0763
      6 O          -0.9465   -1.4171    2.4379 O.3     1  LIG1       -0.4584
      7 C          -1.6874   -1.6557    3.5636 C.2     1  LIG1        0.3074
      8 C          -2.6001   -2.8481    3.3157 C.3     1  LIG1        0.0447
      9 C          -1.9701   -3.9050    2.4118 C.3     1  LIG1       -0.0458
     10 C          -2.9131   -5.0590    2.1300 C.3     1  LIG1       -0.0648
     11 O          -1.7294   -0.9501    4.5358 O.2     1  LIG1       -0.2508
     12 C           0.9400   -0.3074    1.4504 C.3     1  LIG1        0.1078
     13 H           1.0837   -1.3964    1.4435 H       1  LIG1        0.0641
     14 O           2.0423    0.1551    2.2378 O.3     1  LIG1       -0.3870
     15 C           1.0333    0.2252   -0.0358 C.3     1  LIG1        0.0926
     16 C           0.7147   -1.0021   -0.8773 C.2     1  LIG1        0.0115
     17 C           1.9529   -1.8679   -0.9391 C.3     1  LIG1        0.2315
     18 H           1.9624   -2.6610   -0.1752 H       1  LIG1        0.1111
     19 O           2.0885   -2.4203   -2.2508 O.3     1  LIG1       -0.4309
     20 C           1.4080   -3.5742   -2.4098 C.2     1  LIG1        0.3095
     21 C           1.2301   -3.7880   -3.9257 C.3     1  LIG1        0.0448
     22 C           2.3492   -4.6106   -4.5255 C.3     1  LIG1       -0.0458
     23 C           2.1739   -4.7894   -6.0258 C.3     1  LIG1       -0.0648
     24 O           0.9386   -4.3066   -1.5341 O.2     1  LIG1       -0.2508
     25 O           3.0359   -0.9941   -0.5949 O.3     1  LIG1       -0.2971
     26 C           2.5350    0.3587   -0.4784 C.3     1  LIG1        0.2205
     27 H           3.1090    0.8781    0.2986 H       1  LIG1        0.1068
     28 O           2.7575    1.0371   -1.7283 O.3     1  LIG1       -0.4341
     29 C           4.0803    1.3483   -1.9227 C.2     1  LIG1        0.3061
     30 C           4.3536    1.7126   -3.3525 C.3     1  LIG1        0.0333
     31 O           4.9525    1.3340   -1.0657 O.2     1  LIG1       -0.2511
     32 C          -0.4097   -1.1829   -1.5872 C.2     1  LIG1       -0.0497
     33 C          -1.3202   -0.0537   -1.9167 C.3     1  LIG1        0.0772
     34 H          -2.2128   -0.1220   -1.2900 H       1  LIG1        0.0640
     35 O          -1.8155   -0.2185   -3.2530 O.3     1  LIG1       -0.3757
     36 C          -0.8461   -0.1744   -4.2926 C.3     1  LIG1        0.0372
     37 C          -0.6009    1.2928   -1.7261 C.3     1  LIG1       -0.0186
     38 C           0.1258    1.4938   -0.3533 C.3     1  LIG1       -0.0145
     39 H           0.8049    2.3417   -0.5232 H       1  LIG1        0.0318
     40 C          -0.8597    1.9862    0.8143 C.3     1  LIG1       -0.0186
     41 C          -2.0023    2.8622    0.2233 C.3     1  LIG1       -0.0586
     42 C          -0.0541    2.9197    1.8232 C.3     1  LIG1       -0.0282
     43 C          -0.8410    3.5034    2.9853 C.2     1  LIG1       -0.0806
     44 C          -0.8066    4.7237    3.5677 C.2     1  LIG1       -0.0549
     45 C           0.1581    5.7666    3.2425 C.2     1  LIG1       -0.0662
     46 C           0.2262    6.9798    3.8151 C.2     1  LIG1       -0.0985
     47 C          -1.8106    5.0288    4.6638 C.3     1  LIG1       -0.0400
     48 H          -2.6492    1.1593    3.2504 H       1  LIG1        0.0234
     49 H          -3.3067   -0.1147    2.2384 H       1  LIG1        0.0234
     50 H          -3.4780    1.5270    1.7274 H       1  LIG1        0.0234
     51 H          -3.5196   -2.4621    2.8591 H       1  LIG1        0.0377
     52 H          -2.8594   -3.2841    4.2859 H       1  LIG1        0.0377
     53 H          -1.0506   -4.2787    2.8764 H       1  LIG1        0.0268
     54 H          -1.6828   -3.4644    1.4493 H       1  LIG1        0.0268
     55 H          -3.2286   -5.5489    3.0553 H       1  LIG1        0.0230
     56 H          -2.4105   -5.8009    1.5012 H       1  LIG1        0.0230
     57 H          -3.8044   -4.7134    1.5962 H       1  LIG1        0.0230
     58 H           2.7286   -0.5414    2.2029 H       1  LIG1        0.2100
     59 H           1.1513   -2.8096   -4.4254 H       1  LIG1        0.0377
     60 H           0.2443   -4.2688   -4.0788 H       1  LIG1        0.0377
     61 H           2.3902   -5.5913   -4.0385 H       1  LIG1        0.0268
     62 H           3.3042   -4.1148   -4.3203 H       1  LIG1        0.0268
     63 H           1.3184   -5.4367   -6.2490 H       1  LIG1        0.0230
     64 H           3.0673   -5.2492   -6.4567 H       1  LIG1        0.0230
     65 H           2.0092   -3.8299   -6.5285 H       1  LIG1        0.0230
     66 H           4.1324    2.7660   -3.5368 H       1  LIG1        0.0342
     67 H           3.7699    1.0719   -4.0168 H       1  LIG1        0.0342
     68 H           5.4117    1.5239   -3.5693 H       1  LIG1        0.0342
     69 H          -0.6219   -2.1161   -2.0988 H       1  LIG1        0.0599
     70 H          -0.0469   -0.9001   -4.1274 H       1  LIG1        0.0524
     71 H          -0.4254    0.8277   -4.3960 H       1  LIG1        0.0524
     72 H          -1.3444   -0.4276   -5.2318 H       1  LIG1        0.0524
     73 H          -1.3058    2.0898   -1.9782 H       1  LIG1        0.0296
     74 H           0.1790    1.4061   -2.4869 H       1  LIG1        0.0296
     75 H          -2.7284    2.2533   -0.3295 H       1  LIG1        0.0235
     76 H          -1.6103    3.6302   -0.4521 H       1  LIG1        0.0235
     77 H          -2.5718    3.3900    0.9950 H       1  LIG1        0.0235
     78 H           0.8090    2.3817    2.2256 H       1  LIG1        0.0313
     79 H           0.3595    3.7454    1.2324 H       1  LIG1        0.0313
     80 H          -1.5521    2.8150    3.4303 H       1  LIG1        0.0575
     81 H           0.9165    5.5278    2.5010 H       1  LIG1        0.0614
     82 H          -0.4660    7.3191    4.5804 H       1  LIG1        0.0535
     83 H           1.0063    7.6848    3.5391 H       1  LIG1        0.0535
     84 H          -2.6686    4.3433    4.6398 H       1  LIG1        0.0277
     85 H          -2.2342    6.0352    4.5625 H       1  LIG1        0.0277
     86 H          -1.3321    4.9495    5.6457 H       1  LIG1        0.0277
@<TRIPOS>BOND
     1     2     4    1
     2     6     7    1
     3     7     8    1
     4     8     9    1
     5     9    10    1
     6     7    11    2
     7     4    12    1
     8    12    15    1
     9    15    16    1
    10    16    17    1
    11    19    20    1
    12    20    21    1
    13    21    22    1
    14    22    23    1
    15    20    24    2
    16    17    25    1
    17    25    26    1
    18    15    26    1
    19    28    29    1
    20    29    30    1
    21    29    31    2
    22    16    32    2
    23    32    33    1
    24    35    36    1
    25    33    37    1
    26    37    38    1
    27    15    38    1
    28    38    40    1
    29     2    40    1
    30    42    43    1
    31    43    44    2
    32    44    45    1
    33    45    46    2
    34    44    47    1
    35    12    13    1
    36    12    14    1
    37    17    18    1
    38    17    19    1
    39    26    27    1
    40    26    28    1
    41    38    39    1
    42    40    41    1
    43    40    42    1
    44     4     6    1
    45     4     5    1
    46     2     3    1
    47     2     1    1
    48    33    35    1
    49    33    34    1
    50     1    48    1
    51     1    49    1
    52     1    50    1
    53     8    51    1
    54     8    52    1
    55     9    53    1
    56     9    54    1
    57    10    55    1
    58    10    56    1
    59    10    57    1
    60    14    58    1
    61    21    59    1
    62    21    60    1
    63    22    61    1
    64    22    62    1
    65    23    63    1
    66    23    64    1
    67    23    65    1
    68    30    66    1
    69    30    67    1
    70    30    68    1
    71    32    69    1
    72    36    70    1
    73    36    71    1
    74    36    72    1
    75    37    73    1
    76    37    74    1
    77    41    75    1
    78    41    76    1
    79    41    77    1
    80    42    78    1
    81    42    79    1
    82    43    80    1
    83    45    81    1
    84    46    82    1
    85    46    83    1
    86    47    84    1
    87    47    85    1
    88    47    86    1
