REMARK  Name = NuBBE_2496
REMARK  7 active torsions:
REMARK  status: ('A' for Active; 'I' for Inactive)
REMARK    1  A    between atoms: C_1  and  C_2
REMARK    2  A    between atoms: C_2  and  C_3
REMARK    3  A    between atoms: C_4  and  C_5
REMARK    4  A    between atoms: C_14  and  C_15
REMARK    5  A    between atoms: C_14  and  C_16
REMARK    6  A    between atoms: C_17  and  O_19
REMARK    7  A    between atoms: C_22  and  C_23
REMARK                            x       y       z     vdW  Elec       q    Type
REMARK                         _______ _______ _______ _____ _____    ______ ____
ROOT
ATOM      1  C   LIG A   1      -0.034  -2.851   0.561  0.00  0.00    -0.041 A 
ATOM      2  C   LIG A   1       0.035  -3.607  -0.632  0.00  0.00    -0.047 A 
ATOM      3  C   LIG A   1      -0.070  -5.110  -0.649  0.00  0.00    +0.044 C 
ATOM      4  C   LIG A   1       0.200  -2.947  -1.852  0.00  0.00    +0.004 A 
ATOM      5  C   LIG A   1       0.327  -1.561  -1.905  0.00  0.00    +0.005 A 
ATOM      6  C   LIG A   1       0.276  -0.770  -0.746  0.00  0.00    -0.038 A 
ATOM      7  C   LIG A   1       0.090  -1.430   0.496  0.00  0.00    -0.040 A 
ATOM      8  C   LIG A   1       0.073  -0.577   1.740  0.00  0.00    +0.036 C 
ATOM      9  C   LIG A   1      -0.724   0.685   1.466  0.00  0.00    +0.009 C 
ATOM     10  C   LIG A   1      -0.016   1.578   0.430  0.00  0.00    +0.008 C 
ATOM     11  C   LIG A   1      -0.862   2.873   0.109  0.00  0.00    -0.005 C 
ATOM     12  C   LIG A   1      -0.918   3.783   1.368  0.00  0.00    +0.014 C 
ATOM     13  C   LIG A   1      -2.334   2.563  -0.258  0.00  0.00    +0.014 C 
ATOM     14  C   LIG A   1      -0.205   3.680  -1.038  0.00  0.00    +0.121 C 
ATOM     15  C   LIG A   1       0.112   2.875  -2.294  0.00  0.00    +0.033 C 
ATOM     16  C   LIG A   1       0.009   1.359  -2.151  0.00  0.00    +0.014 C 
ATOM     17  C   LIG A   1       0.537   0.762  -0.820  0.00  0.00    -0.003 C 
ATOM     18  C   LIG A   1       2.091   0.884  -0.838  0.00  0.00    +0.016 C 
ENDROOT
BRANCH   1  20
ATOM     19  C   LIG A   1       1.117  -3.745   2.626  0.00  0.00    +0.009 C 
ATOM     20  C   LIG A   1      -0.205  -3.568   1.891  0.00  0.00    +0.032 C 
ENDBRANCH   1  20
BRANCH  14  21
ATOM     21  O   LIG A   1       0.996   4.327  -0.603  0.00  0.00    -0.391 OA
ATOM     22  H   LIG A   1       1.583   3.666  -0.203  0.00  0.00    +0.210 HD
ENDBRANCH  14  21
TORSDOF 2
