REMARK  Name = NuBBE_2001
REMARK  12 active torsions:
REMARK  status: ('A' for Active; 'I' for Inactive)
REMARK    1  A    between atoms: C_1  and  C_2
REMARK    2  A    between atoms: C_7  and  C_9
REMARK    3  A    between atoms: C_12  and  O_13
REMARK    4  A    between atoms: O_13  and  C_14
REMARK    5  A    between atoms: C_14  and  C_15
REMARK    6  A    between atoms: C_16  and  O_17
REMARK    7  A    between atoms: O_17  and  C_18
REMARK    8  A    between atoms: C_22  and  O_23
REMARK    9  A    between atoms: C_24  and  C_25
REMARK   10  A    between atoms: C_26  and  O_27
REMARK   11  A    between atoms: O_27  and  C_28
REMARK   12  A    between atoms: C_28  and  C_29
REMARK                            x       y       z     vdW  Elec       q    Type
REMARK                         _______ _______ _______ _____ _____    ______ ____
ROOT
ATOM      1  C   LIG A   1      -2.894  -1.698  -1.398  0.00  0.00    +0.051 C 
ATOM      2  C   LIG A   1      -1.574  -1.341  -2.048  0.00  0.00    +0.034 A 
ATOM      3  C   LIG A   1      -1.294   0.004  -2.349  0.00  0.00    +0.142 A 
ATOM      4  C   LIG A   1      -0.115   0.357  -2.993  0.00  0.00    +0.101 A 
ATOM      5  C   LIG A   1       0.209   1.795  -3.206  0.00  0.00    +0.174 C 
ATOM      6  C   LIG A   1      -0.735   2.786  -2.586  0.00  0.00    +0.129 C 
ATOM      7  C   LIG A   1      -1.493   2.146  -1.431  0.00  0.00    +0.211 C 
ATOM      8  O   LIG A   1      -2.162   0.951  -1.874  0.00  0.00    -0.483 OA
ATOM      9  O   LIG A   1       1.177   2.123  -3.830  0.00  0.00    -0.292 OA
ATOM     10  C   LIG A   1       0.863  -0.603  -3.240  0.00  0.00    +0.137 A 
ATOM     11  C   LIG A   1       0.686  -1.934  -2.815  0.00  0.00    +0.034 A 
ATOM     12  C   LIG A   1       1.908  -2.805  -2.901  0.00  0.00    +0.051 C 
ATOM     13  C   LIG A   1      -0.559  -2.319  -2.256  0.00  0.00    +0.133 A 
ENDROOT
BRANCH   7  14
ATOM     14  C   LIG A   1      -0.739   1.978  -0.101  0.00  0.00    -0.003 A 
ATOM     15  C   LIG A   1       0.372   1.159   0.106  0.00  0.00    +0.011 A 
ATOM     16  C   LIG A   1       0.960   1.045   1.373  0.00  0.00    +0.050 A 
ATOM     17  C   LIG A   1       0.510   1.742   2.508  0.00  0.00    +0.162 A 
ATOM     18  C   LIG A   1      -0.593   2.584   2.323  0.00  0.00    +0.162 A 
ATOM     19  C   LIG A   1      -1.199   2.674   1.030  0.00  0.00    +0.056 A 
BRANCH  18  20
ATOM     20  O   LIG A   1      -1.300   3.327   3.230  0.00  0.00    -0.491 OA
ATOM     21  C   LIG A   1      -0.578   4.091   4.171  0.00  0.00    +0.277 C 
ENDBRANCH  18  20
BRANCH  17  22
ATOM     22  O   LIG A   1       1.302   1.371   3.558  0.00  0.00    -0.489 OA
BRANCH  22  23
ATOM     23  C   LIG A   1       1.084   1.667   4.918  0.00  0.00    +0.226 C 
ATOM     24  C   LIG A   1       1.371   0.500   5.839  0.00  0.00    +0.048 C 
ENDBRANCH  22  23
ENDBRANCH  17  22
ENDBRANCH   7  14
BRANCH  10  25
ATOM     25  O   LIG A   1       2.075  -0.255  -3.780  0.00  0.00    -0.506 OA
ATOM     26  H   LIG A   1       2.081   0.712  -3.968  0.00  0.00    +0.292 HD
ENDBRANCH  10  25
BRANCH  13  27
ATOM     27  O   LIG A   1      -0.910  -3.553  -1.763  0.00  0.00    -0.491 OA
BRANCH  27  28
ATOM     28  C   LIG A   1      -0.214  -4.741  -2.124  0.00  0.00    +0.226 C 
ATOM     29  C   LIG A   1       0.829  -5.109  -1.076  0.00  0.00    +0.048 C 
ENDBRANCH  27  28
ENDBRANCH  13  27
TORSDOF 7
