@<TRIPOS>MOLECULE
NuBBE_1229
 75 78 0 0 0
SMALL
GASTEIGER

@<TRIPOS>ATOM
      1 C          -1.7613   -1.6045   -2.5327 C.3     1  LIG1       -0.0552
      2 C          -1.0252   -0.7783   -1.4284 C.3     1  LIG1       -0.0013
      3 C          -1.9569   -0.5860   -0.2427 C.2     1  LIG1       -0.0414
      4 C          -2.5920    0.6850    0.0785 C.2     1  LIG1       -0.0370
      5 C          -3.5291    0.7762    1.0421 C.2     1  LIG1       -0.0152
      6 C          -4.0438    2.0825    1.5173 C.2     1  LIG1        0.1600
      7 C          -3.5583    3.3472    0.8344 C.3     1  LIG1        0.0300
      8 C          -3.7555    4.5928    1.7065 C.3     1  LIG1       -0.0141
      9 C          -3.3849    5.8641    0.9436 C.3     1  LIG1        0.0817
     10 H          -4.1328    6.0440    0.1623 H       1  LIG1        0.0619
     11 O          -3.4045    6.9835    1.8372 O.3     1  LIG1       -0.3892
     12 C          -1.9935    5.8004    0.2956 C.3     1  LIG1        0.0816
     13 H          -1.8741    6.6506   -0.3863 H       1  LIG1        0.0619
     14 O          -0.9874    5.9670    1.2968 O.3     1  LIG1       -0.3892
     15 C          -1.7488    4.4975   -0.4700 C.3     1  LIG1       -0.0178
     16 C          -2.0997    3.2017    0.3268 C.3     1  LIG1       -0.0130
     17 C          -1.0877    3.0211    1.4953 C.3     1  LIG1       -0.0583
     18 C          -2.0593    1.9423   -0.6205 C.3     1  LIG1       -0.0093
     19 C          -0.6612    1.7455   -1.2317 C.3     1  LIG1       -0.0449
     20 C          -0.5962    0.5181   -2.1235 C.3     1  LIG1       -0.0427
     21 O          -4.8939    2.0933    2.4136 O.2     1  LIG1       -0.2924
     22 C          -1.8892   -1.6633    0.5612 C.2     1  LIG1       -0.0796
     23 C          -0.8112   -2.6089    0.1258 C.3     1  LIG1       -0.0279
     24 C           0.0846   -1.6963   -0.7685 C.3     1  LIG1        0.0028
     25 H           0.5373   -2.3071   -1.5593 H       1  LIG1        0.0341
     26 C           1.2869   -1.0610    0.0640 C.3     1  LIG1        0.0929
     27 O           0.8149   -0.2055    1.1221 O.3     1  LIG1       -0.3860
     28 C           2.2131   -0.1763   -0.7955 C.3     1  LIG1       -0.0333
     29 C           2.1838   -2.1511    0.7778 C.3     1  LIG1        0.0840
     30 H           1.6062   -2.6816    1.5389 H       1  LIG1        0.0622
     31 O           3.2263   -1.5018    1.5272 O.3     1  LIG1       -0.3890
     32 C           2.8288   -3.1537   -0.1850 C.3     1  LIG1       -0.0216
     33 C           3.6654   -4.2292    0.5281 C.3     1  LIG1       -0.0221
     34 C           4.3058   -5.2464   -0.4422 C.3     1  LIG1        0.0606
     35 C           5.1178   -6.2882    0.3342 C.3     1  LIG1       -0.0363
     36 O           3.2656   -5.9299   -1.1485 O.3     1  LIG1       -0.3891
     37 C           5.2016   -4.5751   -1.4862 C.3     1  LIG1       -0.0363
     38 H          -2.6162   -1.0506   -2.9395 H       1  LIG1        0.0238
     39 H          -2.1579   -2.5608   -2.1785 H       1  LIG1        0.0238
     40 H          -1.0784   -1.8255   -3.3623 H       1  LIG1        0.0238
     41 H          -3.9240   -0.0802    1.5755 H       1  LIG1        0.0655
     42 H          -4.2204    3.4606   -0.0384 H       1  LIG1        0.0387
     43 H          -3.1929    4.5249    2.6451 H       1  LIG1        0.0298
     44 H          -4.8033    4.6701    2.0254 H       1  LIG1        0.0298
     45 H          -4.2506    6.9586    2.3189 H       1  LIG1        0.2099
     46 H          -1.3363    6.6693    1.8836 H       1  LIG1        0.2099
     47 H          -0.6964    4.4743   -0.7762 H       1  LIG1        0.0297
     48 H          -2.3510    4.5218   -1.3880 H       1  LIG1        0.0297
     49 H          -1.2385    3.7351    2.3069 H       1  LIG1        0.0235
     50 H          -0.0568    3.1594    1.1502 H       1  LIG1        0.0235
     51 H          -1.1440    2.0268    1.9485 H       1  LIG1        0.0235
     52 H          -2.7451    2.1283   -1.4623 H       1  LIG1        0.0354
     53 H           0.0804    1.6811   -0.4383 H       1  LIG1        0.0272
     54 H          -0.3912    2.6097   -1.8483 H       1  LIG1        0.0272
     55 H           0.3858    0.4062   -2.5922 H       1  LIG1        0.0274
     56 H          -1.2666    0.7285   -2.9702 H       1  LIG1        0.0274
     57 H          -2.4132   -1.7970    1.4977 H       1  LIG1        0.0575
     58 H          -1.2336   -3.4515   -0.4316 H       1  LIG1        0.0311
     59 H          -0.3012   -3.0255    0.9931 H       1  LIG1        0.0311
     60 H           0.1820   -0.7060    1.6666 H       1  LIG1        0.2103
     61 H           1.7816    0.7937   -1.0290 H       1  LIG1        0.0258
     62 H           2.4996   -0.6668   -1.7284 H       1  LIG1        0.0258
     63 H           3.1287    0.0951   -0.2580 H       1  LIG1        0.0258
     64 H           2.8411   -0.6612    1.8480 H       1  LIG1        0.2099
     65 H           3.4833   -2.6037   -0.8677 H       1  LIG1        0.0292
     66 H           2.0573   -3.6488   -0.7813 H       1  LIG1        0.0292
     67 H           3.0030   -4.7647    1.2213 H       1  LIG1        0.0293
     68 H           4.4491   -3.7547    1.1306 H       1  LIG1        0.0293
     69 H           4.4867   -6.8248    1.0514 H       1  LIG1        0.0257
     70 H           5.9488   -5.8285    0.8787 H       1  LIG1        0.0257
     71 H           5.5252   -7.0469   -0.3444 H       1  LIG1        0.0257
     72 H           2.7840   -6.4814   -0.5083 H       1  LIG1        0.2101
     73 H           5.9806   -3.9666   -1.0155 H       1  LIG1        0.0257
     74 H           4.6233   -3.9427   -2.1681 H       1  LIG1        0.0257
     75 H           5.6855   -5.3241   -2.1233 H       1  LIG1        0.0257
@<TRIPOS>BOND
     1     2     3    1
     2     3     4    1
     3     4     5    2
     4     5     6    1
     5     6     7    1
     6     7     8    1
     7     8     9    1
     8     9    12    1
     9    12    15    1
    10    15    16    1
    11     7    16    1
    12    16    18    1
    13     4    18    1
    14    18    19    1
    15    19    20    1
    16     2    20    1
    17     3    22    2
    18    22    23    1
    19    23    24    1
    20     2    24    1
    21    29    31    1
    22    29    32    1
    23    32    33    1
    24    33    34    1
    25    34    35    1
    26    34    36    1
    27    34    37    1
    28     1     2    1
    29     6    21    2
    30    12    13    1
    31    12    14    1
    32    16    17    1
    33     9    11    1
    34     9    10    1
    35    24    26    1
    36    24    25    1
    37    26    28    1
    38    26    27    1
    39    29    30    1
    40    29    26    1
    41     1    38    1
    42     1    39    1
    43     1    40    1
    44     5    41    1
    45     7    42    1
    46     8    43    1
    47     8    44    1
    48    11    45    1
    49    14    46    1
    50    15    47    1
    51    15    48    1
    52    17    49    1
    53    17    50    1
    54    17    51    1
    55    18    52    1
    56    19    53    1
    57    19    54    1
    58    20    55    1
    59    20    56    1
    60    22    57    1
    61    23    58    1
    62    23    59    1
    63    27    60    1
    64    28    61    1
    65    28    62    1
    66    28    63    1
    67    31    64    1
    68    32    65    1
    69    32    66    1
    70    33    67    1
    71    33    68    1
    72    35    69    1
    73    35    70    1
    74    35    71    1
    75    36    72    1
    76    37    73    1
    77    37    74    1
    78    37    75    1
