REMARK  Name = NuBBE_733
REMARK  2 active torsions:
REMARK  status: ('A' for Active; 'I' for Inactive)
REMARK    1  A    between atoms: C_2  and  C_3
REMARK    2  A    between atoms: C_3  and  C_4
REMARK                            x       y       z     vdW  Elec       q    Type
REMARK                         _______ _______ _______ _____ _____    ______ ____
ROOT
ATOM      1  C   LIG A   1      -0.473  -0.530   0.427  0.00  0.00    -0.040 A 
ATOM      2  C   LIG A   1      -0.010   0.797   0.461  0.00  0.00    +0.053 A 
ATOM      3  C   LIG A   1       1.335   1.021   0.261  0.00  0.00    +0.167 A 
ATOM      4  O   LIG A   1       1.948   2.236   0.269  0.00  0.00    -0.453 OA
ATOM      5  C   LIG A   1       3.314   1.851   0.015  0.00  0.00    +0.466 C 
ATOM      6  O   LIG A   1       3.492   0.428  -0.144  0.00  0.00    -0.453 OA
ATOM      7  C   LIG A   1       2.215  -0.008   0.025  0.00  0.00    +0.166 A 
ATOM      8  C   LIG A   1       1.800  -1.320  -0.027  0.00  0.00    +0.050 A 
ATOM      9  C   LIG A   1       0.440  -1.580   0.173  0.00  0.00    +0.008 A 
ENDROOT
BRANCH   1  10
ATOM     10  C   LIG A   1      -1.940  -0.827   0.628  0.00  0.00    +0.061 C 
BRANCH  10  12
ATOM     11  C   LIG A   1      -3.747   0.010  -0.904  0.00  0.00    +0.004 C 
ATOM     12  C   LIG A   1      -2.707  -0.799  -0.664  0.00  0.00    -0.030 C 
ENDBRANCH  10  12
ENDBRANCH   1  10
TORSDOF 2
