@<TRIPOS>MOLECULE
NuBBE_875
 60 61 0 0 0
SMALL
GASTEIGER

@<TRIPOS>ATOM
      1 O          -4.3782   -2.5577   -4.5503 O.3     1  LIG1       -0.5068
      2 C          -3.5448   -3.3827   -3.8545 C.ar    1  LIG1        0.1169
      3 C          -2.4508   -3.9872   -4.4638 C.ar    1  LIG1       -0.0199
      4 C          -1.6288   -4.8337   -3.7163 C.ar    1  LIG1       -0.0551
      5 C          -1.8834   -5.0548   -2.3539 C.ar    1  LIG1       -0.0467
      6 C          -2.9917   -4.4356   -1.7609 C.ar    1  LIG1       -0.0551
      7 C          -3.8213   -3.6019   -2.5114 C.ar    1  LIG1       -0.0199
      8 C          -0.9512   -5.9001   -1.5155 C.3     1  LIG1       -0.0207
      9 C           0.4334   -5.2581   -1.3696 C.3     1  LIG1        0.0147
     10 C           0.3749   -3.9468   -0.6066 C.2     1  LIG1        0.1705
     11 C           0.9051   -2.6687   -1.1843 C.ar    1  LIG1        0.1005
     12 C           0.3072   -1.4508   -0.7810 C.ar    1  LIG1        0.1378
     13 C           0.7363   -0.1945   -1.2671 C.ar    1  LIG1        0.0400
     14 C           0.0272    1.0708   -0.8229 C.3     1  LIG1       -0.0023
     15 C           0.6077    1.6782    0.4308 C.2     1  LIG1       -0.0805
     16 C           0.6124    2.9809    0.7866 C.2     1  LIG1       -0.0759
     17 C           1.2084    3.4172    2.1200 C.3     1  LIG1       -0.0286
     18 C           0.1724    3.5025    3.2539 C.3     1  LIG1       -0.0308
     19 C           0.7916    3.9402    4.5604 C.2     1  LIG1       -0.0850
     20 C           0.8903    5.1905    5.0562 C.2     1  LIG1       -0.0796
     21 C           0.4054    6.4342    4.3648 C.3     1  LIG1       -0.0440
     22 C           1.5473    5.4462    6.3900 C.3     1  LIG1       -0.0440
     23 C           0.0393    4.0892   -0.0563 C.3     1  LIG1       -0.0438
     24 C           1.8294   -0.1797   -2.1403 C.ar    1  LIG1        0.1273
     25 C           2.4493   -1.3648   -2.5349 C.ar    1  LIG1        0.0225
     26 C           1.9894   -2.6007   -2.0677 C.ar    1  LIG1        0.1343
     27 O           2.6605   -3.7227   -2.4678 O.3     1  LIG1       -0.5058
     28 O           2.3701    0.9577   -2.6718 O.3     1  LIG1       -0.5062
     29 O          -0.7359   -1.4324    0.1208 O.3     1  LIG1       -0.5055
     30 O          -0.1672   -3.8919    0.5143 O.2     1  LIG1       -0.2918
     31 H          -4.1091   -2.5648   -5.4830 H       1  LIG1        0.2921
     32 H          -2.2161   -3.8032   -5.5071 H       1  LIG1        0.0654
     33 H          -0.7768   -5.3051   -4.2013 H       1  LIG1        0.0621
     34 H          -3.2066   -4.5843   -0.7048 H       1  LIG1        0.0621
     35 H          -4.6735   -3.1173   -2.0442 H       1  LIG1        0.0654
     36 H          -0.8523   -6.8848   -1.9902 H       1  LIG1        0.0317
     37 H          -1.3945   -6.0870   -0.5289 H       1  LIG1        0.0317
     38 H           0.8597   -5.1265   -2.3643 H       1  LIG1        0.0348
     39 H           1.0947   -5.9337   -0.8139 H       1  LIG1        0.0348
     40 H          -1.0319    0.8508   -0.6427 H       1  LIG1        0.0358
     41 H           0.0220    1.7804   -1.6563 H       1  LIG1        0.0358
     42 H           1.0185    0.9545    1.1359 H       1  LIG1        0.0575
     43 H           1.7017    4.3895    1.9902 H       1  LIG1        0.0313
     44 H           2.0044    2.7199    2.4138 H       1  LIG1        0.0313
     45 H          -0.2711    2.5107    3.4158 H       1  LIG1        0.0310
     46 H          -0.6626    4.1548    2.9773 H       1  LIG1        0.0310
     47 H           1.1889    3.1187    5.1574 H       1  LIG1        0.0572
     48 H          -0.0882    6.2338    3.4114 H       1  LIG1        0.0274
     49 H           1.2500    7.1022    4.1642 H       1  LIG1        0.0274
     50 H          -0.3084    6.9671    5.0022 H       1  LIG1        0.0274
     51 H           1.8854    4.5237    6.8734 H       1  LIG1        0.0274
     52 H           0.8484    5.9414    7.0725 H       1  LIG1        0.0274
     53 H           2.4219    6.0932    6.2622 H       1  LIG1        0.0274
     54 H          -0.4951    3.7261   -0.9379 H       1  LIG1        0.0274
     55 H           0.8377    4.7527   -0.4052 H       1  LIG1        0.0274
     56 H          -0.6751    4.6808    0.5240 H       1  LIG1        0.0274
     57 H           3.2986   -1.2983   -3.2105 H       1  LIG1        0.0691
     58 H           3.4463   -3.4544   -2.9775 H       1  LIG1        0.2922
     59 H           1.8784    1.7376   -2.3691 H       1  LIG1        0.2921
     60 H          -0.7999   -2.3213    0.5359 H       1  LIG1        0.2922
@<TRIPOS>BOND
     1     1     2    1
     2     2     3   ar
     3     3     4   ar
     4     4     5   ar
     5     5     6   ar
     6     6     7   ar
     7     2     7   ar
     8     5     8    1
     9     8     9    1
    10     9    10    1
    11    10    11    1
    12    11    12   ar
    13    12    13   ar
    14    13    14    1
    15    14    15    1
    16    15    16    2
    17    16    17    1
    18    17    18    1
    19    18    19    1
    20    19    20    2
    21    20    21    1
    22    20    22    1
    23    16    23    1
    24    13    24   ar
    25    24    25   ar
    26    25    26   ar
    27    11    26   ar
    28    26    27    1
    29    24    28    1
    30    12    29    1
    31    10    30    2
    32     1    31    1
    33     3    32    1
    34     4    33    1
    35     6    34    1
    36     7    35    1
    37     8    36    1
    38     8    37    1
    39     9    38    1
    40     9    39    1
    41    14    40    1
    42    14    41    1
    43    15    42    1
    44    17    43    1
    45    17    44    1
    46    18    45    1
    47    18    46    1
    48    19    47    1
    49    21    48    1
    50    21    49    1
    51    21    50    1
    52    22    51    1
    53    22    52    1
    54    22    53    1
    55    23    54    1
    56    23    55    1
    57    23    56    1
    58    25    57    1
    59    27    58    1
    60    28    59    1
    61    29    60    1
