@<TRIPOS>MOLECULE
NuBBE_947
 33 35 0 0 0
SMALL
GASTEIGER

@<TRIPOS>ATOM
      1 O          -2.5929    2.0475    0.2026 O.2     1  LIG1       -0.2832
      2 C          -1.3676    2.0762    0.1664 C.2     1  LIG1        0.2317
      3 C          -0.5583    0.8320    0.0773 C.ar    1  LIG1        0.0816
      4 C           0.7836    0.9108   -0.2980 C.ar    1  LIG1        0.0780
      5 C           1.5368   -0.2619   -0.4844 C.ar    1  LIG1        0.1355
      6 O           2.8601   -0.2355   -0.8454 O.3     1  LIG1       -0.5056
      7 C           0.9590   -1.5202   -0.2901 C.ar    1  LIG1        0.0425
      8 C          -0.3689   -1.6077    0.1423 C.ar    1  LIG1        0.0302
      9 C          -0.8933   -2.9444    0.4307 C.2     1  LIG1       -0.0133
     10 C          -0.2275   -4.0345    0.0184 C.2     1  LIG1        0.0958
     11 C          -0.7383   -5.4260    0.2278 C.3     1  LIG1       -0.0069
     12 O           0.9761   -3.9777   -0.6519 O.2     1  LIG1       -0.4918
     13 C           1.7581   -2.7906   -0.4344 C.3     1  LIG1        0.1182
     14 C          -1.1218   -0.4337    0.3156 C.ar    1  LIG1        0.1363
     15 O          -2.4109   -0.5357    0.7644 O.3     1  LIG1       -0.5054
     16 C          -0.6526    3.3961    0.1508 C.2     1  LIG1        0.1709
     17 O          -1.4396    4.4953    0.4372 O.2     1  LIG1       -0.4911
     18 C          -0.8490    5.7872    0.4000 C.3     1  LIG1        0.0790
     19 C           0.6486    3.4349   -0.1627 C.2     1  LIG1        0.0313
     20 C           1.4184    2.2251   -0.4764 C.2     1  LIG1        0.1940
     21 O           2.5837    2.3142   -0.8509 O.2     1  LIG1       -0.2870
     22 H           3.1428    0.6998   -0.9692 H       1  LIG1        0.2922
     23 H          -1.8314   -3.0339    0.9675 H       1  LIG1        0.0658
     24 H          -1.7028   -5.4377    0.7460 H       1  LIG1        0.0307
     25 H          -0.0266   -6.0026    0.8274 H       1  LIG1        0.0307
     26 H          -0.8675   -5.9301   -0.7354 H       1  LIG1        0.0307
     27 H           2.4363   -2.7163   -1.2912 H       1  LIG1        0.0749
     28 H           2.3638   -2.9440    0.4669 H       1  LIG1        0.0749
     29 H          -2.8853   -1.1523    0.1801 H       1  LIG1        0.2922
     30 H          -1.6225    6.5192    0.6506 H       1  LIG1        0.0660
     31 H          -0.4779    6.0189   -0.6036 H       1  LIG1        0.0660
     32 H          -0.0495    5.8736    1.1427 H       1  LIG1        0.0660
     33 H           1.2170    4.3543   -0.2209 H       1  LIG1        0.0694
@<TRIPOS>BOND
     1     1     2    2
     2     2     3    1
     3     3     4   ar
     4     4     5   ar
     5     5     6    1
     6     5     7   ar
     7     7     8   ar
     8     8     9    1
     9     9    10    2
    10    10    11    1
    11    10    12    1
    12    12    13    1
    13     7    13    1
    14     8    14   ar
    15     3    14   ar
    16    14    15    1
    17     2    16    1
    18    16    17    1
    19    17    18    1
    20    16    19    2
    21    19    20    1
    22     4    20    1
    23    20    21    2
    24     6    22    1
    25     9    23    1
    26    11    24    1
    27    11    25    1
    28    11    26    1
    29    13    27    1
    30    13    28    1
    31    15    29    1
    32    18    30    1
    33    18    31    1
    34    18    32    1
    35    19    33    1
