@<TRIPOS>MOLECULE
NuBBE_988
 76 79 0 0 0
SMALL
GASTEIGER

@<TRIPOS>ATOM
      1 C          -4.5974    0.2919   -0.9162 C.3     1  LIG1       -0.0556
      2 C          -4.5256    0.9955    0.4681 C.3     1  LIG1       -0.0071
      3 C          -4.8537    2.4741    0.2329 C.2     1  LIG1       -0.0601
      4 C          -3.7603    3.4497   -0.1440 C.3     1  LIG1       -0.0305
      5 C          -2.4205    3.1890    0.5529 C.3     1  LIG1       -0.0459
      6 C          -2.0681    1.7205    0.3505 C.3     1  LIG1       -0.0336
      7 C          -3.0971    0.8508    1.1445 C.3     1  LIG1       -0.0265
      8 C          -2.6329   -0.6223    1.4995 C.3     1  LIG1       -0.0224
      9 C          -1.0942   -0.9457    1.4415 C.3     1  LIG1        0.0614
     10 H          -0.6243   -0.6642    2.3935 H       1  LIG1        0.0599
     11 O          -0.9040   -2.3498    1.3076 O.3     1  LIG1       -0.3912
     12 C          -0.4346   -0.1807    0.2626 C.3     1  LIG1        0.0000
     13 C          -1.1731   -0.6356   -1.0108 C.3     1  LIG1       -0.0567
     14 C          -0.6719    1.2954    0.7327 C.3     1  LIG1       -0.0299
     15 C           0.5520    2.0661    0.3006 C.3     1  LIG1       -0.0491
     16 C           1.6426    1.0512    0.6499 C.3     1  LIG1       -0.0491
     17 C           1.1405   -0.2842    0.0391 C.3     1  LIG1       -0.0304
     18 H           1.5279   -1.1310    0.6159 H       1  LIG1        0.0310
     19 C           1.6928   -0.3974   -1.4626 C.3     1  LIG1       -0.0405
     20 H           1.3134    0.4724   -2.0164 H       1  LIG1        0.0301
     21 C           1.2641   -1.6490   -2.2530 C.3     1  LIG1       -0.0621
     22 C           3.2427   -0.3185   -1.5977 C.3     1  LIG1       -0.0499
     23 C           3.9863   -1.4410   -0.8625 C.3     1  LIG1       -0.0500
     24 C           5.5280   -1.3815   -0.9865 C.3     1  LIG1       -0.0415
     25 C           6.0938   -0.0787   -0.4078 C.3     1  LIG1       -0.0622
     26 C           6.1804   -2.6519   -0.3537 C.3     1  LIG1       -0.0441
     27 C           7.7068   -2.6668   -0.4924 C.3     1  LIG1       -0.0624
     28 C           5.7990   -2.8720    1.1154 C.3     1  LIG1       -0.0624
     29 C          -6.1364    2.9342    0.2896 C.2     1  LIG1       -0.0194
     30 C          -7.2764    2.0260    0.5291 C.2     1  LIG1        0.1561
     31 C          -7.0259    0.5972    0.8893 C.3     1  LIG1        0.0107
     32 C          -5.5985    0.3790    1.3964 C.3     1  LIG1       -0.0366
     33 O          -8.4294    2.4614    0.3671 O.2     1  LIG1       -0.2927
     34 H          -3.8487    0.6667   -1.6197 H       1  LIG1        0.0238
     35 H          -5.5598    0.4562   -1.4140 H       1  LIG1        0.0238
     36 H          -4.4763   -0.7923   -0.8252 H       1  LIG1        0.0238
     37 H          -4.0588    4.4851    0.0510 H       1  LIG1        0.0310
     38 H          -3.6030    3.3713   -1.2304 H       1  LIG1        0.0310
     39 H          -2.4842    3.4416    1.6181 H       1  LIG1        0.0271
     40 H          -1.6552    3.8380    0.1124 H       1  LIG1        0.0271
     41 H          -2.1616    1.5603   -0.7261 H       1  LIG1        0.0307
     42 H          -3.1827    1.3267    2.1357 H       1  LIG1        0.0313
     43 H          -3.1674   -1.3541    0.8843 H       1  LIG1        0.0293
     44 H          -2.9755   -0.8508    2.5195 H       1  LIG1        0.0293
     45 H          -1.2840   -2.7714    2.0979 H       1  LIG1        0.2098
     46 H          -2.2519   -0.6117   -0.9297 H       1  LIG1        0.0236
     47 H          -0.9784   -1.6923   -1.2092 H       1  LIG1        0.0236
     48 H          -0.9319   -0.0128   -1.8749 H       1  LIG1        0.0236
     49 H          -0.6294    1.3591    1.8343 H       1  LIG1        0.0310
     50 H           0.6781    2.9912    0.8738 H       1  LIG1        0.0268
     51 H           0.5356    2.3118   -0.7646 H       1  LIG1        0.0268
     52 H           1.7212    0.9399    1.7400 H       1  LIG1        0.0268
     53 H           2.6196    1.3914    0.3094 H       1  LIG1        0.0268
     54 H           1.1541   -2.5224   -1.6047 H       1  LIG1        0.0233
     55 H           1.9874   -1.8938   -3.0403 H       1  LIG1        0.0233
     56 H           0.3330   -1.4870   -2.8038 H       1  LIG1        0.0233
     57 H           3.5912    0.6608   -1.2698 H       1  LIG1        0.0268
     58 H           3.5023   -0.3539   -2.6658 H       1  LIG1        0.0268
     59 H           3.6568   -2.4120   -1.2552 H       1  LIG1        0.0268
     60 H           3.6995   -1.4060    0.1913 H       1  LIG1        0.0268
     61 H           5.7730   -1.3944   -2.0581 H       1  LIG1        0.0301
     62 H           5.9044   -0.0018    0.6667 H       1  LIG1        0.0232
     63 H           5.6587    0.8039   -0.8855 H       1  LIG1        0.0232
     64 H           7.1726   -0.0080   -0.5752 H       1  LIG1        0.0232
     65 H           5.8113   -3.5202   -0.9174 H       1  LIG1        0.0298
     66 H           8.1825   -1.8872    0.1112 H       1  LIG1        0.0232
     67 H           8.0046   -2.5326   -1.5373 H       1  LIG1        0.0232
     68 H           8.1125   -3.6269   -0.1527 H       1  LIG1        0.0232
     69 H           5.9443   -1.9700    1.7177 H       1  LIG1        0.0232
     70 H           6.4029   -3.6687    1.5644 H       1  LIG1        0.0232
     71 H           4.7509   -3.1761    1.2034 H       1  LIG1        0.0232
     72 H          -6.3896    3.9593    0.0448 H       1  LIG1        0.0652
     73 H          -7.2237   -0.0419    0.0115 H       1  LIG1        0.0345
     74 H          -7.7312    0.3074    1.6748 H       1  LIG1        0.0345
     75 H          -5.4314   -0.6979    1.5287 H       1  LIG1        0.0278
     76 H          -5.5177    0.8313    2.3932 H       1  LIG1        0.0278
@<TRIPOS>BOND
     1     1     2    1
     2     2     3    1
     3     3     4    1
     4     4     5    1
     5     5     6    1
     6     6     7    1
     7     2     7    1
     8     7     8    1
     9     8     9    1
    10     9    10    1
    11     9    11    1
    12     9    12    1
    13    12    13    1
    14    12    14    1
    15     6    14    1
    16    14    15    1
    17    15    16    1
    18    16    17    1
    19    12    17    1
    20    19    22    1
    21    22    23    1
    22    23    24    1
    23    24    25    1
    24    24    26    1
    25    26    27    1
    26    26    28    1
    27     3    29    2
    28    29    30    1
    29    30    31    1
    30    31    32    1
    31     2    32    1
    32    30    33    2
    33    17    19    1
    34    17    18    1
    35    19    21    1
    36    19    20    1
    37     1    34    1
    38     1    35    1
    39     1    36    1
    40     4    37    1
    41     4    38    1
    42     5    39    1
    43     5    40    1
    44     6    41    1
    45     7    42    1
    46     8    43    1
    47     8    44    1
    48    11    45    1
    49    13    46    1
    50    13    47    1
    51    13    48    1
    52    14    49    1
    53    15    50    1
    54    15    51    1
    55    16    52    1
    56    16    53    1
    57    21    54    1
    58    21    55    1
    59    21    56    1
    60    22    57    1
    61    22    58    1
    62    23    59    1
    63    23    60    1
    64    24    61    1
    65    25    62    1
    66    25    63    1
    67    25    64    1
    68    26    65    1
    69    27    66    1
    70    27    67    1
    71    27    68    1
    72    28    69    1
    73    28    70    1
    74    28    71    1
    75    29    72    1
    76    31    73    1
    77    31    74    1
    78    32    75    1
    79    32    76    1
