REMARK  Name = NuBBE_1744
REMARK  8 active torsions:
REMARK  status: ('A' for Active; 'I' for Inactive)
REMARK    1  A    between atoms: O_1  and  C_2
REMARK    2  A    between atoms: O_1  and  C_3
REMARK    3  A    between atoms: C_4  and  O_5
REMARK    4  A    between atoms: O_5  and  C_6
REMARK    5  A    between atoms: C_8  and  C_13
REMARK    6  A    between atoms: C_10  and  O_11
REMARK    7  A    between atoms: O_11  and  C_12
REMARK    8  A    between atoms: C_13  and  C_14
REMARK                            x       y       z     vdW  Elec       q    Type
REMARK                         _______ _______ _______ _____ _____    ______ ____
ROOT
ATOM      1  C   LIG A   1      -1.538   0.378  -0.221  0.00  0.00    +0.203 A 
ATOM      2  C   LIG A   1      -0.620   1.385  -0.623  0.00  0.00    +0.165 A 
ATOM      3  C   LIG A   1       0.748   1.231  -0.361  0.00  0.00    +0.053 A 
ATOM      4  C   LIG A   1       1.235   0.140   0.350  0.00  0.00    -0.036 A 
ATOM      5  C   LIG A   1       0.325  -0.822   0.767  0.00  0.00    +0.053 A 
ATOM      6  C   LIG A   1      -1.052  -0.734   0.502  0.00  0.00    +0.165 A 
ENDROOT
BRANCH   1   7
ATOM      7  O   LIG A   1      -2.878   0.666  -0.368  0.00  0.00    -0.488 OA
ATOM      8  C   LIG A   1      -3.688  -0.302  -1.030  0.00  0.00    +0.277 C 
ENDBRANCH   1   7
BRANCH   2   9
ATOM      9  O   LIG A   1      -1.089   2.490  -1.302  0.00  0.00    -0.491 OA
ATOM     10  C   LIG A   1      -0.328   3.693  -1.153  0.00  0.00    +0.277 C 
ENDBRANCH   2   9
BRANCH   6  11
ATOM     11  O   LIG A   1      -1.915  -1.701   0.968  0.00  0.00    -0.491 OA
ATOM     12  C   LIG A   1      -1.449  -2.401   2.130  0.00  0.00    +0.277 C 
ENDBRANCH   6  11
BRANCH   4  13
ATOM     13  C   LIG A   1       2.688   0.027   0.707  0.00  0.00    +0.061 C 
BRANCH  13  14
ATOM     14  C   LIG A   1       3.350  -1.216   0.142  0.00  0.00    -0.030 C 
ATOM     15  C   LIG A   1       3.457  -1.524  -1.130  0.00  0.00    +0.004 C 
ENDBRANCH  13  14
ENDBRANCH   4  13
TORSDOF 5
