REMARK  Name = NuBBE_932
REMARK  12 active torsions:
REMARK  status: ('A' for Active; 'I' for Inactive)
REMARK    1  A    between atoms: C_1  and  C_3
REMARK    2  A    between atoms: C_1  and  O_12
REMARK    3  A    between atoms: C_1  and  C_16
REMARK    4  A    between atoms: C_3  and  O_5
REMARK    5  A    between atoms: C_3  and  C_9
REMARK    6  A    between atoms: O_5  and  C_6
REMARK    7  A    between atoms: C_6  and  C_8
REMARK    8  A    between atoms: C_9  and  C_11
REMARK    9  A    between atoms: O_12  and  C_13
REMARK   10  A    between atoms: C_13  and  C_15
REMARK   11  A    between atoms: C_21  and  O_22
REMARK   12  A    between atoms: O_22  and  C_23
REMARK                            x       y       z     vdW  Elec       q    Type
REMARK                         _______ _______ _______ _____ _____    ______ ____
ROOT
ATOM      1  C   LIG A   1       0.634  -0.474   0.100  0.00  0.00    +0.258 C 
ENDROOT
BRANCH   1   2
ATOM      2  C   LIG A   1      -0.316   0.140  -0.942  0.00  0.00    +0.081 A 
ATOM      3  C   LIG A   1      -1.605  -0.389  -1.173  0.00  0.00    +0.149 A 
ATOM      4  C   LIG A   1      -2.347  -0.079  -2.316  0.00  0.00    +0.018 A 
ATOM      5  C   LIG A   1      -1.849   0.865  -3.207  0.00  0.00    +0.015 A 
ATOM      6  C   LIG A   1      -0.625   1.488  -2.950  0.00  0.00    +0.047 A 
ATOM      7  C   LIG A   1       0.143   1.136  -1.829  0.00  0.00    +0.131 A 
ATOM      8  C   LIG A   1      -3.581  -0.801  -2.591  0.00  0.00    +0.018 A 
ATOM      9  C   LIG A   1      -3.999  -1.750  -1.750  0.00  0.00    +0.092 A 
ATOM     10  C   LIG A   1      -3.256  -2.093  -0.529  0.00  0.00    +0.337 A 
ATOM     11  O   LIG A   1      -3.637  -2.994   0.210  0.00  0.00    -0.245 OA
ATOM     12  O   LIG A   1      -2.116  -1.348  -0.264  0.00  0.00    -0.422 OA
BRANCH   7  13
ATOM     13  O   LIG A   1       1.390   1.661  -1.597  0.00  0.00    -0.495 OA
ATOM     14  C   LIG A   1       1.570   3.016  -2.003  0.00  0.00    +0.277 C 
ENDBRANCH   7  13
ENDBRANCH   1   2
BRANCH   1  15
ATOM     15  C   LIG A   1       0.507   0.192   1.527  0.00  0.00    +0.247 C 
BRANCH  15  16
ATOM     16  C   LIG A   1       1.373  -0.459   2.625  0.00  0.00    -0.036 C 
ATOM     17  C   LIG A   1       0.927  -0.589   3.890  0.00  0.00    +0.011 C 
ATOM     18  C   LIG A   1       2.784  -0.854   2.290  0.00  0.00    +0.042 C 
ENDBRANCH  15  16
BRANCH  15  19
ATOM     19  O   LIG A   1       0.946   1.572   1.454  0.00  0.00    -0.453 OA
BRANCH  19  20
ATOM     20  C   LIG A   1       0.600   2.393   2.491  0.00  0.00    +0.305 C 
ATOM     21  O   LIG A   1      -0.234   2.156   3.354  0.00  0.00    -0.251 OA
ATOM     22  C   LIG A   1       1.418   3.642   2.449  0.00  0.00    +0.136 C 
ENDBRANCH  19  20
ENDBRANCH  15  19
ENDBRANCH   1  15
BRANCH   1  23
ATOM     23  O   LIG A   1       0.458  -1.923   0.243  0.00  0.00    -0.452 OA
BRANCH  23  24
ATOM     24  C   LIG A   1       0.313  -2.715  -0.847  0.00  0.00    +0.305 C 
ATOM     25  O   LIG A   1       0.368  -2.364  -2.031  0.00  0.00    -0.251 OA
ATOM     26  C   LIG A   1       0.039  -4.125  -0.440  0.00  0.00    +0.136 C 
ENDBRANCH  23  24
ENDBRANCH   1  23
TORSDOF 8
