@<TRIPOS>MOLECULE
NuBBE_1947
 43 45 0 0 0
SMALL
GASTEIGER

@<TRIPOS>ATOM
      1 C          -1.7455    3.0093    1.3563 C.3     1  LIG1       -0.0619
      2 C          -0.6094    2.4794    0.4957 C.3     1  LIG1       -0.0379
      3 H           0.3059    2.9926    0.8242 H       1  LIG1        0.0304
      4 C          -0.3670    0.9610    0.5064 C.3     1  LIG1       -0.0228
      5 C           0.6088    0.8917   -0.6857 C.3     1  LIG1       -0.0273
      6 H           1.4406    1.5905   -0.4807 H       1  LIG1        0.0312
      7 C          -0.1593    1.5755   -1.7931 C.3     1  LIG1       -0.0489
      8 C          -0.8108    2.7644   -1.0292 C.3     1  LIG1       -0.0497
      9 C           1.2605   -0.5077   -0.6743 C.3     1  LIG1       -0.0002
     10 C           0.8366   -1.0464    0.7621 C.3     1  LIG1       -0.0041
     11 H           1.6691   -1.5357    1.2810 H       1  LIG1        0.0335
     12 C           0.5056    0.2783    1.5438 C.3     1  LIG1       -0.0408
     13 C          -0.4028   -1.9772    0.8394 C.3     1  LIG1        0.0667
     14 C          -1.6376   -1.3321    0.2000 C.3     1  LIG1       -0.0235
     15 C          -1.7159    0.1818    0.4153 C.3     1  LIG1       -0.0442
     16 C          -0.1617   -3.3817    0.2806 C.3     1  LIG1       -0.0358
     17 O          -0.6704   -2.2141    2.2367 O.3     1  LIG1       -0.3886
     18 C           2.8146   -0.3270   -0.6759 C.3     1  LIG1        0.0502
     19 O           3.4972   -1.5745   -0.7308 O.3     1  LIG1       -0.3944
     20 C           0.9263   -1.3199   -1.9269 C.3     1  LIG1       -0.0569
     21 H          -2.7241    2.6560    1.0173 H       1  LIG1        0.0233
     22 H          -1.7670    4.1039    1.3211 H       1  LIG1        0.0233
     23 H          -1.6124    2.7082    2.4002 H       1  LIG1        0.0233
     24 H          -0.9298    0.9308   -2.2276 H       1  LIG1        0.0268
     25 H           0.4903    1.9241   -2.6014 H       1  LIG1        0.0268
     26 H          -1.8696    2.8451   -1.2993 H       1  LIG1        0.0268
     27 H          -0.3277    3.7102   -1.2988 H       1  LIG1        0.0268
     28 H           1.4218    0.8445    1.7528 H       1  LIG1        0.0275
     29 H           0.0012    0.1277    2.5017 H       1  LIG1        0.0275
     30 H          -2.5525   -1.7862    0.6037 H       1  LIG1        0.0293
     31 H          -1.6762   -1.5260   -0.8737 H       1  LIG1        0.0293
     32 H          -2.2509    0.3363    1.3628 H       1  LIG1        0.0272
     33 H          -2.3704    0.5997   -0.3586 H       1  LIG1        0.0272
     34 H          -0.1598   -3.4225   -0.8089 H       1  LIG1        0.0257
     35 H          -0.9435   -4.0708    0.6238 H       1  LIG1        0.0257
     36 H           0.7877   -3.7887    0.6467 H       1  LIG1        0.0257
     37 H          -1.3140   -1.5577    2.5518 H       1  LIG1        0.2102
     38 H           3.1686    0.2130    0.2094 H       1  LIG1        0.0563
     39 H           3.1284    0.2506   -1.5533 H       1  LIG1        0.0563
     40 H           3.3509   -2.0369    0.1113 H       1  LIG1        0.2094
     41 H          -0.1406   -1.4055   -2.1233 H       1  LIG1        0.0236
     42 H           1.3535   -2.3261   -1.8856 H       1  LIG1        0.0236
     43 H           1.3510   -0.8380   -2.8168 H       1  LIG1        0.0236
@<TRIPOS>BOND
     1     2     4    1
     2     4     5    1
     3     5     6    1
     4     5     7    1
     5     7     8    1
     6     2     8    1
     7     5     9    1
     8     9    10    1
     9    10    11    1
    10    10    12    1
    11     4    12    1
    12    10    13    1
    13    13    14    1
    14    14    15    1
    15     4    15    1
    16    13    16    1
    17    13    17    1
    18     9    18    1
    19    18    19    1
    20     9    20    1
    21     2     3    1
    22     2     1    1
    23     1    21    1
    24     1    22    1
    25     1    23    1
    26     7    24    1
    27     7    25    1
    28     8    26    1
    29     8    27    1
    30    12    28    1
    31    12    29    1
    32    14    30    1
    33    14    31    1
    34    15    32    1
    35    15    33    1
    36    16    34    1
    37    16    35    1
    38    16    36    1
    39    17    37    1
    40    18    38    1
    41    18    39    1
    42    19    40    1
    43    20    41    1
    44    20    42    1
    45    20    43    1
