@<TRIPOS>MOLECULE
NuBBE_533
 52 55 0 0 0
SMALL
GASTEIGER

@<TRIPOS>ATOM
      1 C          -1.4785   -3.3900   -3.2617 C.3     1  LIG1        0.0790
      2 O          -2.2772   -2.7931   -2.2343 O.3     1  LIG1       -0.4914
      3 C          -1.6921   -1.6874   -1.6752 C.ar    1  LIG1        0.1624
      4 C          -0.6897   -1.7558   -0.6932 C.ar    1  LIG1        0.1696
      5 O          -0.1658   -2.9361   -0.2272 O.3     1  LIG1       -0.4908
      6 C          -1.0625   -3.9986    0.0844 C.3     1  LIG1        0.0790
      7 C          -0.1294   -0.5548   -0.1741 C.ar    1  LIG1        0.0366
      8 C           1.0286   -0.5098    0.7780 C.ar    1  LIG1       -0.0067
      9 C           2.0442   -1.4909    0.8059 C.ar    1  LIG1       -0.0082
     10 C           3.1194   -1.3973    1.6966 C.ar    1  LIG1        0.1619
     11 O           4.1538   -2.2965    1.7725 O.3     1  LIG1       -0.4914
     12 C           3.8052   -3.6499    1.4862 C.3     1  LIG1        0.0790
     13 C           3.2174   -0.2972    2.5357 C.ar    1  LIG1        0.1587
     14 O           4.2769   -0.1529    3.3851 O.3     1  LIG1       -0.5033
     15 C           2.2542    0.7035    2.5289 C.ar    1  LIG1       -0.0126
     16 C           1.1785    0.6018    1.6360 C.ar    1  LIG1       -0.0302
     17 C           0.1751    1.7258    1.5560 C.3     1  LIG1        0.0207
     18 C          -0.7118    0.6985   -0.5578 C.ar    1  LIG1        0.0153
     19 C          -0.1530    1.9742    0.0698 C.3     1  LIG1        0.0113
     20 N          -1.0372    3.2521   -0.1200 N.4     1  LIG1        0.2449
     21 C          -2.2389    3.2921    0.8194 C.3     1  LIG1       -0.0409
     22 C          -0.1958    4.5116    0.1233 C.3     1  LIG1       -0.0409
     23 C          -1.4922    3.2751   -1.5893 C.3     1  LIG1       -0.0259
     24 C          -2.3495    2.0589   -1.9420 C.3     1  LIG1        0.0134
     25 C          -1.7323    0.7462   -1.5204 C.ar    1  LIG1       -0.0296
     26 C          -2.2184   -0.4476   -2.0640 C.ar    1  LIG1       -0.0124
     27 H          -1.7635   -4.4461   -3.3233 H       1  LIG1        0.0660
     28 H          -0.4031   -3.3416   -3.0607 H       1  LIG1        0.0660
     29 H          -1.7001   -2.9302   -4.2309 H       1  LIG1        0.0660
     30 H          -0.5574   -4.6425    0.8144 H       1  LIG1        0.0660
     31 H          -1.2471   -4.6161   -0.7974 H       1  LIG1        0.0660
     32 H          -1.9983   -3.6561    0.5375 H       1  LIG1        0.0660
     33 H           2.0176   -2.3050    0.0949 H       1  LIG1        0.0661
     34 H           4.6838   -4.2683    1.6915 H       1  LIG1        0.0660
     35 H           3.5491   -3.7877    0.4316 H       1  LIG1        0.0660
     36 H           2.9921   -3.9900    2.1373 H       1  LIG1        0.0660
     37 H           4.8449   -0.9337    3.2221 H       1  LIG1        0.2923
     38 H           2.3695    1.5494    3.1937 H       1  LIG1        0.0658
     39 H           0.5943    2.6237    2.0181 H       1  LIG1        0.0372
     40 H          -0.7123    1.4342    2.1308 H       1  LIG1        0.0372
     41 H           0.7730    2.2001   -0.4780 H       1  LIG1        0.0908
     42 H          -2.8969    4.1057    0.4980 H       1  LIG1        0.0778
     43 H          -1.8863    3.4897    1.8360 H       1  LIG1        0.0778
     44 H          -2.7633    2.3351    0.7831 H       1  LIG1        0.0778
     45 H          -0.8078    5.3860   -0.1191 H       1  LIG1        0.0778
     46 H           0.6872    4.4752   -0.5211 H       1  LIG1        0.0778
     47 H           0.0978    4.5500    1.1751 H       1  LIG1        0.0778
     48 H          -2.0471    4.2065   -1.7538 H       1  LIG1        0.0818
     49 H          -0.5820    3.3012   -2.2022 H       1  LIG1        0.0818
     50 H          -2.5063    2.0597   -3.0276 H       1  LIG1        0.0365
     51 H          -3.3379    2.1506   -1.4760 H       1  LIG1        0.0365
     52 H          -3.0290   -0.4318   -2.7925 H       1  LIG1        0.0658
@<TRIPOS>BOND
     1     1     2    1
     2     2     3    1
     3     3     4   ar
     4     4     5    1
     5     5     6    1
     6     4     7   ar
     7     7     8    1
     8     8     9   ar
     9     9    10   ar
    10    10    11    1
    11    11    12    1
    12    10    13   ar
    13    13    14    1
    14    13    15   ar
    15     8    16   ar
    16    15    16   ar
    17    16    17    1
    18     7    18   ar
    19    18    19    1
    20    17    19    1
    21    19    20    1
    22    20    21    1
    23    20    22    1
    24    20    23    1
    25    23    24    1
    26    18    25   ar
    27    24    25    1
    28    25    26   ar
    29     3    26   ar
    30     1    27    1
    31     1    28    1
    32     1    29    1
    33     6    30    1
    34     6    31    1
    35     6    32    1
    36     9    33    1
    37    12    34    1
    38    12    35    1
    39    12    36    1
    40    14    37    1
    41    15    38    1
    42    17    39    1
    43    17    40    1
    44    19    41    1
    45    21    42    1
    46    21    43    1
    47    21    44    1
    48    22    45    1
    49    22    46    1
    50    22    47    1
    51    23    48    1
    52    23    49    1
    53    24    50    1
    54    24    51    1
    55    26    52    1
