@<TRIPOS>MOLECULE
NuBBE_1203
 82 86 0 0 0
SMALL
GASTEIGER

@<TRIPOS>ATOM
      1 C          -3.2846   -1.1305    4.2477 C.3     1  LIG1       -0.0589
      2 C          -2.2815   -1.5317    3.1616 C.3     1  LIG1       -0.0226
      3 C          -2.9636   -1.5635    1.6376 C.3     1  LIG1       -0.0277
      4 C          -3.0429   -2.9337    1.0732 C.3     1  LIG1       -0.0486
      5 C          -1.6232   -3.1968    0.7783 C.3     1  LIG1       -0.0463
      6 C          -0.7268   -1.8722    0.9996 C.3     1  LIG1       -0.0194
      7 C           0.5722   -2.7842    1.4270 C.3     1  LIG1       -0.0585
      8 C          -1.6226   -0.5398    2.3676 C.3     1  LIG1       -0.0257
      9 C          -1.4558    1.3776    1.9625 C.3     1  LIG1       -0.0306
     10 C          -0.7906    1.7156    0.2321 C.2     1  LIG1       -0.0836
     11 C          -0.1737    0.7932   -0.7328 C.2     1  LIG1       -0.0629
     12 C          -0.0250   -1.0704   -0.6761 C.3     1  LIG1       -0.0051
     13 C          -0.5222   -1.8610   -2.0187 C.3     1  LIG1       -0.0553
     14 C           1.5429   -1.4187   -1.0510 C.3     1  LIG1       -0.0424
     15 C           2.1443   -0.6572   -2.2722 C.3     1  LIG1       -0.0359
     16 C           1.4484    0.6271   -2.8280 C.3     1  LIG1        0.0741
     17 C           0.4206    0.2826   -3.9088 C.2     1  LIG1        0.3115
     18 O          -0.6145    1.1384   -4.0003 O.3     1  LIG1       -0.4802
     19 O           0.5204   -0.6093   -4.7398 O.2     1  LIG1       -0.2504
     20 C           0.8383    1.4850   -1.6898 C.3     1  LIG1       -0.0031
     21 C           2.0034    2.1151   -0.8562 C.3     1  LIG1       -0.0403
     22 C           3.0006    2.9767   -1.6703 C.3     1  LIG1       -0.0343
     23 C           2.7172    2.8770   -3.1766 C.3     1  LIG1       -0.0468
     24 C           2.5276    1.4363   -3.6423 C.3     1  LIG1       -0.0362
     25 C           4.4424    2.5190   -1.3616 C.3     1  LIG1       -0.0598
     26 C           2.8839    4.4523   -1.2416 C.3     1  LIG1       -0.0598
     27 C          -1.9867   -0.2975    0.5351 C.3     1  LIG1       -0.0032
     28 C          -0.0329   -0.0487    1.4515 C.3     1  LIG1        0.0864
     29 H           0.3279    0.9690    1.6721 H       1  LIG1        0.0624
     30 O           1.3267   -0.2524    1.0065 O.3     1  LIG1       -0.3887
     31 C           0.2445   -0.6157    3.2337 C.3     1  LIG1        0.0821
     32 H           0.0862    0.2927    3.8361 H       1  LIG1        0.0619
     33 O           1.6034   -0.9613    3.4781 O.3     1  LIG1       -0.3892
     34 C          -0.8506   -1.7086    3.7861 C.3     1  LIG1       -0.0184
     35 C          -2.5584   -0.7671   -0.8860 C.3     1  LIG1       -0.0571
     36 C          -3.3375    0.9119    0.5365 C.3     1  LIG1       -0.0571
     37 H          -4.2736   -0.8947    3.8422 H       1  LIG1        0.0235
     38 H          -2.9423   -0.2584    4.8163 H       1  LIG1        0.0235
     39 H          -3.4209   -1.9624    4.9469 H       1  LIG1        0.0235
     40 H          -4.0009   -1.1884    1.6849 H       1  LIG1        0.0312
     41 H          -3.6726   -2.9889    0.1812 H       1  LIG1        0.0268
     42 H          -3.4578   -3.6453    1.7958 H       1  LIG1        0.0268
     43 H          -1.4868   -3.6708   -0.1916 H       1  LIG1        0.0271
     44 H          -1.3495   -3.9926    1.4863 H       1  LIG1        0.0271
     45 H           0.4079   -3.4480    2.2766 H       1  LIG1        0.0235
     46 H           1.5174   -2.2911    1.6133 H       1  LIG1        0.0235
     47 H           0.7976   -3.4670    0.5946 H       1  LIG1        0.0235
     48 H          -2.6002    0.0020    2.4840 H       1  LIG1        0.0315
     49 H          -0.7889    1.8502    2.7104 H       1  LIG1        0.0310
     50 H          -2.3491    1.9801    2.1598 H       1  LIG1        0.0310
     51 H          -0.6943    2.7935    0.0924 H       1  LIG1        0.0572
     52 H          -0.9476   -2.8383   -1.8002 H       1  LIG1        0.0238
     53 H           0.2644   -2.1517   -2.7223 H       1  LIG1        0.0238
     54 H          -1.1878   -1.2889   -2.6652 H       1  LIG1        0.0238
     55 H           1.6216   -2.4987   -1.2596 H       1  LIG1        0.0274
     56 H           2.2968   -1.3497   -0.2659 H       1  LIG1        0.0274
     57 H           2.2913   -1.3767   -3.0892 H       1  LIG1        0.0276
     58 H           3.1677   -0.3991   -1.9677 H       1  LIG1        0.0276
     59 H          -1.1339    0.7968   -4.7572 H       1  LIG1        0.2951
     60 H           0.2850    2.3244   -2.1350 H       1  LIG1        0.0357
     61 H           2.5577    1.3118   -0.3586 H       1  LIG1        0.0276
     62 H           1.6024    2.7204   -0.0346 H       1  LIG1        0.0276
     63 H           3.5340    3.3361   -3.7484 H       1  LIG1        0.0271
     64 H           1.8171    3.4514   -3.4325 H       1  LIG1        0.0271
     65 H           3.4993    0.9281   -3.6154 H       1  LIG1        0.0276
     66 H           2.2759    1.4755   -4.7112 H       1  LIG1        0.0276
     67 H           4.6048    1.4708   -1.6314 H       1  LIG1        0.0235
     68 H           4.6662    2.6181   -0.2930 H       1  LIG1        0.0235
     69 H           5.1761    3.1186   -1.9116 H       1  LIG1        0.0235
     70 H           3.1134    4.5745   -0.1764 H       1  LIG1        0.0235
     71 H           1.8715    4.8352   -1.4102 H       1  LIG1        0.0235
     72 H           3.5808    5.0839   -1.8041 H       1  LIG1        0.0235
     73 H           1.8946   -0.3041    1.8058 H       1  LIG1        0.2099
     74 H           1.6537   -1.3054    4.3873 H       1  LIG1        0.2099
     75 H          -0.8948   -1.5297    4.8720 H       1  LIG1        0.0296
     76 H          -0.5116   -2.7417    3.7449 H       1  LIG1        0.0296
     77 H          -2.4187   -1.8091   -1.1168 H       1  LIG1        0.0236
     78 H          -2.3468   -0.0579   -1.6913 H       1  LIG1        0.0236
     79 H          -3.6548   -0.8418   -0.9099 H       1  LIG1        0.0236
     80 H          -3.7938    1.1093    1.5129 H       1  LIG1        0.0236
     81 H          -4.2361    0.5407    0.0272 H       1  LIG1        0.0236
     82 H          -3.0923    1.8297   -0.0061 H       1  LIG1        0.0236
@<TRIPOS>BOND
     1     1     2    1
     2     2     3    1
     3     3     4    1
     4     4     5    1
     5     5     6    1
     6     6     7    1
     7     6     8    1
     8     2     8    1
     9     8     9    1
    10     9    10    1
    11    10    11    2
    12    11    12    1
    13    12    13    1
    14     6    12    1
    15    12    14    1
    16    14    15    1
    17    15    16    1
    18    16    17    1
    19    17    18    1
    20    17    19    2
    21    16    20    1
    22    11    20    1
    23    20    21    1
    24    21    22    1
    25    22    23    1
    26    23    24    1
    27    16    24    1
    28    22    25    1
    29    22    26    1
    30     3    27    1
    31    27    28    1
    32    28    31    1
    33    31    32    1
    34    31    33    1
    35    31    34    1
    36     2    34    1
    37    27    35    1
    38    27    36    1
    39    28    30    1
    40    28    29    1
    41     1    37    1
    42     1    38    1
    43     1    39    1
    44     3    40    1
    45     4    41    1
    46     4    42    1
    47     5    43    1
    48     5    44    1
    49     7    45    1
    50     7    46    1
    51     7    47    1
    52     8    48    1
    53     9    49    1
    54     9    50    1
    55    10    51    1
    56    13    52    1
    57    13    53    1
    58    13    54    1
    59    14    55    1
    60    14    56    1
    61    15    57    1
    62    15    58    1
    63    18    59    1
    64    20    60    1
    65    21    61    1
    66    21    62    1
    67    23    63    1
    68    23    64    1
    69    24    65    1
    70    24    66    1
    71    25    67    1
    72    25    68    1
    73    25    69    1
    74    26    70    1
    75    26    71    1
    76    26    72    1
    77    30    73    1
    78    33    74    1
    79    34    75    1
    80    34    76    1
    81    35    77    1
    82    35    78    1
    83    35    79    1
    84    36    80    1
    85    36    81    1
    86    36    82    1
