REMARK  Name = NuBBE_118
REMARK  18 active torsions:
REMARK  status: ('A' for Active; 'I' for Inactive)
REMARK    1  A    between atoms: C_1  and  O_2
REMARK    2  A    between atoms: O_2  and  C_3
REMARK    3  A    between atoms: C_5  and  O_6
REMARK    4  A    between atoms: O_6  and  C_7
REMARK    5  A    between atoms: C_10  and  C_21
REMARK    6  A    between atoms: C_12  and  O_20
REMARK    7  A    between atoms: C_14  and  O_19
REMARK    8  A    between atoms: C_16  and  O_18
REMARK    9  A    between atoms: C_21  and  O_22
REMARK   10  A    between atoms: O_22  and  C_23
REMARK   11  A    between atoms: C_27  and  C_28
REMARK   12  A    between atoms: C_27  and  O_33
REMARK   13  A    between atoms: C_28  and  O_29
REMARK   14  A    between atoms: C_30  and  O_32
REMARK   15  A    between atoms: C_35  and  O_36
REMARK   16  A    between atoms: O_36  and  C_37
REMARK   17  A    between atoms: C_38  and  O_39
REMARK   18  A    between atoms: O_39  and  C_40
REMARK                            x       y       z     vdW  Elec       q    Type
REMARK                         _______ _______ _______ _____ _____    ______ ____
ROOT
ATOM      1  C   LIG A   1       1.390   0.607   2.039  0.00  0.00    +0.339 C 
ATOM      2  O   LIG A   1       0.112   0.855   1.446  0.00  0.00    -0.331 OA
ATOM      3  C   LIG A   1      -0.818   1.544   2.286  0.00  0.00    +0.179 C 
ATOM      4  C   LIG A   1      -0.233   2.905   2.687  0.00  0.00    +0.177 C 
ATOM      5  C   LIG A   1       1.070   2.657   3.450  0.00  0.00    +0.180 C 
ATOM      6  C   LIG A   1       2.054   1.880   2.583  0.00  0.00    +0.214 C 
ENDROOT
BRANCH   6   7
ATOM      7  O   LIG A   1       3.208   1.551   3.380  0.00  0.00    -0.383 OA
ATOM      8  H   LIG A   1       3.492   2.394   3.784  0.00  0.00    +0.210 HD
ENDBRANCH   6   7
BRANCH   5   9
ATOM      9  O   LIG A   1       1.670   3.904   3.834  0.00  0.00    -0.386 OA
ATOM     10  H   LIG A   1       0.942   4.421   4.234  0.00  0.00    +0.210 HD
ENDBRANCH   5   9
BRANCH   4  11
ATOM     11  O   LIG A   1      -1.108   3.650   3.538  0.00  0.00    -0.387 OA
ATOM     12  H   LIG A   1      -1.747   4.104   2.958  0.00  0.00    +0.210 HD
ENDBRANCH   4  11
BRANCH   1  13
ATOM     13  O   LIG A   1       2.273   0.092   1.042  0.00  0.00    -0.461 OA
BRANCH  13  16
ATOM     14  C   LIG A   1       2.871  -2.996  -0.782  0.00  0.00    +0.169 A 
ATOM     15  C   LIG A   1       2.934  -1.671  -0.346  0.00  0.00    +0.095 A 
ATOM     16  C   LIG A   1       2.075  -1.209   0.657  0.00  0.00    +0.131 A 
ATOM     17  C   LIG A   1       1.139  -2.086   1.205  0.00  0.00    +0.095 A 
ATOM     18  C   LIG A   1       1.047  -3.417   0.783  0.00  0.00    +0.169 A 
ATOM     19  C   LIG A   1       1.893  -3.866  -0.249  0.00  0.00    +0.204 A 
BRANCH  14  21
ATOM     20  C   LIG A   1       4.651  -2.650  -2.340  0.00  0.00    +0.277 C 
ATOM     21  O   LIG A   1       3.753  -3.538  -1.687  0.00  0.00    -0.491 OA
ENDBRANCH  14  21
BRANCH  18  22
ATOM     22  O   LIG A   1       0.090  -4.090   1.487  0.00  0.00    -0.491 OA
ATOM     23  C   LIG A   1      -0.084  -5.473   1.253  0.00  0.00    +0.277 C 
ENDBRANCH  18  22
BRANCH  19  24
ATOM     24  O   LIG A   1       1.779  -5.168  -0.663  0.00  0.00    -0.488 OA
ATOM     25  C   LIG A   1       1.680  -5.335  -2.076  0.00  0.00    +0.277 C 
ENDBRANCH  19  24
ENDBRANCH  13  16
ENDBRANCH   1  13
BRANCH   3  26
ATOM     26  C   LIG A   1      -2.149   1.675   1.523  0.00  0.00    +0.197 C 
BRANCH  26  27
ATOM     27  O   LIG A   1      -1.935   2.366   0.288  0.00  0.00    -0.346 OA
BRANCH  27  28
ATOM     28  C   LIG A   1      -3.152   2.634  -0.408  0.00  0.00    +0.282 C 
ATOM     29  O   LIG A   1      -3.867   1.427  -0.733  0.00  0.00    -0.346 OA
ATOM     30  C   LIG A   1      -4.148   1.456  -2.142  0.00  0.00    +0.203 C 
ATOM     31  C   LIG A   1      -3.009   2.244  -2.775  0.00  0.00    +0.142 C 
ATOM     32  C   LIG A   1      -2.813   3.341  -1.730  0.00  0.00    +0.206 C 
BRANCH  32  33
ATOM     33  O   LIG A   1      -3.752   4.407  -1.977  0.00  0.00    -0.384 OA
ATOM     34  H   LIG A   1      -3.952   4.350  -2.937  0.00  0.00    +0.210 HD
ENDBRANCH  32  33
BRANCH  31  35
ATOM     35  O   LIG A   1      -3.398   2.857  -4.017  0.00  0.00    -0.381 OA
ATOM     36  H   LIG A   1      -2.770   2.551  -4.698  0.00  0.00    +0.210 HD
ENDBRANCH  31  35
BRANCH  31  37
ATOM     37  C   LIG A   1      -1.758   1.363  -2.953  0.00  0.00    +0.195 C 
BRANCH  37  38
ATOM     38  O   LIG A   1      -2.035   0.335  -3.908  0.00  0.00    -0.392 OA
ATOM     39  H   LIG A   1      -1.442  -0.412  -3.703  0.00  0.00    +0.209 HD
ENDBRANCH  37  38
ENDBRANCH  31  37
ENDBRANCH  27  28
ENDBRANCH  26  27
ENDBRANCH   3  26
TORSDOF 15
