@<TRIPOS>MOLECULE
NuBBE_191
 81 85 0 0 0
SMALL
GASTEIGER

@<TRIPOS>ATOM
      1 C          -1.7725   -3.4363    4.5079 C.3     1  LIG1       -0.0572
      2 C          -1.6540   -1.9069    4.3528 C.3     1  LIG1       -0.0056
      3 C          -3.0720   -1.2606    4.3597 C.3     1  LIG1        0.0606
      4 H          -3.6665   -1.6555    5.1931 H       1  LIG1        0.0599
      5 C          -3.8473   -1.4808    3.0612 C.3     1  LIG1       -0.0258
      6 C          -3.0645   -1.0438    1.8166 C.3     1  LIG1       -0.0447
      7 C          -1.6446   -1.6807    1.6885 C.3     1  LIG1       -0.0250
      8 C          -0.8949   -1.4505    3.0521 C.3     1  LIG1       -0.0278
      9 C           0.5677   -1.9194    2.9548 C.3     1  LIG1       -0.0486
     10 C           1.3214   -1.0796    1.9222 C.3     1  LIG1       -0.0463
     11 C           0.7212   -1.1147    0.4888 C.3     1  LIG1       -0.0194
     12 C          -0.8356   -0.8958    0.5571 C.3     1  LIG1       -0.0257
     13 H          -0.9674    0.1578    0.8408 H       1  LIG1        0.0315
     14 C          -1.4385   -1.0106   -0.8563 C.3     1  LIG1       -0.0306
     15 C          -0.6769   -0.2374   -1.8900 C.2     1  LIG1       -0.0836
     16 C           0.5619    0.2695   -1.7574 C.2     1  LIG1       -0.0626
     17 C           1.3776    0.0489   -0.4565 C.3     1  LIG1       -0.0051
     18 C           1.3871    1.4589    0.2231 C.3     1  LIG1       -0.0424
     19 C           1.8216    2.6291   -0.6863 C.3     1  LIG1       -0.0359
     20 C           1.0798    2.7220   -2.0640 C.3     1  LIG1        0.0743
     21 C           1.1594    1.3023   -2.7321 C.3     1  LIG1       -0.0008
     22 H           2.2290    1.0651   -2.7105 H       1  LIG1        0.0359
     23 C           0.9421    1.2190   -4.2892 C.3     1  LIG1       -0.0337
     24 H           1.3641    0.2525   -4.6045 H       1  LIG1        0.0307
     25 C           1.7533    2.3299   -5.0195 C.3     1  LIG1       -0.0407
     26 H           1.4411    2.3658   -6.0720 H       1  LIG1        0.0301
     27 C           1.4644    3.7072   -4.4135 C.3     1  LIG1       -0.0492
     28 C           1.8084    3.7829   -2.9298 C.3     1  LIG1       -0.0364
     29 C           3.2581    2.0276   -5.0570 C.3     1  LIG1       -0.0622
     30 C          -0.4814    1.2185   -4.8575 C.3     1  LIG1       -0.0616
     31 C          -0.3715    3.2084   -1.8364 C.2     1  LIG1        0.3115
     32 O          -0.4811    4.3547   -1.1210 O.3     1  LIG1       -0.4802
     33 O          -1.3810    2.6824   -2.2800 O.2     1  LIG1       -0.2504
     34 C           2.8512   -0.3483   -0.7756 C.3     1  LIG1       -0.0553
     35 C           1.0586   -2.5115   -0.1181 C.3     1  LIG1       -0.0585
     36 C          -1.8380   -3.1772    1.3386 C.3     1  LIG1       -0.0590
     37 O          -2.9841    0.1558    4.5496 O.3     1  LIG1       -0.3912
     38 C          -0.8807   -1.4153    5.6081 C.3     1  LIG1       -0.0572
     39 H          -2.4872   -3.8876    3.8209 H       1  LIG1        0.0236
     40 H          -2.1257   -3.6946    5.5141 H       1  LIG1        0.0236
     41 H          -0.8068   -3.9327    4.3701 H       1  LIG1        0.0236
     42 H          -4.7753   -0.8951    3.0928 H       1  LIG1        0.0290
     43 H          -4.1528   -2.5277    2.9764 H       1  LIG1        0.0290
     44 H          -2.9752    0.0504    1.8385 H       1  LIG1        0.0271
     45 H          -3.6693   -1.2822    0.9333 H       1  LIG1        0.0271
     46 H          -0.8301   -0.3545    3.1585 H       1  LIG1        0.0312
     47 H           0.6469   -2.9841    2.7211 H       1  LIG1        0.0268
     48 H           1.0844   -1.7833    3.9097 H       1  LIG1        0.0268
     49 H           2.3675   -1.4059    1.9135 H       1  LIG1        0.0271
     50 H           1.3284   -0.0553    2.3073 H       1  LIG1        0.0271
     51 H          -2.4623   -0.6200   -0.8438 H       1  LIG1        0.0310
     52 H          -1.5004   -2.0438   -1.2066 H       1  LIG1        0.0310
     53 H          -1.2896    0.0105   -2.7447 H       1  LIG1        0.0572
     54 H           2.0740    1.4571    1.0776 H       1  LIG1        0.0274
     55 H           0.3974    1.7050    0.6223 H       1  LIG1        0.0274
     56 H           2.9001    2.5373   -0.8672 H       1  LIG1        0.0276
     57 H           1.7210    3.5555   -0.1105 H       1  LIG1        0.0276
     58 H           0.4076    3.9620   -4.5574 H       1  LIG1        0.0268
     59 H           2.0366    4.4728   -4.9520 H       1  LIG1        0.0268
     60 H           1.5858    4.7980   -2.5799 H       1  LIG1        0.0276
     61 H           2.8941    3.6740   -2.8179 H       1  LIG1        0.0276
     62 H           3.7902    2.8087   -5.6112 H       1  LIG1        0.0233
     63 H           3.4441    1.0767   -5.5675 H       1  LIG1        0.0233
     64 H           3.7080    1.9636   -4.0630 H       1  LIG1        0.0233
     65 H          -0.4558    1.2869   -5.9523 H       1  LIG1        0.0233
     66 H          -1.0849    2.0545   -4.5080 H       1  LIG1        0.0233
     67 H          -0.9993    0.2792   -4.6592 H       1  LIG1        0.0233
     68 H           0.3547    4.7625   -0.8370 H       1  LIG1        0.2951
     69 H           3.4503    0.4735   -1.1763 H       1  LIG1        0.0238
     70 H           2.8989   -1.1556   -1.5149 H       1  LIG1        0.0238
     71 H           3.3847   -0.6739    0.1223 H       1  LIG1        0.0238
     72 H           2.1261   -2.7412   -0.0271 H       1  LIG1        0.0235
     73 H           0.8060   -2.5788   -1.1805 H       1  LIG1        0.0235
     74 H           0.5478   -3.3285    0.3865 H       1  LIG1        0.0235
     75 H          -2.7389   -3.6003    1.7870 H       1  LIG1        0.0235
     76 H          -1.0109   -3.8062    1.6697 H       1  LIG1        0.0235
     77 H          -1.9707   -3.3471    0.2690 H       1  LIG1        0.0235
     78 H          -2.7815    0.3175    5.4862 H       1  LIG1        0.2098
     79 H          -0.5811   -0.3656    5.5180 H       1  LIG1        0.0236
     80 H           0.0252   -2.0050    5.7848 H       1  LIG1        0.0236
     81 H          -1.4978   -1.5101    6.5095 H       1  LIG1        0.0236
@<TRIPOS>BOND
     1     2     3    1
     2     3     5    1
     3     5     6    1
     4     6     7    1
     5     7     8    1
     6     8     9    1
     7     9    10    1
     8    10    11    1
     9    11    12    1
    10    12    14    1
    11    14    15    1
    12    15    16    2
    13    16    17    1
    14    17    18    1
    15    18    19    1
    16    19    20    1
    17    20    21    1
    18    16    21    1
    19    21    23    1
    20    23    25    1
    21    25    27    1
    22    27    28    1
    23    28    20    1
    24    31    32    1
    25    31    33    2
    26    11    17    1
    27    12     7    1
    28     8     2    1
    29     1     2    1
    30     2    38    1
    31     3     4    1
    32     3    37    1
    33     7    36    1
    34    11    35    1
    35    12    13    1
    36    17    34    1
    37    20    31    1
    38    21    22    1
    39    23    30    1
    40    23    24    1
    41    25    29    1
    42    25    26    1
    43     1    39    1
    44     1    40    1
    45     1    41    1
    46     5    42    1
    47     5    43    1
    48     6    44    1
    49     6    45    1
    50     8    46    1
    51     9    47    1
    52     9    48    1
    53    10    49    1
    54    10    50    1
    55    14    51    1
    56    14    52    1
    57    15    53    1
    58    18    54    1
    59    18    55    1
    60    19    56    1
    61    19    57    1
    62    27    58    1
    63    27    59    1
    64    28    60    1
    65    28    61    1
    66    29    62    1
    67    29    63    1
    68    29    64    1
    69    30    65    1
    70    30    66    1
    71    30    67    1
    72    32    68    1
    73    34    69    1
    74    34    70    1
    75    34    71    1
    76    35    72    1
    77    35    73    1
    78    35    74    1
    79    36    75    1
    80    36    76    1
    81    36    77    1
    82    37    78    1
    83    38    79    1
    84    38    80    1
    85    38    81    1
