@<TRIPOS>MOLECULE
NuBBE_550
 40 43 0 0 0
SMALL
GASTEIGER

@<TRIPOS>ATOM
      1 C           3.8391   -3.6508   -1.1039 C.3     1  LIG1        0.0788
      2 O           2.5220   -3.6931   -1.6493 O.3     1  LIG1       -0.4951
      3 C           1.8620   -2.4924   -1.6677 C.ar    1  LIG1        0.1201
      4 C           2.3812   -1.2956   -1.1779 C.ar    1  LIG1       -0.0196
      5 C           1.6461   -0.1169   -1.2647 C.ar    1  LIG1       -0.0526
      6 C           0.3711   -0.1050   -1.8416 C.ar    1  LIG1       -0.0168
      7 C          -0.4356    1.1749   -1.9144 C.3     1  LIG1        0.1025
      8 C          -1.7402    1.1911   -1.0321 C.3     1  LIG1        0.0762
      9 C          -1.4837    0.9847    0.4623 C.ar    1  LIG1       -0.0137
     10 C          -1.2182   -0.3025    0.9652 C.ar    1  LIG1       -0.0105
     11 C          -0.8840   -0.4285    2.2956 C.ar    1  LIG1        0.1666
     12 C          -0.8245    0.6573    3.1325 C.ar    1  LIG1        0.1668
     13 C          -1.1347    1.9294    2.6978 C.ar    1  LIG1       -0.0086
     14 C          -1.4889    2.0964    1.3505 C.ar    1  LIG1       -0.0151
     15 C          -1.9257    3.4118    0.8712 C.2     1  LIG1       -0.0406
     16 C          -2.4049    3.5180   -0.3817 C.2     1  LIG1       -0.0095
     17 N          -2.4459    2.4708   -1.2604 N.pl3   1  LIG1       -0.3401
     18 O          -0.4527    0.3160    4.3963 O.3     1  LIG1       -0.4526
     19 C          -0.2596   -1.1066    4.2468 C.3     1  LIG1        0.2332
     20 O          -0.5711   -1.5918    2.9257 O.3     1  LIG1       -0.4526
     21 O           0.4047    2.3119   -1.6454 O.3     1  LIG1       -0.3850
     22 C          -0.1534   -1.3137   -2.3270 C.ar    1  LIG1       -0.0526
     23 C           0.5842   -2.4996   -2.2306 C.ar    1  LIG1       -0.0196
     24 H           4.2970   -4.6366   -1.2161 H       1  LIG1        0.0660
     25 H           3.8029   -3.4143   -0.0343 H       1  LIG1        0.0660
     26 H           4.4705   -2.9343   -1.6430 H       1  LIG1        0.0660
     27 H           3.3607   -1.2340   -0.7184 H       1  LIG1        0.0654
     28 H           2.0851    0.7972   -0.8697 H       1  LIG1        0.0622
     29 H          -0.7354    1.3017   -2.9629 H       1  LIG1        0.0666
     30 H          -2.4103    0.3917   -1.3697 H       1  LIG1        0.0577
     31 H          -1.2485   -1.1849    0.3361 H       1  LIG1        0.0659
     32 H          -1.1097    2.7625    3.3903 H       1  LIG1        0.0661
     33 H          -1.9165    4.2562    1.5435 H       1  LIG1        0.0636
     34 H          -2.7898    4.4567   -0.7597 H       1  LIG1        0.0778
     35 H          -2.6923    2.6905   -2.2227 H       1  LIG1        0.1462
     36 H          -0.8981   -1.6245    4.9714 H       1  LIG1        0.1166
     37 H           0.7876   -1.3455    4.4678 H       1  LIG1        0.1166
     38 H          -0.2035    3.0281   -1.3880 H       1  LIG1        0.2103
     39 H          -1.1447   -1.3460   -2.7738 H       1  LIG1        0.0622
     40 H           0.1577   -3.4302   -2.5982 H       1  LIG1        0.0654
@<TRIPOS>BOND
     1     1     2    1
     2     2     3    1
     3     3     4   ar
     4     4     5   ar
     5     5     6   ar
     6     6     7    1
     7     7     8    1
     8     8     9    1
     9     9    10   ar
    10    10    11   ar
    11    11    12   ar
    12    12    13   ar
    13    13    14   ar
    14     9    14   ar
    15    14    15    1
    16    15    16    2
    17    16    17    1
    18     8    17    1
    19    12    18    1
    20    18    19    1
    21    19    20    1
    22    11    20    1
    23     7    21    1
    24     6    22   ar
    25    22    23   ar
    26     3    23   ar
    27     1    24    1
    28     1    25    1
    29     1    26    1
    30     4    27    1
    31     5    28    1
    32     7    29    1
    33     8    30    1
    34    10    31    1
    35    13    32    1
    36    15    33    1
    37    16    34    1
    38    17    35    1
    39    19    36    1
    40    19    37    1
    41    21    38    1
    42    22    39    1
    43    23    40    1
