REMARK  Name = NuBBE_2289
REMARK  4 active torsions:
REMARK  status: ('A' for Active; 'I' for Inactive)
REMARK    1  A    between atoms: C_1  and  C_2
REMARK    2  A    between atoms: C_2  and  C_3
REMARK    3  A    between atoms: C_5  and  C_13
REMARK    4  A    between atoms: C_8  and  C_9
REMARK                            x       y       z     vdW  Elec       q    Type
REMARK                         _______ _______ _______ _____ _____    ______ ____
ROOT
ATOM      1  C   LIG A   1      -1.666  -1.757  -0.035  0.00  0.00    +0.011 C 
ATOM      2  C   LIG A   1      -0.117  -1.694  -0.089  0.00  0.00    -0.028 C 
ATOM      3  C   LIG A   1       0.388  -2.798   0.871  0.00  0.00    +0.011 C 
ATOM      4  C   LIG A   1       0.428  -0.269   0.293  0.00  0.00    -0.011 C 
ATOM      5  C   LIG A   1       0.371   0.822  -0.843  0.00  0.00    -0.022 C 
ATOM      6  C   LIG A   1      -1.056   1.468  -0.821  0.00  0.00    +0.034 C 
ATOM      7  C   LIG A   1      -1.489   1.866   0.581  0.00  0.00    -0.027 C 
ATOM      8  C   LIG A   1      -0.746   1.525   1.626  0.00  0.00    -0.073 C 
ATOM      9  C   LIG A   1      -0.476   2.496   2.748  0.00  0.00    +0.039 C 
ATOM     10  C   LIG A   1      -0.048   0.225   1.670  0.00  0.00    +0.022 C 
ATOM     11  C   LIG A   1       1.395  -0.037   1.464  0.00  0.00    +0.017 C 
ATOM     12  C   LIG A   1       1.440   1.950  -0.649  0.00  0.00    +0.012 C 
ATOM     13  C   LIG A   1       0.707   0.247  -2.237  0.00  0.00    +0.007 C 
ATOM     14  C   LIG A   1       0.016  -1.059  -2.564  0.00  0.00    +0.001 C 
ATOM     15  C   LIG A   1       0.359  -2.092  -1.503  0.00  0.00    +0.007 C 
ENDROOT
TORSDOF 0
