REMARK  Name = NuBBE_2367
REMARK  7 active torsions:
REMARK  status: ('A' for Active; 'I' for Inactive)
REMARK    1  A    between atoms: C_1  and  O_3
REMARK    2  A    between atoms: C_1  and  C_5
REMARK    3  A    between atoms: O_3  and  C_4
REMARK    4  A    between atoms: C_14  and  C_16
REMARK    5  A    between atoms: C_16  and  C_17
REMARK    6  A    between atoms: C_27  and  O_30
REMARK    7  A    between atoms: O_30  and  C_31
REMARK                            x       y       z     vdW  Elec       q    Type
REMARK                         _______ _______ _______ _____ _____    ______ ____
ROOT
ATOM      1  C   LIG A   1      -0.582  -0.003  -1.411  0.00  0.00    +0.123 C 
ATOM      2  C   LIG A   1       0.902  -0.690  -1.382  0.00  0.00    +0.082 C 
ATOM      3  N   LIG A   1       1.749   0.167  -2.161  0.00  0.00    -0.297 NA
ATOM      4  C   LIG A   1       1.111   0.199  -3.510  0.00  0.00    +0.088 C 
ATOM      5  C   LIG A   1      -0.098  -0.877  -3.640  0.00  0.00    +0.005 C 
ATOM      6  C   LIG A   1      -1.247  -0.715  -2.558  0.00  0.00    +0.030 C 
ATOM      7  C   LIG A   1       0.511  -2.249  -3.338  0.00  0.00    +0.010 C 
ATOM      8  C   LIG A   1       1.044  -2.166  -1.902  0.00  0.00    +0.008 C 
ATOM      9  C   LIG A   1       1.936   1.421  -1.366  0.00  0.00    +0.089 C 
ATOM     10  C   LIG A   1       1.471   1.541   0.201  0.00  0.00    +0.053 C 
ATOM     11  C   LIG A   1       0.190   0.828   0.772  0.00  0.00    -0.017 A 
ATOM     12  C   LIG A   1      -0.752   0.098   0.046  0.00  0.00    +0.039 A 
ATOM     13  N   LIG A   1      -1.657  -0.483   0.875  0.00  0.00    -0.357 N 
ATOM     14  H   LIG A   1      -2.436  -1.068   0.602  0.00  0.00    +0.166 HD
ATOM     15  C   LIG A   1      -1.282  -0.230   2.179  0.00  0.00    +0.047 A 
ATOM     16  C   LIG A   1      -0.165   0.611   2.132  0.00  0.00    +0.007 A 
ATOM     17  C   LIG A   1       0.418   1.018   3.336  0.00  0.00    +0.056 A 
ATOM     18  C   LIG A   1      -0.116   0.604   4.558  0.00  0.00    +0.121 A 
ATOM     19  C   LIG A   1      -1.204  -0.273   4.578  0.00  0.00    +0.048 A 
ATOM     20  C   LIG A   1      -1.816  -0.698   3.387  0.00  0.00    +0.030 A 
ENDROOT
BRANCH   1  21
ATOM     21  C   LIG A   1      -1.071   1.526  -1.769  0.00  0.00    +0.321 C 
ATOM     22  O   LIG A   1      -0.472   2.437  -2.284  0.00  0.00    -0.250 OA
BRANCH  21  23
ATOM     23  O   LIG A   1      -2.414   1.644  -1.417  0.00  0.00    -0.467 OA
ATOM     24  C   LIG A   1      -2.955   2.960  -1.598  0.00  0.00    +0.280 C 
ENDBRANCH  21  23
ENDBRANCH   1  21
BRANCH   8  25
ATOM     25  C   LIG A   1       0.427  -3.242  -0.981  0.00  0.00    +0.002 C 
ATOM     26  C   LIG A   1       0.943  -3.216   0.455  0.00  0.00    +0.004 C 
ENDBRANCH   8  25
BRANCH  18  27
ATOM     27  O   LIG A   1       0.407   1.003   5.764  0.00  0.00    -0.495 OA
ATOM     28  C   LIG A   1       1.097   2.257   5.708  0.00  0.00    +0.277 C 
ENDBRANCH  18  27
TORSDOF 4
