@<TRIPOS>MOLECULE
NuBBE_1579
 48 52 0 0 0
SMALL
GASTEIGER

@<TRIPOS>ATOM
      1 O          -1.6163    4.0715   -0.6468 O.2     1  LIG1       -0.2755
      2 C          -1.7972    2.8527   -0.6654 C.2     1  LIG1        0.2170
      3 N          -0.9034    1.9279   -0.1609 N.am    1  LIG1       -0.2642
      4 C          -1.0184    0.4412   -0.2743 C.3     1  LIG1        0.0432
      5 C          -0.0842   -0.1347    0.8360 C.3     1  LIG1        0.0370
      6 C           0.5355   -1.5133    0.5331 C.3     1  LIG1        0.0433
      7 C           0.9393   -1.6620   -0.9087 C.2     1  LIG1       -0.0526
      8 C          -0.2551   -1.4868   -1.8091 C.3     1  LIG1       -0.0155
      9 C          -1.3958   -2.4412   -1.3967 C.3     1  LIG1       -0.0335
     10 C          -1.0648   -3.2757   -0.1517 C.3     1  LIG1        0.0000
     11 N          -0.4940   -2.4968    0.9469 N.3     1  LIG1       -0.2948
     12 C          -1.4912   -1.8159    1.7793 C.3     1  LIG1        0.0004
     13 C          -0.8903   -0.4546    2.1019 C.3     1  LIG1       -0.0270
     14 C          -0.6569   -0.0099   -1.7100 C.3     1  LIG1       -0.0264
     15 C           2.1707   -1.9091   -1.3936 C.2     1  LIG1       -0.0861
     16 C           3.4393   -2.0951   -0.6244 C.3     1  LIG1       -0.0465
     17 C           0.8482    1.0283    1.0515 C.ar    1  LIG1       -0.0126
     18 C           2.0500    1.0194    1.7563 C.ar    1  LIG1       -0.0559
     19 C           2.7474    2.2139    1.9102 C.ar    1  LIG1       -0.0579
     20 C           2.2336    3.3989    1.3763 C.ar    1  LIG1       -0.0183
     21 C           1.0207    3.4068    0.6807 C.ar    1  LIG1        0.1385
     22 O           0.6427    4.6267    0.2088 O.3     1  LIG1       -0.5049
     23 C           0.3239    2.2136    0.5041 C.ar    1  LIG1        0.0821
     24 C          -3.0822    2.3204   -1.2518 C.3     1  LIG1        0.0127
     25 H          -2.0601    0.1639   -0.0860 H       1  LIG1        0.0514
     26 H           1.3874   -1.6882    1.1961 H       1  LIG1        0.0518
     27 H           0.0058   -1.6938   -2.8550 H       1  LIG1        0.0347
     28 H          -2.3322   -1.8922   -1.2421 H       1  LIG1        0.0283
     29 H          -1.5949   -3.1321   -2.2262 H       1  LIG1        0.0283
     30 H          -0.3403   -4.0524   -0.4314 H       1  LIG1        0.0427
     31 H          -1.9546   -3.8247    0.1807 H       1  LIG1        0.0427
     32 H          -1.6941   -2.3863    2.6912 H       1  LIG1        0.0427
     33 H          -2.4440   -1.6819    1.2536 H       1  LIG1        0.0427
     34 H          -0.2338   -0.5349    2.9785 H       1  LIG1        0.0287
     35 H          -1.6600    0.2904    2.3315 H       1  LIG1        0.0287
     36 H          -1.5018    0.1751   -2.3821 H       1  LIG1        0.0289
     37 H           0.1653    0.6093   -2.0967 H       1  LIG1        0.0289
     38 H           2.2964   -1.9856   -2.4734 H       1  LIG1        0.0569
     39 H           3.3160   -2.0113    0.4565 H       1  LIG1        0.0272
     40 H           4.1705   -1.3426   -0.9362 H       1  LIG1        0.0272
     41 H           3.8568   -3.0840   -0.8386 H       1  LIG1        0.0272
     42 H           2.4430    0.1083    2.1969 H       1  LIG1        0.0621
     43 H           3.6882    2.2316    2.4544 H       1  LIG1        0.0619
     44 H           2.7808    4.3301    1.5041 H       1  LIG1        0.0655
     45 H          -0.2578    4.5447   -0.1719 H       1  LIG1        0.2922
     46 H          -3.7756    3.1542   -1.4042 H       1  LIG1        0.0323
     47 H          -3.5670    1.6187   -0.5700 H       1  LIG1        0.0323
     48 H          -2.8954    1.8576   -2.2217 H       1  LIG1        0.0323
@<TRIPOS>BOND
     1     1     2    2
     2     2     3   am
     3     3     4    1
     4     4     5    1
     5     5     6    1
     6     6     7    1
     7     7     8    1
     8     8     9    1
     9     9    10    1
    10    10    11    1
    11     6    11    1
    12    11    12    1
    13    12    13    1
    14     8    14    1
    15     4    14    1
    16     7    15    2
    17    15    16    1
    18    13     5    1
    19     5    17    1
    20    17    18   ar
    21    18    19   ar
    22    19    20   ar
    23    20    21   ar
    24    21    22    1
    25    21    23   ar
    26    17    23   ar
    27     3    23    1
    28     2    24    1
    29     4    25    1
    30     6    26    1
    31     8    27    1
    32     9    28    1
    33     9    29    1
    34    10    30    1
    35    10    31    1
    36    12    32    1
    37    12    33    1
    38    13    34    1
    39    13    35    1
    40    14    36    1
    41    14    37    1
    42    15    38    1
    43    16    39    1
    44    16    40    1
    45    16    41    1
    46    18    42    1
    47    19    43    1
    48    20    44    1
    49    22    45    1
    50    24    46    1
    51    24    47    1
    52    24    48    1
