@<TRIPOS>MOLECULE
NuBBE_1441
 65 71 0 0 0
SMALL
GASTEIGER

@<TRIPOS>ATOM
      1 O           4.1298   -0.8782    4.0139 O.2     1  LIG1       -0.2930
      2 C           3.5779   -0.9521    2.9143 C.2     1  LIG1        0.1818
      3 C           3.4312    0.2949    2.0520 C.3     1  LIG1        0.0369
      4 C           2.0080    0.3087    1.5445 C.3     1  LIG1        0.0746
      5 H           1.3920    0.4063    2.4425 H       1  LIG1        0.0607
      6 C           1.6474   -0.9229    0.6957 C.3     1  LIG1        0.0384
      7 C           2.6162   -0.9897   -0.5178 C.3     1  LIG1       -0.0539
      8 C           1.7576   -2.2164    1.5615 C.3     1  LIG1        0.1563
      9 C           3.1009   -2.3189    2.3379 C.3     1  LIG1        0.1998
     10 O           2.8149   -3.2399    3.4094 O.3     1  LIG1       -0.4457
     11 C           1.4958   -3.2151    3.7188 C.2     1  LIG1        0.3401
     12 C           0.7220   -2.4155    2.6976 C.3     1  LIG1        0.1852
     13 H          -0.1302   -3.0098    2.3502 H       1  LIG1        0.0742
     14 O           0.2535   -1.2327    3.3153 O.3     1  LIG1       -0.3780
     15 O           1.0034   -3.7520    4.7003 O.2     1  LIG1       -0.2478
     16 C           4.2801   -2.9649    1.6043 C.3     1  LIG1       -0.0148
     17 O           1.5849   -3.3240    0.6400 O.3     1  LIG1       -0.3803
     18 C           0.2082   -0.5125    0.2389 C.3     1  LIG1        0.0297
     19 C          -0.4510   -1.0126   -1.0823 C.3     1  LIG1        0.1010
     20 C           0.3248   -0.8869   -2.4063 C.3     1  LIG1       -0.0329
     21 C          -1.7792   -0.2709   -1.2361 C.3     1  LIG1        0.1328
     22 O          -2.9805   -1.0130   -0.9570 O.3     1  LIG1       -0.3611
     23 C          -1.8794    1.2420   -0.9556 C.3     1  LIG1        0.0374
     24 C          -0.4554    1.8253   -0.7068 C.3     1  LIG1        0.0904
     25 H           0.1555    1.7977   -1.6114 H       1  LIG1        0.0626
     26 O          -0.4982    3.2005   -0.3251 O.3     1  LIG1       -0.3886
     27 C           0.2164    1.0260    0.4113 C.3     1  LIG1        0.0917
     28 H          -0.3138    1.2775    1.3418 H       1  LIG1        0.0626
     29 O           1.5959    1.3945    0.6953 O.3     1  LIG1       -0.3693
     30 C          -2.8009    1.4867    0.2692 C.3     1  LIG1       -0.0537
     31 C          -2.7636   -0.6269   -2.3138 C.3     1  LIG1        0.0925
     32 H          -2.5850   -1.3895   -3.0528 H       1  LIG1        0.0626
     33 C          -3.4532    0.6196   -2.7672 C.3     1  LIG1       -0.0161
     34 C          -2.5313    1.7744   -2.2841 C.3     1  LIG1        0.0002
     35 H          -1.7313    1.8586   -3.0360 H       1  LIG1        0.0358
     36 C          -3.2186    3.1068   -2.2087 C.ar    1  LIG1       -0.0058
     37 C          -4.5467    3.3805   -1.9355 C.ar    1  LIG1        0.0951
     38 O          -4.7870    4.7150   -1.9496 O.2     1  LIG1       -0.4708
     39 C          -3.6079    5.3222   -2.2276 C.ar    1  LIG1        0.0919
     40 C          -2.6177    4.3855   -2.4024 C.ar    1  LIG1       -0.0205
     41 O          -0.6974   -2.4176   -0.9145 O.3     1  LIG1       -0.3855
     42 H           4.1929    0.3188    1.2706 H       1  LIG1        0.0368
     43 H           3.6053    1.1828    2.6707 H       1  LIG1        0.0368
     44 H           3.6663   -0.9888   -0.2342 H       1  LIG1        0.0237
     45 H           2.5108   -0.1220   -1.1749 H       1  LIG1        0.0237
     46 H           2.4796   -1.9014   -1.1024 H       1  LIG1        0.0237
     47 H          -0.3171   -1.5079    4.0625 H       1  LIG1        0.2106
     48 H           4.7005   -2.3469    0.8121 H       1  LIG1        0.0273
     49 H           4.0122   -3.9409    1.1860 H       1  LIG1        0.0273
     50 H           5.0973   -3.1612    2.3109 H       1  LIG1        0.0273
     51 H           1.7590   -4.1673    1.1041 H       1  LIG1        0.2105
     52 H          -0.4869   -0.8696    1.0112 H       1  LIG1        0.0362
     53 H           0.8081    0.0809   -2.5406 H       1  LIG1        0.0258
     54 H          -0.3376   -1.0181   -3.2696 H       1  LIG1        0.0258
     55 H           1.0644   -1.6807   -2.5324 H       1  LIG1        0.0258
     56 H           0.3809    3.4146    0.0435 H       1  LIG1        0.2099
     57 H          -2.4865    0.8927    1.1340 H       1  LIG1        0.0237
     58 H          -3.8374    1.1965    0.0641 H       1  LIG1        0.0237
     59 H          -2.8093    2.5388    0.5712 H       1  LIG1        0.0237
     60 H          -4.4578    0.6619   -2.3338 H       1  LIG1        0.0297
     61 H          -3.5575    0.6441   -3.8574 H       1  LIG1        0.0297
     62 H          -5.4069    2.7648   -1.7099 H       1  LIG1        0.1032
     63 H          -3.6338    6.4021   -2.2599 H       1  LIG1        0.1029
     64 H          -1.5797    4.5966   -2.6185 H       1  LIG1        0.0652
     65 H           0.1447   -2.8508   -0.6717 H       1  LIG1        0.2103
@<TRIPOS>BOND
     1     2     3    1
     2     3     4    1
     3     4     6    1
     4     6     8    1
     5     8     9    1
     6     2     9    1
     7     9    10    1
     8    10    11    1
     9    11    12    1
    10     8    12    1
    11     6    18    1
    12    18    19    1
    13    19    21    1
    14    21    22    1
    15    21    23    1
    16    23    24    1
    17    24    27    1
    18    18    27    1
    19    27    29    1
    20     4    29    1
    21    21    31    1
    22    22    31    1
    23    31    33    1
    24    33    34    1
    25    23    34    1
    26    36    37   ar
    27    37    38   ar
    28    38    39   ar
    29    39    40   ar
    30    36    40   ar
    31     1     2    2
    32     4     5    1
    33     6     7    1
    34     8    17    1
    35     9    16    1
    36    11    15    2
    37    12    13    1
    38    12    14    1
    39    23    30    1
    40    24    25    1
    41    24    26    1
    42    27    28    1
    43    31    32    1
    44    34    35    1
    45    34    36    1
    46    19    41    1
    47    19    20    1
    48     3    42    1
    49     3    43    1
    50     7    44    1
    51     7    45    1
    52     7    46    1
    53    14    47    1
    54    16    48    1
    55    16    49    1
    56    16    50    1
    57    17    51    1
    58    18    52    1
    59    20    53    1
    60    20    54    1
    61    20    55    1
    62    26    56    1
    63    30    57    1
    64    30    58    1
    65    30    59    1
    66    33    60    1
    67    33    61    1
    68    37    62    1
    69    39    63    1
    70    40    64    1
    71    41    65    1
