@<TRIPOS>MOLECULE
NuBBE_1547
 58 61 0 0 0
SMALL
GASTEIGER

@<TRIPOS>ATOM
      1 C          -1.1409    1.6677    1.9624 C.3     1  LIG1       -0.0586
      2 C           0.1199    1.9812    1.1209 C.3     1  LIG1       -0.0191
      3 C          -0.1299    2.0900   -0.3981 C.3     1  LIG1       -0.0252
      4 H           0.8514    2.3028   -0.8577 H       1  LIG1        0.0313
      5 C          -0.9330    3.3723   -0.5838 C.3     1  LIG1        0.0097
      6 C          -0.3178    4.2392    0.4941 C.2     1  LIG1        0.1372
      7 C           0.5444    3.4436    1.4801 C.3     1  LIG1        0.0229
      8 H           0.2160    3.7092    2.4926 H       1  LIG1        0.0383
      9 C           2.0140    3.8414    1.2884 C.3     1  LIG1       -0.0459
     10 C           2.8636    3.5590    2.5200 C.3     1  LIG1       -0.0646
     11 O          -0.5027    5.4486    0.5719 O.2     1  LIG1       -0.2971
     12 C          -0.5927    0.8087   -1.1123 C.3     1  LIG1       -0.0340
     13 H          -0.4430    1.0541   -2.1751 H       1  LIG1        0.0307
     14 C           0.3791   -0.3663   -0.7997 C.3     1  LIG1       -0.0322
     15 H           1.3284   -0.1018   -1.2926 H       1  LIG1        0.0309
     16 C          -0.1064   -1.7097   -1.4586 C.3     1  LIG1       -0.0237
     17 C          -1.5262   -2.1226   -0.9475 C.3     1  LIG1       -0.0329
     18 H          -2.0549   -2.5715   -1.8015 H       1  LIG1        0.0307
     19 C          -1.5630   -3.2007    0.1616 C.3     1  LIG1       -0.0211
     20 C          -0.5870   -4.3406   -0.0468 C.3     1  LIG1        0.0813
     21 H          -0.6546   -5.0528    0.7834 H       1  LIG1        0.0619
     22 O          -0.9254   -5.0612   -1.2325 O.3     1  LIG1       -0.3892
     23 C           0.8319   -3.7886   -0.1478 C.3     1  LIG1        0.0816
     24 H           1.1100   -3.3057    0.7930 H       1  LIG1        0.0619
     25 O           1.7251   -4.8935   -0.3415 O.3     1  LIG1       -0.3892
     26 C           0.9703   -2.8334   -1.3291 C.3     1  LIG1       -0.0185
     27 C          -2.3994   -0.9420   -0.4651 C.3     1  LIG1       -0.0494
     28 C          -2.0823    0.4424   -1.0193 C.3     1  LIG1       -0.0494
     29 C          -0.2206   -1.4687   -3.0023 C.3     1  LIG1       -0.0590
     30 C           0.7334   -0.4687    0.7035 C.3     1  LIG1       -0.0489
     31 C           1.1586    0.8697    1.3361 C.3     1  LIG1       -0.0464
     32 H          -1.9434    2.3953    1.8048 H       1  LIG1        0.0235
     33 H          -0.8960    1.6864    3.0315 H       1  LIG1        0.0235
     34 H          -1.5544    0.6832    1.7586 H       1  LIG1        0.0235
     35 H          -2.0004    3.2619   -0.3859 H       1  LIG1        0.0345
     36 H          -0.7690    3.8120   -1.5707 H       1  LIG1        0.0345
     37 H           2.4528    3.3494    0.4140 H       1  LIG1        0.0269
     38 H           2.0811    4.9182    1.0861 H       1  LIG1        0.0269
     39 H           2.8958    2.4945    2.7622 H       1  LIG1        0.0230
     40 H           2.4767    4.0959    3.3922 H       1  LIG1        0.0230
     41 H           3.8921    3.8937    2.3500 H       1  LIG1        0.0230
     42 H          -2.5831   -3.6039    0.2115 H       1  LIG1        0.0294
     43 H          -1.3576   -2.7520    1.1407 H       1  LIG1        0.0294
     44 H          -0.1626   -5.6528   -1.3892 H       1  LIG1        0.2099
     45 H           2.6251   -4.5289   -0.4098 H       1  LIG1        0.2099
     46 H           0.9717   -3.4533   -2.2377 H       1  LIG1        0.0296
     47 H           1.9772   -2.3942   -1.3215 H       1  LIG1        0.0296
     48 H          -2.3606   -0.8805    0.6267 H       1  LIG1        0.0268
     49 H          -3.4504   -1.1733   -0.6856 H       1  LIG1        0.0268
     50 H          -2.6425    1.1801   -0.4371 H       1  LIG1        0.0268
     51 H          -2.5124    0.5028   -2.0282 H       1  LIG1        0.0268
     52 H          -1.0154   -0.7680   -3.2696 H       1  LIG1        0.0235
     53 H          -0.4536   -2.4015   -3.5308 H       1  LIG1        0.0235
     54 H           0.7214   -1.0854   -3.4111 H       1  LIG1        0.0235
     55 H           1.5751   -1.1578    0.8296 H       1  LIG1        0.0268
     56 H          -0.0953   -0.8906    1.2749 H       1  LIG1        0.0268
     57 H           2.1208    1.1480    0.8912 H       1  LIG1        0.0271
     58 H           1.3407    0.7187    2.4068 H       1  LIG1        0.0271
@<TRIPOS>BOND
     1     2     3    1
     2     3     5    1
     3     5     6    1
     4     6     7    1
     5     2     7    1
     6     9    10    1
     7     3    12    1
     8    12    14    1
     9    14    16    1
    10    16    17    1
    11    17    19    1
    12    19    20    1
    13    20    23    1
    14    23    26    1
    15    17    27    1
    16    27    28    1
    17    12    28    1
    18    26    16    1
    19    14    30    1
    20    30    31    1
    21     2    31    1
    22     1     2    1
    23     3     4    1
    24     6    11    2
    25     7     8    1
    26     7     9    1
    27    12    13    1
    28    14    15    1
    29    16    29    1
    30    17    18    1
    31    20    22    1
    32    20    21    1
    33    23    25    1
    34    23    24    1
    35     1    32    1
    36     1    33    1
    37     1    34    1
    38     5    35    1
    39     5    36    1
    40     9    37    1
    41     9    38    1
    42    10    39    1
    43    10    40    1
    44    10    41    1
    45    19    42    1
    46    19    43    1
    47    22    44    1
    48    25    45    1
    49    26    46    1
    50    26    47    1
    51    27    48    1
    52    27    49    1
    53    28    50    1
    54    28    51    1
    55    29    52    1
    56    29    53    1
    57    29    54    1
    58    30    55    1
    59    30    56    1
    60    31    57    1
    61    31    58    1
