@<TRIPOS>MOLECULE
NuBBE_1933
 39 40 0 0 0
SMALL
GASTEIGER

@<TRIPOS>ATOM
      1 C          -2.6002    0.6572   -0.4083 C.3     1  LIG1       -0.0593
      2 C          -1.0937    1.0026   -0.1117 C.3     1  LIG1       -0.0281
      3 C          -1.2611    2.4069    0.5354 C.3     1  LIG1       -0.0593
      4 C          -0.4419    0.1021    0.9998 C.3     1  LIG1       -0.0110
      5 H          -0.7109    0.5274    1.9811 H       1  LIG1        0.0354
      6 C           1.1359    0.1240    0.9775 C.3     1  LIG1       -0.0131
      7 H           1.4463    0.2683    2.0237 H       1  LIG1        0.0351
      8 C           1.7920    1.3291    0.1970 C.2     1  LIG1       -0.0729
      9 C           1.8040    2.6592    0.4393 C.2     1  LIG1       -0.0992
     10 C           2.2838    1.0166   -1.1706 C.3     1  LIG1       -0.0317
     11 C           1.0570    0.9717   -2.0639 C.3     1  LIG1       -0.0489
     12 C          -0.4024    0.7687   -1.5340 C.3     1  LIG1       -0.0470
     13 C           1.7361   -1.2607    0.5519 C.3     1  LIG1       -0.0423
     14 C           0.9247   -2.5574    0.6176 C.3     1  LIG1       -0.0314
     15 C          -0.5321   -2.4428    0.8153 C.2     1  LIG1       -0.0762
     16 C          -1.1242   -1.2367    1.0483 C.2     1  LIG1       -0.0809
     17 C          -1.3722   -3.6743    0.6963 C.3     1  LIG1       -0.0438
     18 H          -3.2129    0.6469    0.5011 H       1  LIG1        0.0235
     19 H          -2.7192   -0.3091   -0.9089 H       1  LIG1        0.0235
     20 H          -3.0307    1.4181   -1.0732 H       1  LIG1        0.0235
     21 H          -2.1633    2.4204    1.1716 H       1  LIG1        0.0235
     22 H          -1.3586    3.2207   -0.1813 H       1  LIG1        0.0235
     23 H          -0.5065    2.6415    1.2822 H       1  LIG1        0.0235
     24 H           1.3501    3.1726    1.2697 H       1  LIG1        0.0534
     25 H           2.1828    3.3406   -0.3317 H       1  LIG1        0.0534
     26 H           2.9358    0.1396   -1.2138 H       1  LIG1        0.0310
     27 H           2.9799    1.7810   -1.5514 H       1  LIG1        0.0310
     28 H           1.2495    0.1845   -2.8087 H       1  LIG1        0.0268
     29 H           1.0644    1.9018   -2.6459 H       1  LIG1        0.0268
     30 H          -0.5793   -0.2991   -1.7355 H       1  LIG1        0.0271
     31 H          -1.0217    1.2977   -2.2694 H       1  LIG1        0.0271
     32 H           2.6777   -1.4099    1.1152 H       1  LIG1        0.0274
     33 H           2.0375   -1.2573   -0.4863 H       1  LIG1        0.0274
     34 H           1.3366   -3.2112    1.3911 H       1  LIG1        0.0310
     35 H           1.0791   -3.0870   -0.3361 H       1  LIG1        0.0310
     36 H          -2.1793   -1.2457    1.2510 H       1  LIG1        0.0575
     37 H          -0.7615   -4.5399    0.4022 H       1  LIG1        0.0274
     38 H          -2.1355   -3.5505   -0.0790 H       1  LIG1        0.0274
     39 H          -1.8658   -3.9175    1.6424 H       1  LIG1        0.0274
@<TRIPOS>BOND
     1     1     2    1
     2     2     3    1
     3     2     4    1
     4     4     5    1
     5     4     6    1
     6     6     7    1
     7     6     8    1
     8     8     9    2
     9     8    10    1
    10    10    11    1
    11    11    12    1
    12     2    12    1
    13     6    13    1
    14    13    14    1
    15    14    15    1
    16    15    16    2
    17     4    16    1
    18    15    17    1
    19     1    18    1
    20     1    19    1
    21     1    20    1
    22     3    21    1
    23     3    22    1
    24     3    23    1
    25     9    24    1
    26     9    25    1
    27    10    26    1
    28    10    27    1
    29    11    28    1
    30    11    29    1
    31    12    30    1
    32    12    31    1
    33    13    32    1
    34    13    33    1
    35    14    34    1
    36    14    35    1
    37    16    36    1
    38    17    37    1
    39    17    38    1
    40    17    39    1
