@<TRIPOS>MOLECULE
NuBBE_1929
 42 43 0 0 0
SMALL
GASTEIGER

@<TRIPOS>ATOM
      1 C          -0.9960    0.6326   -1.8970 C.3     1  LIG1       -0.0433
      2 C          -1.1737    0.5263   -3.4230 C.3     1  LIG1       -0.0624
      3 C          -2.1296   -0.1275   -1.2179 C.3     1  LIG1       -0.0624
      4 C           0.4578    0.2381   -1.4586 C.3     1  LIG1       -0.0320
      5 H           1.0757    0.8415   -2.1457 H       1  LIG1        0.0309
      6 C           0.9543    0.6977   -0.0428 C.3     1  LIG1       -0.0142
      7 H           2.0129    0.9594   -0.2039 H       1  LIG1        0.0349
      8 C           1.0076   -0.3609    1.1009 C.3     1  LIG1       -0.0056
      9 H           1.7754    0.0001    1.8050 H       1  LIG1        0.0334
     10 C           1.4905   -1.7482    0.6106 C.3     1  LIG1        0.0667
     11 C           0.7248   -2.1993   -0.6350 C.3     1  LIG1       -0.0237
     12 C           0.8472   -1.2150   -1.7911 C.3     1  LIG1       -0.0468
     13 C           1.3972   -2.8356    1.6888 C.3     1  LIG1       -0.0358
     14 O           2.8898   -1.6707    0.2942 O.3     1  LIG1       -0.3886
     15 C          -0.3014   -0.3990    1.9045 C.3     1  LIG1       -0.0434
     16 C          -0.7113    0.9777    2.4359 C.3     1  LIG1       -0.0316
     17 C          -0.4224    2.1297    1.5129 C.2     1  LIG1       -0.0762
     18 C           0.3243    1.9934    0.4047 C.2     1  LIG1       -0.0813
     19 C          -1.0069    3.4531    1.9170 C.3     1  LIG1       -0.0438
     20 H          -1.1426    1.6964   -1.6738 H       1  LIG1        0.0298
     21 H          -1.2077   -0.5119   -3.7656 H       1  LIG1        0.0232
     22 H          -0.3638    1.0397   -3.9515 H       1  LIG1        0.0232
     23 H          -2.1138    0.9994   -3.7296 H       1  LIG1        0.0232
     24 H          -2.0220   -1.2096   -1.3222 H       1  LIG1        0.0232
     25 H          -3.0948    0.1455   -1.6602 H       1  LIG1        0.0232
     26 H          -2.1987    0.1295   -0.1615 H       1  LIG1        0.0232
     27 H          -0.3298   -2.3655   -0.3929 H       1  LIG1        0.0293
     28 H           1.1220   -3.1628   -0.9808 H       1  LIG1        0.0293
     29 H           0.2744   -1.6017   -2.6390 H       1  LIG1        0.0269
     30 H           1.8898   -1.2166   -2.1363 H       1  LIG1        0.0269
     31 H           0.3620   -3.0940    1.9324 H       1  LIG1        0.0257
     32 H           1.9070   -2.5184    2.6057 H       1  LIG1        0.0257
     33 H           1.9010   -3.7525    1.3597 H       1  LIG1        0.0257
     34 H           3.0408   -0.9407   -0.3267 H       1  LIG1        0.2102
     35 H          -0.2000   -1.0588    2.7741 H       1  LIG1        0.0272
     36 H          -1.1053   -0.8296    1.3040 H       1  LIG1        0.0272
     37 H          -0.1825    1.1618    3.3801 H       1  LIG1        0.0310
     38 H          -1.7816    0.9508    2.6739 H       1  LIG1        0.0310
     39 H           0.5123    2.8605   -0.2266 H       1  LIG1        0.0575
     40 H          -2.0990    3.3888    1.9574 H       1  LIG1        0.0274
     41 H          -0.7459    4.2514    1.2144 H       1  LIG1        0.0274
     42 H          -0.6378    3.7448    2.9055 H       1  LIG1        0.0274
@<TRIPOS>BOND
     1     1     2    1
     2     1     3    1
     3     1     4    1
     4     4     5    1
     5     4     6    1
     6     6     7    1
     7     6     8    1
     8     8     9    1
     9     8    10    1
    10    10    11    1
    11    11    12    1
    12     4    12    1
    13    10    13    1
    14    10    14    1
    15     8    15    1
    16    15    16    1
    17    16    17    1
    18    17    18    2
    19     6    18    1
    20    17    19    1
    21     1    20    1
    22     2    21    1
    23     2    22    1
    24     2    23    1
    25     3    24    1
    26     3    25    1
    27     3    26    1
    28    11    27    1
    29    11    28    1
    30    12    29    1
    31    12    30    1
    32    13    31    1
    33    13    32    1
    34    13    33    1
    35    14    34    1
    36    15    35    1
    37    15    36    1
    38    16    37    1
    39    16    38    1
    40    18    39    1
    41    19    40    1
    42    19    41    1
    43    19    42    1
