@<TRIPOS>MOLECULE
NuBBE_1276
 47 49 0 0 0
SMALL
GASTEIGER

@<TRIPOS>ATOM
      1 O          -4.3255   -2.7647    3.0387 O.2     1  LIG1       -0.2452
      2 C          -4.1347   -2.3786    1.8914 C.ar    1  LIG1        0.3372
      3 C          -4.9726   -2.8598    0.7821 C.ar    1  LIG1        0.0236
      4 C          -4.8080   -2.4350   -0.4741 C.ar    1  LIG1       -0.0443
      5 O          -3.1300   -1.4749    1.5722 O.2     1  LIG1       -0.4217
      6 C          -2.9405   -1.0058    0.2512 C.ar    1  LIG1        0.1483
      7 C          -3.7708   -1.4619   -0.7749 C.ar    1  LIG1        0.0182
      8 C          -3.5785   -0.9737   -2.0653 C.ar    1  LIG1       -0.0476
      9 C          -2.5775   -0.0308   -2.3059 C.ar    1  LIG1       -0.0188
     10 C          -1.7584    0.4224   -1.2666 C.ar    1  LIG1        0.1308
     11 C          -1.9114   -0.0781    0.0273 C.ar    1  LIG1        0.0691
     12 C          -0.9902    0.3498    1.1360 C.3     1  LIG1        0.1276
     13 H          -0.6949   -0.5323    1.7156 H       1  LIG1        0.0685
     14 O          -1.6897    1.2290    2.0163 O.3     1  LIG1       -0.3831
     15 C           0.2677    1.0328    0.5797 C.3     1  LIG1        0.1718
     16 H           0.7746    1.6083    1.3681 H       1  LIG1        0.0804
     17 O           1.1883    0.0209    0.0789 O.3     1  LIG1       -0.4543
     18 C           1.9550   -0.6087    1.0035 C.2     1  LIG1        0.3078
     19 C           2.9139   -1.5677    0.3450 C.3     1  LIG1        0.0473
     20 C           4.2669   -0.9569   -0.0306 C.3     1  LIG1       -0.0367
     21 C           4.1282    0.1967   -1.0216 C.3     1  LIG1       -0.0622
     22 C           5.0619   -0.5119    1.1973 C.3     1  LIG1       -0.0622
     23 O           1.8933   -0.4181    2.2162 O.2     1  LIG1       -0.2508
     24 C          -0.0902    2.0010   -0.5773 C.3     1  LIG1        0.1444
     25 C           1.1902    2.5207   -1.2560 C.3     1  LIG1       -0.0215
     26 C          -0.8930    3.2262   -0.1063 C.3     1  LIG1       -0.0215
     27 O          -0.8215    1.3455   -1.6330 O.3     1  LIG1       -0.4820
     28 H          -5.7370   -3.5806    1.0457 H       1  LIG1        0.0689
     29 H          -5.4375   -2.8031   -1.2771 H       1  LIG1        0.0627
     30 H          -4.2004   -1.3091   -2.8913 H       1  LIG1        0.0626
     31 H          -2.4326    0.3586   -3.3114 H       1  LIG1        0.0654
     32 H          -2.4121    0.7075    2.4110 H       1  LIG1        0.2104
     33 H           2.4219   -1.9923   -0.5437 H       1  LIG1        0.0380
     34 H           3.0541   -2.4181    1.0296 H       1  LIG1        0.0380
     35 H           4.8502   -1.7420   -0.5287 H       1  LIG1        0.0301
     36 H           3.6340    1.0587   -0.5647 H       1  LIG1        0.0232
     37 H           3.5542   -0.1109   -1.9019 H       1  LIG1        0.0232
     38 H           5.1132    0.5312   -1.3663 H       1  LIG1        0.0232
     39 H           4.5106    0.2172    1.7997 H       1  LIG1        0.0232
     40 H           6.0078   -0.0456    0.8988 H       1  LIG1        0.0232
     41 H           5.3002   -1.3710    1.8337 H       1  LIG1        0.0232
     42 H           1.8688    2.9907   -0.5371 H       1  LIG1        0.0269
     43 H           0.9502    3.2549   -2.0344 H       1  LIG1        0.0269
     44 H           1.7187    1.7135   -1.7734 H       1  LIG1        0.0269
     45 H          -0.3861    3.7421    0.7161 H       1  LIG1        0.0269
     46 H          -1.9049    2.9622    0.2139 H       1  LIG1        0.0269
     47 H          -1.0260    3.9418   -0.9265 H       1  LIG1        0.0269
@<TRIPOS>BOND
     1     1     2    2
     2     2     3   ar
     3     3     4   ar
     4     2     5   ar
     5     5     6   ar
     6     6     7   ar
     7     4     7   ar
     8     7     8   ar
     9     8     9   ar
    10     9    10   ar
    11    10    11   ar
    12     6    11   ar
    13    11    12    1
    14    12    13    1
    15    12    14    1
    16    12    15    1
    17    17    18    1
    18    18    19    1
    19    19    20    1
    20    20    21    1
    21    20    22    1
    22    18    23    2
    23    15    24    1
    24    24    25    1
    25    24    26    1
    26    24    27    1
    27    10    27    1
    28    15    17    1
    29    15    16    1
    30     3    28    1
    31     4    29    1
    32     8    30    1
    33     9    31    1
    34    14    32    1
    35    19    33    1
    36    19    34    1
    37    20    35    1
    38    21    36    1
    39    21    37    1
    40    21    38    1
    41    22    39    1
    42    22    40    1
    43    22    41    1
    44    25    42    1
    45    25    43    1
    46    25    44    1
    47    26    45    1
    48    26    46    1
    49    26    47    1
