@<TRIPOS>MOLECULE
NuBBE_1957
 37 39 0 0 0
SMALL
GASTEIGER

@<TRIPOS>ATOM
      1 C          -2.2519    0.0625    0.0815 C.3     1  LIG1        0.0153
      2 N          -0.8205    0.2895    0.2768 N.ar    1  LIG1       -0.3114
      3 C          -0.3144    1.6243    0.3463 C.ar    1  LIG1        0.0973
      4 C           1.0912    1.8094    0.4978 C.ar    1  LIG1        0.0492
      5 C           1.9960    0.6344    0.6143 C.ar    1  LIG1        0.1964
      6 O           3.2096    0.7444    0.7470 O.2     1  LIG1       -0.2867
      7 C           1.3636   -0.6730    0.5653 C.ar    1  LIG1        0.0634
      8 C           0.0534   -0.7731    0.4003 C.ar    1  LIG1        0.2031
      9 O          -0.4025   -2.0863    0.3417 O.3     1  LIG1       -0.4691
     10 C           0.7709   -2.9002    0.6079 C.3     1  LIG1        0.1266
     11 C           2.0075   -1.9863    0.6646 C.3     1  LIG1        0.0221
     12 C           0.8501   -4.0019   -0.4333 C.2     1  LIG1       -0.0395
     13 C           0.8643   -5.3011   -0.0866 C.2     1  LIG1       -0.0962
     14 C           0.8899   -3.5856   -1.8796 C.3     1  LIG1       -0.0406
     15 C           1.6822    3.0802    0.5536 C.ar    1  LIG1       -0.0487
     16 C           0.8890    4.2135    0.4789 C.ar    1  LIG1       -0.0575
     17 C          -0.4902    4.0772    0.3490 C.ar    1  LIG1       -0.0179
     18 C          -1.0969    2.8078    0.2679 C.ar    1  LIG1        0.1442
     19 O          -2.4645    2.6982    0.1858 O.3     1  LIG1       -0.4930
     20 C          -3.1494    3.7323   -0.5136 C.3     1  LIG1        0.0789
     21 H          -2.6017    0.5226   -0.8491 H       1  LIG1        0.0457
     22 H          -2.8285    0.4285    0.9379 H       1  LIG1        0.0457
     23 H          -2.4957   -1.0021   -0.0101 H       1  LIG1        0.0457
     24 H           0.6143   -3.3407    1.6025 H       1  LIG1        0.0785
     25 H           2.7193   -2.1572   -0.1482 H       1  LIG1        0.0355
     26 H           2.5388   -2.1120    1.6140 H       1  LIG1        0.0355
     27 H           0.8200   -5.6168    0.9516 H       1  LIG1        0.0535
     28 H           0.9091   -6.0884   -0.8338 H       1  LIG1        0.0535
     29 H           1.7774   -2.9806   -2.0872 H       1  LIG1        0.0275
     30 H           0.0016   -3.0016   -2.1393 H       1  LIG1        0.0275
     31 H           0.9218   -4.4499   -2.5521 H       1  LIG1        0.0275
     32 H           2.7600    3.1815    0.6657 H       1  LIG1        0.0625
     33 H           1.3399    5.2008    0.5371 H       1  LIG1        0.0619
     34 H          -1.0833    4.9868    0.3350 H       1  LIG1        0.0655
     35 H          -4.1502    3.3617   -0.7558 H       1  LIG1        0.0660
     36 H          -2.6500    3.9855   -1.4549 H       1  LIG1        0.0660
     37 H          -3.2700    4.6157    0.1209 H       1  LIG1        0.0660
@<TRIPOS>BOND
     1     1     2    1
     2     2     3   ar
     3     3     4   ar
     4     4     5   ar
     5     5     6    2
     6     5     7   ar
     7     7     8   ar
     8     2     8   ar
     9     8     9    1
    10     9    10    1
    11    10    11    1
    12     7    11    1
    13    10    12    1
    14    12    13    2
    15    12    14    1
    16     4    15   ar
    17    15    16   ar
    18    16    17   ar
    19    17    18   ar
    20     3    18   ar
    21    18    19    1
    22    19    20    1
    23     1    21    1
    24     1    22    1
    25     1    23    1
    26    10    24    1
    27    11    25    1
    28    11    26    1
    29    13    27    1
    30    13    28    1
    31    14    29    1
    32    14    30    1
    33    14    31    1
    34    15    32    1
    35    16    33    1
    36    17    34    1
    37    20    35    1
    38    20    36    1
    39    20    37    1
