REMARK  Name = NuBBE_2008
REMARK  5 active torsions:
REMARK  status: ('A' for Active; 'I' for Inactive)
REMARK    1  A    between atoms: O_1  and  C_2
REMARK    2  A    between atoms: C_7  and  C_8
REMARK    3  A    between atoms: C_16  and  O_17
REMARK    4  A    between atoms: C_18  and  C_19
REMARK    5  A    between atoms: C_20  and  O_21
REMARK                            x       y       z     vdW  Elec       q    Type
REMARK                         _______ _______ _______ _____ _____    ______ ____
ROOT
ATOM      1  C   LIG A   1      -1.985  -0.503   0.881  0.00  0.00    +0.211 C 
ATOM      2  O   LIG A   1      -1.437   0.775   1.260  0.00  0.00    -0.483 OA
ATOM      3  C   LIG A   1      -1.374  -1.620   1.719  0.00  0.00    +0.129 C 
ATOM      4  C   LIG A   1       0.121  -1.599   1.587  0.00  0.00    +0.174 C 
ATOM      5  C   LIG A   1       0.756  -0.285   1.385  0.00  0.00    +0.101 A 
ATOM      6  C   LIG A   1      -0.068   0.831   1.251  0.00  0.00    +0.139 A 
ATOM      7  C   LIG A   1       0.496   2.099   1.120  0.00  0.00    +0.092 A 
ATOM      8  C   LIG A   1       1.884   2.240   1.098  0.00  0.00    +0.127 A 
ATOM      9  C   LIG A   1       2.733   1.133   1.230  0.00  0.00    +0.033 A 
ATOM     10  C   LIG A   1       4.229   1.280   1.181  0.00  0.00    +0.051 C 
ATOM     11  C   LIG A   1       2.151  -0.137   1.364  0.00  0.00    +0.137 A 
ATOM     12  O   LIG A   1       0.810  -2.609   1.706  0.00  0.00    -0.292 OA
ENDROOT
BRANCH   1  18
ATOM     13  C   LIG A   1      -2.103  -0.807  -3.440  0.00  0.00    +0.117 A 
ATOM     14  C   LIG A   1      -2.645   0.298  -2.798  0.00  0.00    +0.046 A 
ATOM     15  C   LIG A   1      -2.591   0.374  -1.404  0.00  0.00    +0.011 A 
ATOM     16  C   LIG A   1      -1.514  -1.831  -2.710  0.00  0.00    +0.046 A 
ATOM     17  C   LIG A   1      -1.462  -1.756  -1.315  0.00  0.00    +0.011 A 
ATOM     18  C   LIG A   1      -1.994  -0.648  -0.638  0.00  0.00    -0.007 A 
BRANCH  13  19
ATOM     19  O   LIG A   1      -2.133  -0.929  -4.797  0.00  0.00    -0.507 OA
ATOM     20  H   LIG A   1      -2.557  -0.139  -5.170  0.00  0.00    +0.292 HD
ENDBRANCH  13  19
ENDBRANCH   1  18
BRANCH   8  21
ATOM     21  O   LIG A   1       2.435   3.482   0.943  0.00  0.00    -0.506 OA
ATOM     22  H   LIG A   1       1.727   4.139   0.850  0.00  0.00    +0.292 HD
ENDBRANCH   8  21
BRANCH  11  23
ATOM     23  O   LIG A   1       2.993  -1.216   1.480  0.00  0.00    -0.506 OA
ATOM     24  H   LIG A   1       2.449  -2.028   1.585  0.00  0.00    +0.292 HD
ENDBRANCH  11  23
TORSDOF 4
