@<TRIPOS>MOLECULE
NuBBE_929
 82 86 0 0 0
SMALL
GASTEIGER

@<TRIPOS>ATOM
      1 C          -0.0652    1.7158   -0.2329 C.3     1  LIG1       -0.0588
      2 C           0.5854    0.5979    0.6475 C.3     1  LIG1       -0.0228
      3 C          -0.0699    0.6116    2.0697 C.3     1  LIG1       -0.0252
      4 H           0.3886   -0.1841    2.6700 H       1  LIG1        0.0315
      5 C          -1.5539    0.2111    1.9385 C.3     1  LIG1       -0.0154
      6 C          -2.5070    0.6442    3.0648 C.3     1  LIG1       -0.0011
      7 C          -2.6473    1.2177    1.6613 C.3     1  LIG1       -0.0364
      8 C          -2.0280    1.6617    4.0496 C.2     1  LIG1       -0.0587
      9 C          -0.7868    2.1896    3.9806 C.2     1  LIG1       -0.0833
     10 C           0.2067    1.8794    2.8997 C.3     1  LIG1       -0.0306
     11 C          -3.0640    2.2131    5.0634 C.3     1  LIG1        0.0126
     12 C          -2.5325    2.0142    6.5030 C.3     1  LIG1       -0.0537
     13 C          -3.2846    3.7266    4.8300 C.3     1  LIG1       -0.0537
     14 C          -4.4430    1.4843    4.9459 C.3     1  LIG1        0.0640
     15 H          -5.0363    1.6818    5.8466 H       1  LIG1        0.0602
     16 C          -4.2703   -0.0214    4.8060 C.3     1  LIG1       -0.0252
     17 C          -3.5075   -0.3978    3.5431 C.3     1  LIG1       -0.0408
     18 O          -5.2410    1.9667    3.8597 O.3     1  LIG1       -0.3909
     19 C          -1.7396   -1.1494    1.2637 C.3     1  LIG1       -0.0457
     20 C          -1.0146   -1.2255   -0.0900 C.3     1  LIG1       -0.0463
     21 C           0.4700   -0.8477    0.0232 C.3     1  LIG1       -0.0233
     22 C           1.1446   -1.9725    0.8983 C.3     1  LIG1       -0.0588
     23 C           1.3807   -0.7761   -1.2523 C.3     1  LIG1       -0.0325
     24 H           1.8768   -1.7495   -1.3504 H       1  LIG1        0.0309
     25 C           2.4850    0.2519   -0.8152 C.3     1  LIG1       -0.0489
     26 C           2.1012    0.8127    0.5765 C.3     1  LIG1       -0.0466
     27 C           0.7917   -0.4964   -2.6755 C.3     1  LIG1       -0.0402
     28 H           0.3183    0.4900   -2.6820 H       1  LIG1        0.0301
     29 C           1.8997   -0.4606   -3.7779 C.3     1  LIG1       -0.0465
     30 C           2.6207   -1.8095   -4.0079 C.3     1  LIG1       -0.0315
     31 C           3.6874   -1.7362   -5.0729 C.2     1  LIG1       -0.0740
     32 C           4.9549   -1.4486   -4.7238 C.2     1  LIG1       -0.0992
     33 C           3.2905   -2.0659   -6.5007 C.3     1  LIG1       -0.0258
     34 C           3.5355   -0.8957   -7.4548 C.3     1  LIG1       -0.0590
     35 C           3.9970   -3.3271   -7.0256 C.3     1  LIG1       -0.0590
     36 C          -0.2805   -1.5035   -3.1198 C.3     1  LIG1       -0.0621
     37 H          -0.0882    2.6792    0.2831 H       1  LIG1        0.0235
     38 H          -1.0903    1.4885   -0.5289 H       1  LIG1        0.0235
     39 H           0.4913    1.9159   -1.1508 H       1  LIG1        0.0235
     40 H          -2.3722    2.2524    1.4825 H       1  LIG1        0.0280
     41 H          -3.4939    0.9113    1.0547 H       1  LIG1        0.0280
     42 H          -0.4797    2.9652    4.6773 H       1  LIG1        0.0572
     43 H           1.1959    1.7721    3.3646 H       1  LIG1        0.0310
     44 H           0.2785    2.7729    2.2747 H       1  LIG1        0.0310
     45 H          -1.6396    2.6192    6.6963 H       1  LIG1        0.0239
     46 H          -2.2675    0.9701    6.7001 H       1  LIG1        0.0239
     47 H          -3.2838    2.3144    7.2428 H       1  LIG1        0.0239
     48 H          -2.3918    4.3140    5.0713 H       1  LIG1        0.0239
     49 H          -4.0982    4.1046    5.4600 H       1  LIG1        0.0239
     50 H          -3.5416    3.9416    3.7861 H       1  LIG1        0.0239
     51 H          -5.2504   -0.5138    4.7781 H       1  LIG1        0.0291
     52 H          -3.7489   -0.4242    5.6815 H       1  LIG1        0.0291
     53 H          -4.2395   -0.5931    2.7491 H       1  LIG1        0.0275
     54 H          -2.9922   -1.3482    3.7295 H       1  LIG1        0.0275
     55 H          -4.6781    1.9948    3.0673 H       1  LIG1        0.2098
     56 H          -2.8000   -1.3608    1.0822 H       1  LIG1        0.0271
     57 H          -1.3907   -1.9381    1.9390 H       1  LIG1        0.0271
     58 H          -1.5369   -0.5511   -0.7724 H       1  LIG1        0.0271
     59 H          -1.1248   -2.2411   -0.4874 H       1  LIG1        0.0271
     60 H           0.7443   -2.0569    1.9093 H       1  LIG1        0.0235
     61 H           2.2271   -1.8404    0.9990 H       1  LIG1        0.0235
     62 H           0.9982   -2.9500    0.4206 H       1  LIG1        0.0235
     63 H           3.4685   -0.2291   -0.7705 H       1  LIG1        0.0268
     64 H           2.5674    1.0848   -1.5206 H       1  LIG1        0.0268
     65 H           2.3897    1.8655    0.6716 H       1  LIG1        0.0271
     66 H           2.6278    0.2711    1.3698 H       1  LIG1        0.0271
     67 H           2.6402    0.3100   -3.5361 H       1  LIG1        0.0271
     68 H           1.4406   -0.1341   -4.7210 H       1  LIG1        0.0271
     69 H           1.9012   -2.5870   -4.2811 H       1  LIG1        0.0310
     70 H           3.0752   -2.1389   -3.0706 H       1  LIG1        0.0310
     71 H           5.2240   -1.2301   -3.6897 H       1  LIG1        0.0534
     72 H           5.7624   -1.4175   -5.4419 H       1  LIG1        0.0534
     73 H           2.2127   -2.2794   -6.5226 H       1  LIG1        0.0340
     74 H           4.5851   -0.5811   -7.4560 H       1  LIG1        0.0235
     75 H           2.9234   -0.0330   -7.1714 H       1  LIG1        0.0235
     76 H           3.2729   -1.1693   -8.4823 H       1  LIG1        0.0235
     77 H           5.0760   -3.1725   -7.1391 H       1  LIG1        0.0235
     78 H           3.6009   -3.6067   -8.0076 H       1  LIG1        0.0235
     79 H           3.8438   -4.1780   -6.3526 H       1  LIG1        0.0235
     80 H          -0.5112   -1.3800   -4.1842 H       1  LIG1        0.0233
     81 H          -1.2307   -1.3601   -2.6084 H       1  LIG1        0.0233
     82 H           0.0404   -2.5364   -2.9548 H       1  LIG1        0.0233
@<TRIPOS>BOND
     1     1     2    1
     2     2     3    1
     3     3     4    1
     4     3     5    1
     5     5     6    1
     6     6     7    1
     7     5     7    1
     8     6     8    1
     9     8     9    2
    10     9    10    1
    11     3    10    1
    12     8    11    1
    13    11    12    1
    14    11    13    1
    15    11    14    1
    16    14    15    1
    17    14    16    1
    18    16    17    1
    19     6    17    1
    20    14    18    1
    21     5    19    1
    22    19    20    1
    23    20    21    1
    24     2    21    1
    25    21    22    1
    26    21    23    1
    27    23    25    1
    28    25    26    1
    29     2    26    1
    30    27    28    1
    31    27    29    1
    32    29    30    1
    33    30    31    1
    34    31    32    2
    35    31    33    1
    36    33    34    1
    37    33    35    1
    38    27    36    1
    39    23    27    1
    40    23    24    1
    41     1    37    1
    42     1    38    1
    43     1    39    1
    44     7    40    1
    45     7    41    1
    46     9    42    1
    47    10    43    1
    48    10    44    1
    49    12    45    1
    50    12    46    1
    51    12    47    1
    52    13    48    1
    53    13    49    1
    54    13    50    1
    55    16    51    1
    56    16    52    1
    57    17    53    1
    58    17    54    1
    59    18    55    1
    60    19    56    1
    61    19    57    1
    62    20    58    1
    63    20    59    1
    64    22    60    1
    65    22    61    1
    66    22    62    1
    67    25    63    1
    68    25    64    1
    69    26    65    1
    70    26    66    1
    71    29    67    1
    72    29    68    1
    73    30    69    1
    74    30    70    1
    75    32    71    1
    76    32    72    1
    77    33    73    1
    78    34    74    1
    79    34    75    1
    80    34    76    1
    81    35    77    1
    82    35    78    1
    83    35    79    1
    84    36    80    1
    85    36    81    1
    86    36    82    1
