REMARK  Name = NuBBE_2291
REMARK  5 active torsions:
REMARK  status: ('A' for Active; 'I' for Inactive)
REMARK    1  A    between atoms: C_1  and  C_2
REMARK    2  A    between atoms: C_6  and  O_19
REMARK    3  A    between atoms: C_7  and  C_9
REMARK    4  A    between atoms: C_16  and  C_17
REMARK    5  A    between atoms: C_16  and  C_18
REMARK                            x       y       z     vdW  Elec       q    Type
REMARK                         _______ _______ _______ _____ _____    ______ ____
ROOT
ATOM      1  C   LIG A   1      -2.975   0.956   1.438  0.00  0.00    +0.008 C 
ATOM      2  C   LIG A   1      -1.453   1.101   1.551  0.00  0.00    -0.008 C 
ATOM      3  C   LIG A   1      -0.675   0.504   0.332  0.00  0.00    +0.028 C 
ATOM      4  C   LIG A   1       0.597   1.402   0.301  0.00  0.00    +0.072 C 
ATOM      5  C   LIG A   1       1.436   1.488  -1.015  0.00  0.00    +0.018 C 
ATOM      6  C   LIG A   1       2.939   1.631  -0.725  0.00  0.00    +0.010 C 
ATOM      7  C   LIG A   1       1.158   0.431  -2.089  0.00  0.00    +0.006 C 
ATOM      8  C   LIG A   1       1.139  -1.010  -1.623  0.00  0.00    +0.005 C 
ATOM      9  C   LIG A   1      -0.184  -1.371  -0.984  0.00  0.00    -0.001 C 
ATOM     10  C   LIG A   1      -0.302  -1.000   0.492  0.00  0.00    +0.005 C 
ATOM     11  C   LIG A   1      -0.322  -2.527  -0.122  0.00  0.00    -0.028 C 
ATOM     12  C   LIG A   1      -1.640  -3.274   0.016  0.00  0.00    +0.011 C 
ATOM     13  C   LIG A   1       0.857  -3.487  -0.217  0.00  0.00    +0.011 C 
ATOM     14  C   LIG A   1       0.035   2.802   0.608  0.00  0.00    +0.035 C 
ATOM     15  C   LIG A   1      -1.067   2.586   1.633  0.00  0.00    +0.006 C 
ENDROOT
BRANCH   4  16
ATOM     16  O   LIG A   1       1.432   1.055   1.416  0.00  0.00    -0.388 OA
ATOM     17  H   LIG A   1       1.648   0.110   1.335  0.00  0.00    +0.210 HD
ENDBRANCH   4  16
TORSDOF 1
