@<TRIPOS>MOLECULE
NuBBE_2368
 50 53 0 0 0
SMALL
GASTEIGER

@<TRIPOS>ATOM
      1 O          -0.6267   -3.2425    1.4984 O.2     1  LIG1       -0.2905
      2 C          -0.3191   -2.0886    1.1676 C.2     1  LIG1        0.1800
      3 C           0.1929   -1.8700   -0.2145 C.ar    1  LIG1        0.0865
      4 C           0.7506   -0.8560   -1.0376 C.ar    1  LIG1       -0.0101
      5 C           1.0076   -1.4715   -2.3325 C.ar    1  LIG1        0.0036
      6 C           0.6161   -2.7997   -2.2695 C.ar    1  LIG1        0.0472
      7 N           0.1249   -3.0016   -1.0163 N.ar    1  LIG1       -0.3517
      8 H          -0.2333   -3.8830   -0.6695 H       1  LIG1        0.1660
      9 C           0.7500   -3.6988   -3.3342 C.ar    1  LIG1       -0.0378
     10 C           1.3127   -3.2209   -4.5183 C.ar    1  LIG1       -0.0598
     11 C           1.7150   -1.8945   -4.6277 C.ar    1  LIG1       -0.0611
     12 C           1.5673   -1.0137   -3.5484 C.ar    1  LIG1       -0.0523
     13 C           1.1829    0.6042   -0.7894 C.3     1  LIG1       -0.0085
     14 C           0.1547    1.6565   -0.2349 C.3     1  LIG1        0.0279
     15 H          -0.3279    2.1088   -1.1110 H       1  LIG1        0.0474
     16 C          -0.8931    1.0197    0.6830 C.3     1  LIG1        0.0791
     17 H          -1.4987    1.8113    1.1490 H       1  LIG1        0.0435
     18 C          -0.0400    0.3334    1.7731 C.3     1  LIG1        0.0027
     19 C          -0.5321   -1.0080    2.2309 C.3     1  LIG1        0.0193
     20 C           0.4817    1.4523    2.6533 C.2     1  LIG1       -0.0554
     21 C           0.2901    1.6442    3.9707 C.2     1  LIG1       -0.0864
     22 C          -0.5436    0.8338    4.9069 C.3     1  LIG1       -0.0465
     23 C           1.3913    2.3768    1.8317 C.3     1  LIG1        0.0203
     24 N           0.8676    2.7621    0.4975 N.3     1  LIG1       -0.2974
     25 C           0.0466    3.9726    0.6061 C.3     1  LIG1       -0.0121
     26 C          -1.9829    0.2352   -0.0556 C.2     1  LIG1        0.3121
     27 O          -2.8389   -0.4222    0.5168 O.2     1  LIG1       -0.2505
     28 O          -1.9158    0.3985   -1.4025 O.3     1  LIG1       -0.4677
     29 C          -2.7692   -0.4238   -2.2059 C.3     1  LIG1        0.0817
     30 H           0.4410   -4.7354   -3.2435 H       1  LIG1        0.0638
     31 H           1.4419   -3.8958   -5.3611 H       1  LIG1        0.0618
     32 H           2.1553   -1.5377   -5.5555 H       1  LIG1        0.0618
     33 H           1.8979    0.0145   -3.6596 H       1  LIG1        0.0624
     34 H           1.5497    1.0330   -1.7308 H       1  LIG1        0.0329
     35 H           2.0905    0.5570   -0.1738 H       1  LIG1        0.0329
     36 H           0.9289    0.0028    1.3922 H       1  LIG1        0.0359
     37 H          -1.5860   -0.9876    2.5222 H       1  LIG1        0.0352
     38 H           0.0403   -1.3347    3.1082 H       1  LIG1        0.0352
     39 H           0.7974    2.4841    4.4462 H       1  LIG1        0.0569
     40 H          -1.3860    0.3503    4.4095 H       1  LIG1        0.0272
     41 H          -0.9618    1.4862    5.6804 H       1  LIG1        0.0272
     42 H           0.0725    0.0773    5.4025 H       1  LIG1        0.0272
     43 H           2.3413    1.8496    1.6741 H       1  LIG1        0.0473
     44 H           1.6651    3.2717    2.4056 H       1  LIG1        0.0473
     45 H           0.6570    4.8102    0.9630 H       1  LIG1        0.0391
     46 H          -0.7988    3.8609    1.2927 H       1  LIG1        0.0391
     47 H          -0.3415    4.2726   -0.3733 H       1  LIG1        0.0391
     48 H          -2.1525   -0.8959   -2.9767 H       1  LIG1        0.0661
     49 H          -3.5074    0.2150   -2.6962 H       1  LIG1        0.0661
     50 H          -3.2758   -1.2128   -1.6430 H       1  LIG1        0.0661
@<TRIPOS>BOND
     1     1     2    2
     2     2     3    1
     3     3     4   ar
     4     4     5   ar
     5     5     6   ar
     6     6     7   ar
     7     7     8    1
     8     3     7   ar
     9     6     9   ar
    10     9    10   ar
    11    10    11   ar
    12    11    12   ar
    13     5    12   ar
    14     4    13    1
    15    13    14    1
    16    14    15    1
    17    14    16    1
    18    16    18    1
    19    18    19    1
    20     2    19    1
    21    18    20    1
    22    20    21    2
    23    21    22    1
    24    20    23    1
    25    23    24    1
    26    14    24    1
    27    24    25    1
    28    26    27    2
    29    26    28    1
    30    28    29    1
    31    16    26    1
    32    16    17    1
    33     9    30    1
    34    10    31    1
    35    11    32    1
    36    12    33    1
    37    13    34    1
    38    13    35    1
    39    18    36    1
    40    19    37    1
    41    19    38    1
    42    21    39    1
    43    22    40    1
    44    22    41    1
    45    22    42    1
    46    23    43    1
    47    23    44    1
    48    25    45    1
    49    25    46    1
    50    25    47    1
    51    29    48    1
    52    29    49    1
    53    29    50    1
