@<TRIPOS>MOLECULE
NuBBE_1118
 34 36 0 0 0
SMALL
GASTEIGER

@<TRIPOS>ATOM
      1 C          -1.4573    1.3531    2.6050 C.3     1  LIG1        0.0788
      2 O          -1.9896    0.1397    2.0949 O.3     1  LIG1       -0.4937
      3 C          -1.2110   -0.5342    1.1618 C.ar    1  LIG1        0.1416
      4 C          -0.3419    0.0626    0.2254 C.ar    1  LIG1        0.0823
      5 C           0.2995   -0.7993   -0.6602 C.ar    1  LIG1        0.2316
      6 O           1.1165   -0.0999   -1.4946 O.2     1  LIG1       -0.4387
      7 C           0.9925    1.2224   -1.1806 C.ar    1  LIG1        0.1392
      8 C           1.8247    2.1779   -1.9829 C.3     1  LIG1        0.1177
      9 C           3.1902    2.3849   -1.3301 C.3     1  LIG1       -0.0292
     10 O           2.0285    1.5987   -3.2748 O.3     1  LIG1       -0.3814
     11 C           1.1178    3.5148   -2.1971 C.3     1  LIG1       -0.0292
     12 C           0.1065    1.3664   -0.1318 C.ar    1  LIG1       -0.0048
     13 N           0.1790   -2.1306   -0.7403 N.ar    1  LIG1       -0.2119
     14 C          -0.6671   -2.6735    0.1370 C.ar    1  LIG1        0.0783
     15 C          -1.3869   -1.9420    1.1097 C.ar    1  LIG1        0.0429
     16 C          -2.2438   -2.6384    1.9929 C.ar    1  LIG1       -0.0490
     17 C          -2.3944   -4.0216    1.9171 C.ar    1  LIG1       -0.0610
     18 C          -1.6946   -4.7296    0.9531 C.ar    1  LIG1       -0.0597
     19 C          -0.8428   -4.0505    0.0783 C.ar    1  LIG1       -0.0355
     20 H          -1.9665    1.5679    3.5498 H       1  LIG1        0.0660
     21 H          -1.6804    2.1796    1.9255 H       1  LIG1        0.0660
     22 H          -0.3851    1.2812    2.8151 H       1  LIG1        0.0660
     23 H           3.7330    1.4364   -1.2399 H       1  LIG1        0.0261
     24 H           3.0997    2.8209   -0.3291 H       1  LIG1        0.0261
     25 H           3.8184    3.0446   -1.9396 H       1  LIG1        0.0261
     26 H           2.0841    0.6331   -3.1406 H       1  LIG1        0.2107
     27 H           0.9254    4.0349   -1.2524 H       1  LIG1        0.0261
     28 H           0.1593    3.3743   -2.7112 H       1  LIG1        0.0261
     29 H           1.7171    4.1745   -2.8354 H       1  LIG1        0.0261
     30 H          -0.1691    2.3100    0.3135 H       1  LIG1        0.0661
     31 H          -2.8014   -2.0955    2.7546 H       1  LIG1        0.0625
     32 H          -3.0568   -4.5381    2.6067 H       1  LIG1        0.0618
     33 H          -1.8044   -5.8083    0.8751 H       1  LIG1        0.0618
     34 H          -0.2992   -4.6164   -0.6749 H       1  LIG1        0.0639
@<TRIPOS>BOND
     1     1     2    1
     2     2     3    1
     3     3     4   ar
     4     4     5   ar
     5     5     6   ar
     6     6     7   ar
     7     7     8    1
     8     8     9    1
     9     8    10    1
    10     8    11    1
    11     7    12   ar
    12     4    12   ar
    13     5    13   ar
    14    13    14   ar
    15    14    15   ar
    16     3    15   ar
    17    15    16   ar
    18    16    17   ar
    19    17    18   ar
    20    18    19   ar
    21    14    19   ar
    22     1    20    1
    23     1    21    1
    24     1    22    1
    25     9    23    1
    26     9    24    1
    27     9    25    1
    28    10    26    1
    29    11    27    1
    30    11    28    1
    31    11    29    1
    32    12    30    1
    33    16    31    1
    34    17    32    1
    35    18    33    1
    36    19    34    1
