@<TRIPOS>MOLECULE
NuBBE_1603
 83 87 0 0 0
SMALL
GASTEIGER

@<TRIPOS>ATOM
      1 C           0.3553    3.4785   -0.1473 C.3     1  LIG1       -0.0553
      2 C           0.5355    1.9498   -0.0189 C.3     1  LIG1       -0.0051
      3 C           0.0119    1.3399   -1.3496 C.2     1  LIG1       -0.0634
      4 C           0.7951    1.0924   -2.4159 C.2     1  LIG1       -0.0836
      5 C           0.2937    0.7242   -3.7723 C.3     1  LIG1       -0.0302
      6 C          -1.1668    1.1347   -4.0447 C.3     1  LIG1       -0.0198
      7 H          -1.4616    0.5031   -4.8989 H       1  LIG1        0.0318
      8 C          -2.0873    0.7149   -2.8397 C.3     1  LIG1       -0.0212
      9 C          -2.2462   -0.8320   -2.9106 C.3     1  LIG1       -0.0587
     10 C          -3.5120    1.3359   -2.9996 C.3     1  LIG1       -0.0401
     11 C          -3.8449    1.7074   -4.4359 C.3     1  LIG1        0.0069
     12 C          -2.8808    2.7651   -4.9166 C.2     1  LIG1        0.1392
     13 C          -1.3908    2.5969   -4.5747 C.3     1  LIG1        0.0270
     14 C          -0.6002    2.8250   -5.8837 C.3     1  LIG1       -0.0528
     15 C          -1.0101    3.7187   -3.6019 C.3     1  LIG1       -0.0528
     16 O          -3.2964    3.7262   -5.5843 O.2     1  LIG1       -0.2968
     17 C          -1.4969    1.1754   -1.4413 C.3     1  LIG1       -0.0136
     18 H          -1.9008    2.1753   -1.2486 H       1  LIG1        0.0351
     19 C          -1.9507    0.3011   -0.2640 C.3     1  LIG1       -0.0455
     20 C          -1.6233    0.9657    1.0709 C.3     1  LIG1       -0.0460
     21 C          -0.1285    1.3204    1.2837 C.3     1  LIG1       -0.0197
     22 C           0.7460    0.0273    1.5751 C.3     1  LIG1       -0.0273
     23 H           0.2351   -0.8527    1.1628 H       1  LIG1        0.0311
     24 C           1.1050   -0.3090    3.0576 C.3     1  LIG1        0.0157
     25 H           1.6731    0.5343    3.4715 H       1  LIG1        0.0353
     26 C           1.9721   -1.5757    3.1399 C.3     1  LIG1       -0.0163
     27 C           1.1947   -2.5747    3.9867 C.3     1  LIG1        0.0906
     28 C           1.2074   -4.0475    3.5078 C.3     1  LIG1        0.1094
     29 O           0.6436   -4.1222    2.1854 O.3     1  LIG1       -0.3864
     30 C           2.5988   -4.7496    3.5361 C.3     1  LIG1        0.0887
     31 C           2.5370   -6.1902    3.0022 C.3     1  LIG1       -0.0338
     32 O           3.5478   -4.0492    2.7231 O.3     1  LIG1       -0.3865
     33 C           3.1561   -4.7802    4.9595 C.3     1  LIG1       -0.0338
     34 O          -0.1637   -2.0844    3.9842 O.3     1  LIG1       -0.3454
     35 C          -0.0685   -0.6620    3.9694 C.3     1  LIG1        0.1598
     36 H          -1.0256   -0.2381    3.6705 H       1  LIG1        0.0910
     37 O           0.2243   -0.2098    5.2851 O.3     1  LIG1       -0.3667
     38 C           2.0447    0.2290    0.7510 C.3     1  LIG1       -0.0485
     39 C           2.0247    1.6631    0.2610 C.3     1  LIG1       -0.0431
     40 C          -0.0827    2.3198    2.4722 C.3     1  LIG1       -0.0585
     41 H           0.8138    3.8535   -1.0697 H       1  LIG1        0.0238
     42 H           0.8379    4.0237    0.6706 H       1  LIG1        0.0238
     43 H          -0.7014    3.7648   -0.1574 H       1  LIG1        0.0238
     44 H           1.8712    1.2228   -2.3687 H       1  LIG1        0.0572
     45 H           0.4028   -0.3617   -3.8866 H       1  LIG1        0.0311
     46 H           0.9625    1.1548   -4.5226 H       1  LIG1        0.0311
     47 H          -2.5882   -1.1482   -3.9034 H       1  LIG1        0.0235
     48 H          -2.9916   -1.2029   -2.1992 H       1  LIG1        0.0235
     49 H          -1.3052   -1.3500   -2.7022 H       1  LIG1        0.0235
     50 H          -3.6052    2.2498   -2.3996 H       1  LIG1        0.0275
     51 H          -4.2787    0.6543   -2.6116 H       1  LIG1        0.0275
     52 H          -4.8605    2.1163   -4.4794 H       1  LIG1        0.0342
     53 H          -3.8002    0.8437   -5.1069 H       1  LIG1        0.0342
     54 H          -0.8126    2.0400   -6.6179 H       1  LIG1        0.0239
     55 H           0.4798    2.8531   -5.7105 H       1  LIG1        0.0239
     56 H          -0.8639    3.7811   -6.3521 H       1  LIG1        0.0239
     57 H          -1.6246    3.7153   -2.7000 H       1  LIG1        0.0239
     58 H          -1.1652    4.7035   -4.0606 H       1  LIG1        0.0239
     59 H           0.0442    3.6664   -3.3188 H       1  LIG1        0.0239
     60 H          -1.4839   -0.6902   -0.3076 H       1  LIG1        0.0271
     61 H          -3.0355    0.1465   -0.3053 H       1  LIG1        0.0271
     62 H          -1.9802    0.3114    1.8721 H       1  LIG1        0.0271
     63 H          -2.2291    1.8791    1.1405 H       1  LIG1        0.0271
     64 H           2.9397   -1.3552    3.6063 H       1  LIG1        0.0295
     65 H           2.1835   -1.9827    2.1479 H       1  LIG1        0.0295
     66 H           1.5399   -2.5244    5.0258 H       1  LIG1        0.0624
     67 H           0.5194   -4.6147    4.1484 H       1  LIG1        0.0648
     68 H          -0.2768   -3.8087    2.2898 H       1  LIG1        0.2100
     69 H           2.3611   -6.2204    1.9210 H       1  LIG1        0.0258
     70 H           1.7616   -6.7774    3.5035 H       1  LIG1        0.0258
     71 H           3.4984   -6.6955    3.1616 H       1  LIG1        0.0258
     72 H           3.2309   -4.1221    1.8026 H       1  LIG1        0.2102
     73 H           2.5072   -5.3591    5.6249 H       1  LIG1        0.0258
     74 H           3.2713   -3.7729    5.3692 H       1  LIG1        0.0258
     75 H           4.1580   -5.2223    4.9744 H       1  LIG1        0.0258
     76 H          -0.6063   -0.2919    5.7814 H       1  LIG1        0.2125
     77 H           2.0467   -0.4654   -0.0977 H       1  LIG1        0.0268
     78 H           2.9641    0.0452    1.3159 H       1  LIG1        0.0268
     79 H           2.6957    1.8154   -0.5878 H       1  LIG1        0.0274
     80 H           2.4087    2.3161    1.0548 H       1  LIG1        0.0274
     81 H          -0.5146    1.9000    3.3833 H       1  LIG1        0.0235
     82 H          -0.6742    3.2177    2.2590 H       1  LIG1        0.0235
     83 H           0.9355    2.6438    2.7056 H       1  LIG1        0.0235
@<TRIPOS>BOND
     1     2     3    1
     2     3     4    2
     3     4     5    1
     4     5     6    1
     5     6     8    1
     6     8    10    1
     7    10    11    1
     8    11    12    1
     9    12    13    1
    10     6    13    1
    11     8    17    1
    12     3    17    1
    13    17    19    1
    14    19    20    1
    15    20    21    1
    16    21    22    1
    17    24    26    1
    18    26    27    1
    19    27    28    1
    20    28    29    1
    21    28    30    1
    22    30    31    1
    23    30    32    1
    24    30    33    1
    25    27    34    1
    26    34    35    1
    27    24    35    1
    28    22    38    1
    29    38    39    1
    30     2    39    1
    31     2    21    1
    32     1     2    1
    33     6     7    1
    34     8     9    1
    35    12    16    2
    36    13    14    1
    37    13    15    1
    38    17    18    1
    39    21    40    1
    40    22    23    1
    41    24    22    1
    42    24    25    1
    43    35    37    1
    44    35    36    1
    45     1    41    1
    46     1    42    1
    47     1    43    1
    48     4    44    1
    49     5    45    1
    50     5    46    1
    51     9    47    1
    52     9    48    1
    53     9    49    1
    54    10    50    1
    55    10    51    1
    56    11    52    1
    57    11    53    1
    58    14    54    1
    59    14    55    1
    60    14    56    1
    61    15    57    1
    62    15    58    1
    63    15    59    1
    64    19    60    1
    65    19    61    1
    66    20    62    1
    67    20    63    1
    68    26    64    1
    69    26    65    1
    70    27    66    1
    71    28    67    1
    72    29    68    1
    73    31    69    1
    74    31    70    1
    75    31    71    1
    76    32    72    1
    77    33    73    1
    78    33    74    1
    79    33    75    1
    80    37    76    1
    81    38    77    1
    82    38    78    1
    83    39    79    1
    84    39    80    1
    85    40    81    1
    86    40    82    1
    87    40    83    1
