@<TRIPOS>MOLECULE
NuBBE_59
 77 80 0 0 0
SMALL
GASTEIGER

@<TRIPOS>ATOM
      1 O          -2.1522   -3.7680   -1.1226 O.2     1  LIG1       -0.2449
      2 C          -1.6338   -3.1892   -2.0952 C.2     1  LIG1        0.3397
      3 O          -0.9508   -2.0372   -2.0245 O.3     1  LIG1       -0.4537
      4 C          -0.8505   -1.4098   -0.7198 C.3     1  LIG1        0.1223
      5 H          -0.7267   -2.1798    0.0458 H       1  LIG1        0.0779
      6 C          -2.0935   -0.5966   -0.5050 C.2     1  LIG1       -0.0380
      7 C          -1.9768    0.6712   -0.0726 C.2     1  LIG1        0.0124
      8 C          -2.5722    1.8353   -0.8152 C.3     1  LIG1        0.2315
      9 H          -3.3996    2.2820   -0.2526 H       1  LIG1        0.1111
     10 O          -1.4636    2.7430   -0.8705 O.3     1  LIG1       -0.2971
     11 C          -0.8646    2.7014    0.4384 C.3     1  LIG1        0.2204
     12 H           0.1532    3.1076    0.3803 H       1  LIG1        0.1068
     13 O          -1.6655    3.5265    1.2982 O.3     1  LIG1       -0.4341
     14 C          -1.5329    4.8675    1.1108 C.2     1  LIG1        0.3061
     15 C          -2.7804    5.5613    1.5734 C.3     1  LIG1        0.0333
     16 O          -0.5930    5.4366    0.5575 O.2     1  LIG1       -0.2511
     17 O          -2.9318    1.4135   -2.1327 O.3     1  LIG1       -0.4311
     18 C          -4.1636    1.7911   -2.5432 C.2     1  LIG1        0.3063
     19 C          -4.6154    0.9656   -3.7131 C.3     1  LIG1        0.0333
     20 O          -4.8784    2.6132   -1.9871 O.2     1  LIG1       -0.2511
     21 C          -0.8594    1.1593    0.8511 C.3     1  LIG1        0.0892
     22 C          -1.2865    0.9667    2.3598 C.3     1  LIG1        0.0710
     23 H          -1.3071    1.9310    2.8740 H       1  LIG1        0.0604
     24 O          -2.6057    0.4276    2.5299 O.3     1  LIG1       -0.3907
     25 C          -0.3892    0.0716    3.2036 C.3     1  LIG1       -0.0227
     26 C           1.0880    0.3871    2.9915 C.3     1  LIG1       -0.0355
     27 H           1.6452   -0.1909    3.7412 H       1  LIG1        0.0304
     28 C           1.3491    1.8632    3.3241 C.3     1  LIG1       -0.0618
     29 C           1.5099   -0.0976    1.5675 C.3     1  LIG1       -0.0219
     30 C           1.4938   -1.6598    1.5927 C.3     1  LIG1       -0.0587
     31 C           3.0040    0.3249    1.2149 C.3     1  LIG1       -0.0283
     32 C           4.0863   -0.2252    2.1213 C.2     1  LIG1       -0.0806
     33 C           5.4187   -0.0291    2.0459 C.2     1  LIG1       -0.0549
     34 C           6.1407    0.8021    1.0238 C.3     1  LIG1       -0.0400
     35 C           6.2991   -0.6262    3.0406 C.2     1  LIG1       -0.0662
     36 C           6.4282   -1.9442    3.2392 C.2     1  LIG1       -0.0985
     37 C           0.5364    0.4915    0.4332 C.3     1  LIG1       -0.0138
     38 H           1.1223    1.3226    0.0162 H       1  LIG1        0.0319
     39 C           0.3664   -0.4590   -0.7937 C.3     1  LIG1       -0.0075
     40 C          -1.7303   -3.7260   -3.4769 C.ar    1  LIG1        0.0590
     41 C          -2.3776   -4.9596   -3.6695 C.ar    1  LIG1       -0.0478
     42 C          -2.4917   -5.5038   -4.9452 C.ar    1  LIG1       -0.0610
     43 C          -1.9674   -4.8258   -6.0431 C.ar    1  LIG1       -0.0617
     44 C          -1.3321   -3.5966   -5.8610 C.ar    1  LIG1       -0.0610
     45 C          -1.2170   -3.0417   -4.5794 C.ar    1  LIG1       -0.0478
     46 H          -2.9711   -0.9162   -1.0625 H       1  LIG1        0.0610
     47 H          -3.2536    4.9810    2.3705 H       1  LIG1        0.0342
     48 H          -3.4656    5.6371    0.7242 H       1  LIG1        0.0342
     49 H          -2.5599    6.5575    1.9664 H       1  LIG1        0.0342
     50 H          -5.3299    0.2210   -3.3507 H       1  LIG1        0.0342
     51 H          -3.7787    0.4469   -4.1902 H       1  LIG1        0.0342
     52 H          -5.0910    1.6100   -4.4567 H       1  LIG1        0.0342
     53 H          -3.2501    1.0583    2.1697 H       1  LIG1        0.2098
     54 H          -0.6206   -0.9858    3.0344 H       1  LIG1        0.0293
     55 H          -0.6445    0.2132    4.2640 H       1  LIG1        0.0293
     56 H           1.0607    2.5354    2.5138 H       1  LIG1        0.0233
     57 H           2.4026    2.0410    3.5541 H       1  LIG1        0.0233
     58 H           0.7749    2.1582    4.2125 H       1  LIG1        0.0233
     59 H           0.4911   -2.0703    1.7098 H       1  LIG1        0.0235
     60 H           2.0699   -2.0584    2.4343 H       1  LIG1        0.0235
     61 H           1.9326   -2.0938    0.6895 H       1  LIG1        0.0235
     62 H           3.2183   -0.0106    0.1908 H       1  LIG1        0.0313
     63 H           3.0764    1.4200    1.2091 H       1  LIG1        0.0313
     64 H           3.7418   -0.8472    2.9439 H       1  LIG1        0.0575
     65 H           5.4970    1.1050    0.1941 H       1  LIG1        0.0277
     66 H           6.9796    0.2382    0.5963 H       1  LIG1        0.0277
     67 H           6.5488    1.7069    1.4879 H       1  LIG1        0.0277
     68 H           6.9004    0.0651    3.6279 H       1  LIG1        0.0614
     69 H           5.8755   -2.6709    2.6519 H       1  LIG1        0.0535
     70 H           7.1116   -2.3245    3.9921 H       1  LIG1        0.0535
     71 H           1.2816   -1.0185   -1.0111 H       1  LIG1        0.0307
     72 H           0.2507    0.1744   -1.6901 H       1  LIG1        0.0307
     73 H          -2.7900   -5.5016   -2.8176 H       1  LIG1        0.0626
     74 H          -2.9902   -6.4631   -5.0854 H       1  LIG1        0.0618
     75 H          -2.0534   -5.2536   -7.0388 H       1  LIG1        0.0618
     76 H          -0.9231   -3.0696   -6.7204 H       1  LIG1        0.0618
     77 H          -0.7234   -2.0822   -4.4655 H       1  LIG1        0.0626
@<TRIPOS>BOND
     1     1     2    2
     2     2     3    1
     3     4     6    1
     4     6     7    2
     5     7     8    1
     6     8    10    1
     7    10    11    1
     8    13    14    1
     9    14    15    1
    10    14    16    2
    11    17    18    1
    12    18    19    1
    13    18    20    2
    14     7    21    1
    15    21    22    1
    16    22    25    1
    17    25    26    1
    18    26    29    1
    19    31    32    1
    20    32    33    2
    21    33    34    1
    22    33    35    1
    23    35    36    2
    24    11    21    1
    25    21    37    1
    26    29    37    1
    27    37    39    1
    28     4    39    1
    29     2    40    1
    30    40    41   ar
    31    41    42   ar
    32    42    43   ar
    33    43    44   ar
    34    44    45   ar
    35    40    45   ar
    36     3     4    1
    37     4     5    1
    38    37    38    1
    39     8    17    1
    40     8     9    1
    41    11    13    1
    42    11    12    1
    43    22    24    1
    44    22    23    1
    45    26    28    1
    46    26    27    1
    47    29    31    1
    48    29    30    1
    49     6    46    1
    50    15    47    1
    51    15    48    1
    52    15    49    1
    53    19    50    1
    54    19    51    1
    55    19    52    1
    56    24    53    1
    57    25    54    1
    58    25    55    1
    59    28    56    1
    60    28    57    1
    61    28    58    1
    62    30    59    1
    63    30    60    1
    64    30    61    1
    65    31    62    1
    66    31    63    1
    67    32    64    1
    68    34    65    1
    69    34    66    1
    70    34    67    1
    71    35    68    1
    72    36    69    1
    73    36    70    1
    74    39    71    1
    75    39    72    1
    76    41    73    1
    77    42    74    1
    78    43    75    1
    79    44    76    1
    80    45    77    1
