REMARK  Name = NuBBE_412
REMARK  13 active torsions:
REMARK  status: ('A' for Active; 'I' for Inactive)
REMARK    1  A    between atoms: C_1  and  O_2
REMARK    2  A    between atoms: O_2  and  C_3
REMARK    3  A    between atoms: C_5  and  C_6
REMARK    4  A    between atoms: C_6  and  C_7
REMARK    5  A    between atoms: C_7  and  C_8
REMARK    6  A    between atoms: C_8  and  O_9
REMARK    7  A    between atoms: O_9  and  C_10
REMARK    8  A    between atoms: C_13  and  C_21
REMARK    9  A    between atoms: C_15  and  O_20
REMARK   10  A    between atoms: C_17  and  O_19
REMARK   11  A    between atoms: C_21  and  O_22
REMARK   12  A    between atoms: C_23  and  O_25
REMARK   13  A    between atoms: C_30  and  C_31
REMARK                            x       y       z     vdW  Elec       q    Type
REMARK                         _______ _______ _______ _____ _____    ______ ____
ROOT
ATOM      1  C   LIG A   1       0.800   2.256  -0.236  0.00  0.00    +0.163 A 
ATOM      2  C   LIG A   1       0.520   0.912   0.079  0.00  0.00    +0.053 A 
ATOM      3  C   LIG A   1      -0.288   0.100  -0.728  0.00  0.00    -0.043 A 
ATOM      4  C   LIG A   1      -0.824   0.611  -1.919  0.00  0.00    +0.015 A 
ATOM      5  C   LIG A   1      -0.544   1.951  -2.275  0.00  0.00    +0.025 A 
ATOM      6  C   LIG A   1       0.245   2.723  -1.435  0.00  0.00    +0.177 A 
ATOM      7  O   LIG A   1       0.385   3.970  -1.963  0.00  0.00    -0.451 OA
ATOM      8  C   LIG A   1      -0.301   4.020  -3.138  0.00  0.00    +0.137 A 
ATOM      9  C   LIG A   1      -0.899   2.780  -3.372  0.00  0.00    +0.058 A 
ENDROOT
BRANCH   8  10
ATOM     10  C   LIG A   1      -0.281   5.273  -3.872  0.00  0.00    +0.021 A 
ATOM     11  C   LIG A   1      -0.967   5.413  -5.089  0.00  0.00    +0.061 A 
ATOM     12  C   LIG A   1      -0.925   6.621  -5.746  0.00  0.00    +0.167 A 
ATOM     13  C   LIG A   1      -0.228   7.696  -5.245  0.00  0.00    +0.166 A 
ATOM     14  C   LIG A   1       0.462   7.610  -4.062  0.00  0.00    +0.050 A 
ATOM     15  C   LIG A   1       0.434   6.391  -3.372  0.00  0.00    +0.015 A 
ATOM     16  O   LIG A   1      -0.315   8.795  -6.044  0.00  0.00    -0.453 OA
ATOM     17  C   LIG A   1      -1.157   8.294  -7.105  0.00  0.00    +0.466 C 
ATOM     18  O   LIG A   1      -1.539   6.917  -6.929  0.00  0.00    -0.453 OA
ENDBRANCH   8  10
BRANCH   1  20
ATOM     19  C   LIG A   1       1.990   2.585   1.789  0.00  0.00    +0.277 C 
ATOM     20  O   LIG A   1       1.563   3.095   0.530  0.00  0.00    -0.491 OA
ENDBRANCH   1  20
BRANCH   3  21
ATOM     21  C   LIG A   1      -0.547  -1.337  -0.320  0.00  0.00    +0.037 C 
BRANCH  21  22
ATOM     22  C   LIG A   1      -1.226  -1.442   1.052  0.00  0.00    +0.033 C 
BRANCH  22  23
ATOM     23  C   LIG A   1      -1.490  -2.889   1.461  0.00  0.00    +0.163 C 
BRANCH  23  24
ATOM     24  O   LIG A   1      -0.253  -3.580   1.626  0.00  0.00    -0.349 OA
BRANCH  24  25
ATOM     25  C   LIG A   1      -0.441  -4.966   1.935  0.00  0.00    +0.282 C 
ATOM     26  O   LIG A   1      -1.045  -5.174   3.214  0.00  0.00    -0.341 OA
ATOM     27  C   LIG A   1      -0.215  -5.126   4.388  0.00  0.00    +0.178 C 
ATOM     28  C   LIG A   1       1.238  -5.628   4.248  0.00  0.00    +0.177 C 
ATOM     29  C   LIG A   1       1.864  -5.320   2.888  0.00  0.00    +0.179 C 
ATOM     30  C   LIG A   1       0.889  -5.724   1.774  0.00  0.00    +0.201 C 
BRANCH  29  31
ATOM     31  O   LIG A   1       2.248  -3.947   2.841  0.00  0.00    -0.386 OA
ATOM     32  H   LIG A   1       2.416  -3.716   1.909  0.00  0.00    +0.210 HD
ENDBRANCH  29  31
BRANCH  28  33
ATOM     33  O   LIG A   1       1.234  -7.062   4.407  0.00  0.00    -0.387 OA
ATOM     34  H   LIG A   1       1.196  -7.238   5.367  0.00  0.00    +0.210 HD
ENDBRANCH  28  33
BRANCH  30  35
ATOM     35  O   LIG A   1       0.666  -7.144   1.774  0.00  0.00    -0.384 OA
ATOM     36  H   LIG A   1       0.644  -7.437   2.712  0.00  0.00    +0.210 HD
ENDBRANCH  30  35
BRANCH  27  37
ATOM     37  C   LIG A   1      -0.302  -3.757   5.071  0.00  0.00    +0.190 C 
BRANCH  37  38
ATOM     38  O   LIG A   1      -1.655  -3.497   5.458  0.00  0.00    -0.392 OA
ATOM     39  H   LIG A   1      -2.207  -3.742   4.691  0.00  0.00    +0.209 HD
ENDBRANCH  37  38
ENDBRANCH  27  37
ENDBRANCH  24  25
ENDBRANCH  23  24
ENDBRANCH  22  23
ENDBRANCH  21  22
ENDBRANCH   3  21
TORSDOF 12
