REMARK  Name = NuBBE_2102
REMARK  12 active torsions:
REMARK  status: ('A' for Active; 'I' for Inactive)
REMARK    1  A    between atoms: O_1  and  C_2
REMARK    2  A    between atoms: O_1  and  C_3
REMARK    3  A    between atoms: C_4  and  C_19
REMARK    4  A    between atoms: C_5  and  C_18
REMARK    5  A    between atoms: C_6  and  C_9
REMARK    6  A    between atoms: C_7  and  O_8
REMARK    7  A    between atoms: C_9  and  C_10
REMARK    8  A    between atoms: C_13  and  O_16
REMARK    9  A    between atoms: C_14  and  O_15
REMARK   10  A    between atoms: O_16  and  C_17
REMARK   11  A    between atoms: C_23  and  O_25
REMARK   12  A    between atoms: O_25  and  C_26
REMARK                            x       y       z     vdW  Elec       q    Type
REMARK                         _______ _______ _______ _____ _____    ______ ____
ROOT
ATOM      1  C   LIG A   1      -1.421  -0.830  -0.437  0.00  0.00    +0.130 C 
ATOM      2  C   LIG A   1      -0.149  -0.170  -1.155  0.00  0.00    +0.060 C 
ATOM      3  C   LIG A   1       1.028  -1.160  -0.862  0.00  0.00    +0.005 C 
ATOM      4  C   LIG A   1       0.470  -2.150   0.199  0.00  0.00    +0.009 C 
ATOM      5  C   LIG A   1      -0.968  -2.322  -0.301  0.00  0.00    +0.156 C 
ATOM      6  C   LIG A   1       0.457  -1.496   1.634  0.00  0.00    +0.044 C 
ATOM      7  C   LIG A   1      -0.482  -0.292   1.882  0.00  0.00    +0.150 C 
ATOM      8  C   LIG A   1      -1.719  -0.269   0.970  0.00  0.00    +0.178 C 
ATOM      9  C   LIG A   1       1.459  -1.799  -2.200  0.00  0.00    +0.009 C 
ENDROOT
BRANCH   2  10
ATOM     10  C   LIG A   1       0.224   1.309  -0.987  0.00  0.00    -0.034 A 
ATOM     11  C   LIG A   1       1.563   1.754  -1.068  0.00  0.00    +0.053 A 
ATOM     12  C   LIG A   1       1.849   3.103  -0.966  0.00  0.00    +0.170 A 
ATOM     13  C   LIG A   1       0.862   4.041  -0.831  0.00  0.00    +0.207 A 
ATOM     14  C   LIG A   1      -0.471   3.671  -0.816  0.00  0.00    +0.166 A 
ATOM     15  C   LIG A   1      -0.781   2.298  -0.897  0.00  0.00    +0.053 A 
ATOM     16  O   LIG A   1       1.370   5.307  -0.778  0.00  0.00    -0.449 OA
ATOM     17  C   LIG A   1       2.784   5.050  -0.885  0.00  0.00    +0.467 C 
ATOM     18  O   LIG A   1       3.096   3.648  -1.015  0.00  0.00    -0.453 OA
BRANCH  14  19
ATOM     19  O   LIG A   1      -1.393   4.674  -0.704  0.00  0.00    -0.491 OA
ATOM     20  C   LIG A   1      -2.660   4.403  -1.289  0.00  0.00    +0.277 C 
ENDBRANCH  14  19
ENDBRANCH   2  10
BRANCH   1  21
ATOM     21  O   LIG A   1      -2.535  -0.676  -1.344  0.00  0.00    -0.371 OA
ATOM     22  C   LIG A   1      -3.783  -1.250  -0.964  0.00  0.00    +0.195 C 
ENDBRANCH   1  21
BRANCH   5  23
ATOM     23  O   LIG A   1      -1.701  -3.161   0.582  0.00  0.00    -0.388 OA
ATOM     24  H   LIG A   1      -2.337  -2.595   1.085  0.00  0.00    +0.210 HD
ENDBRANCH   5  23
BRANCH   8  25
ATOM     25  O   LIG A   1      -2.780  -1.036   1.599  0.00  0.00    -0.386 OA
ATOM     26  H   LIG A   1      -2.953  -0.559   2.451  0.00  0.00    +0.210 HD
ENDBRANCH   8  25
BRANCH   7  27
ATOM     27  O   LIG A   1      -0.991  -0.259   3.233  0.00  0.00    -0.377 OA
ATOM     28  C   LIG A   1      -0.001  -0.129   4.240  0.00  0.00    +0.194 C 
ENDBRANCH   7  27
BRANCH   4  29
ATOM     29  C   LIG A   1       1.226  -3.503   0.264  0.00  0.00    +0.036 C 
BRANCH  29  30
ATOM     30  C   LIG A   1       2.714  -3.399   0.587  0.00  0.00    -0.034 C 
ATOM     31  C   LIG A   1       3.720  -3.930  -0.177  0.00  0.00    +0.004 C 
ENDBRANCH  29  30
ENDBRANCH   4  29
TORSDOF 8
