REMARK  Name = NuBBE_574
REMARK  7 active torsions:
REMARK  status: ('A' for Active; 'I' for Inactive)
REMARK    1  A    between atoms: C_3  and  O_9
REMARK    2  A    between atoms: C_5  and  C_6
REMARK    3  A    between atoms: C_12  and  C_13
REMARK    4  A    between atoms: C_12  and  O_14
REMARK    5  A    between atoms: C_21  and  C_22
REMARK    6  A    between atoms: C_21  and  C_23
REMARK    7  A    between atoms: C_25  and  C_27
REMARK                            x       y       z     vdW  Elec       q    Type
REMARK                         _______ _______ _______ _____ _____    ______ ____
ROOT
ATOM      1  O   LIG A   1       1.821   3.087  -1.176  0.00  0.00    -0.293 OA
ATOM      2  C   LIG A   1       0.914   2.336  -0.803  0.00  0.00    +0.176 C 
ATOM      3  C   LIG A   1       1.117   1.308   0.364  0.00  0.00    +0.171 C 
ATOM      4  C   LIG A   1      -0.248   1.557   0.923  0.00  0.00    +0.027 C 
ATOM      5  C   LIG A   1      -0.171   2.426   1.956  0.00  0.00    -0.004 C 
ATOM      6  C   LIG A   1       0.338   3.856   1.845  0.00  0.00    +0.047 C 
ATOM      7  C   LIG A   1       0.826   1.612   2.688  0.00  0.00    +0.188 C 
ATOM      8  O   LIG A   1       0.761   1.406   3.900  0.00  0.00    -0.287 OA
ATOM      9  C   LIG A   1       1.739   0.933   1.704  0.00  0.00    +0.041 C 
ATOM     10  C   LIG A   1       2.095  -0.362   1.974  0.00  0.00    +0.018 C 
ATOM     11  C   LIG A   1       1.169  -1.497   2.516  0.00  0.00    +0.082 C 
ATOM     12  C   LIG A   1       1.981  -2.801   2.630  0.00  0.00    +0.046 C 
ATOM     13  C   LIG A   1      -0.138  -1.797   1.696  0.00  0.00    +0.039 C 
ATOM     14  C   LIG A   1       0.009  -2.057   0.174  0.00  0.00    +0.007 C 
ATOM     15  C   LIG A   1      -1.155  -1.567  -0.674  0.00  0.00    -0.001 C 
ATOM     16  C   LIG A   1      -1.369  -0.276  -1.545  0.00  0.00    -0.001 C 
ATOM     17  C   LIG A   1      -1.128  -1.650  -2.191  0.00  0.00    -0.029 C 
ATOM     18  C   LIG A   1      -2.299  -2.180  -2.980  0.00  0.00    +0.011 C 
ATOM     19  C   LIG A   1       0.197  -1.953  -2.871  0.00  0.00    +0.011 C 
ATOM     20  C   LIG A   1      -0.603   0.823  -2.270  0.00  0.00    +0.015 C 
ATOM     21  C   LIG A   1      -0.457   2.223  -1.636  0.00  0.00    +0.056 C 
ATOM     22  C   LIG A   1      -1.772   2.743  -1.010  0.00  0.00    +0.015 C 
ENDROOT
BRANCH   3  23
ATOM     23  O   LIG A   1       1.449   0.252  -0.516  0.00  0.00    -0.373 OA
ATOM     24  H   LIG A   1       2.345   0.460  -0.858  0.00  0.00    +0.211 HD
ENDBRANCH   3  23
BRANCH  11  25
ATOM     25  O   LIG A   1       0.771  -1.242   3.866  0.00  0.00    -0.385 OA
ATOM     26  H   LIG A   1       0.518  -0.305   3.975  0.00  0.00    +0.211 HD
ENDBRANCH  11  25
TORSDOF 2
