REMARK  Name = NuBBE_1322
REMARK  5 active torsions:
REMARK  status: ('A' for Active; 'I' for Inactive)
REMARK    1  A    between atoms: C_4  and  C_20
REMARK    2  A    between atoms: C_9  and  O_18
REMARK    3  A    between atoms: C_14  and  C_15
REMARK    4  A    between atoms: C_14  and  C_17
REMARK    5  A    between atoms: O_18  and  C_19
REMARK                            x       y       z     vdW  Elec       q    Type
REMARK                         _______ _______ _______ _____ _____    ______ ____
ROOT
ATOM      1  O   LIG A   1      -3.766  -1.221  -1.012  0.00  0.00    -0.292 OA
ATOM      2  C   LIG A   1      -2.549  -1.242  -0.874  0.00  0.00    +0.171 C 
ATOM      3  C   LIG A   1      -1.716  -2.438  -1.230  0.00  0.00    +0.129 C 
ATOM      4  C   LIG A   1      -0.521  -2.478  -0.292  0.00  0.00    +0.211 C 
ATOM      5  O   LIG A   1       0.265  -1.283  -0.406  0.00  0.00    -0.482 OA
ATOM      6  C   LIG A   1      -0.438  -0.121  -0.219  0.00  0.00    +0.143 A 
ATOM      7  C   LIG A   1      -1.817  -0.042  -0.416  0.00  0.00    +0.063 A 
ATOM      8  C   LIG A   1      -2.502   1.165  -0.240  0.00  0.00    +0.064 A 
ATOM      9  C   LIG A   1      -1.798   2.318   0.113  0.00  0.00    +0.163 A 
ATOM     10  C   LIG A   1      -0.405   2.243   0.312  0.00  0.00    +0.174 A 
ATOM     11  C   LIG A   1       0.280   1.029   0.142  0.00  0.00    +0.062 A 
ATOM     12  C   LIG A   1       1.727   0.992   0.340  0.00  0.00    +0.015 C 
ATOM     13  C   LIG A   1       2.329   2.083   0.818  0.00  0.00    +0.020 C 
ATOM     14  C   LIG A   1       1.584   3.354   1.141  0.00  0.00    +0.124 C 
ATOM     15  C   LIG A   1       2.325   4.540   0.512  0.00  0.00    +0.060 C 
ATOM     16  O   LIG A   1       0.238   3.413   0.632  0.00  0.00    -0.478 OA
ATOM     17  C   LIG A   1       1.509   3.541   2.661  0.00  0.00    +0.060 C 
ENDROOT
BRANCH   4  18
ATOM     18  C   LIG A   1       0.366  -3.667  -0.615  0.00  0.00    -0.007 A 
ATOM     19  C   LIG A   1       0.145  -4.901   0.016  0.00  0.00    +0.007 A 
ATOM     20  C   LIG A   1       0.947  -6.005  -0.281  0.00  0.00    +0.000 A 
ATOM     21  C   LIG A   1       1.976  -5.891  -1.213  0.00  0.00    +0.000 A 
ATOM     22  C   LIG A   1       2.202  -4.676  -1.855  0.00  0.00    +0.000 A 
ATOM     23  C   LIG A   1       1.399  -3.573  -1.563  0.00  0.00    +0.007 A 
ENDBRANCH   4  18
BRANCH   9  24
ATOM     24  O   LIG A   1      -2.369   3.554   0.278  0.00  0.00    -0.491 OA
ATOM     25  C   LIG A   1      -3.771   3.665   0.068  0.00  0.00    +0.277 C 
ENDBRANCH   9  24
TORSDOF 2
