REMARK  Name = NuBBE_1309
REMARK  13 active torsions:
REMARK  status: ('A' for Active; 'I' for Inactive)
REMARK    1  A    between atoms: C_4  and  C_5
REMARK    2  A    between atoms: C_7  and  O_8
REMARK    3  A    between atoms: O_8  and  C_9
REMARK    4  A    between atoms: C_10  and  O_11
REMARK    5  A    between atoms: O_11  and  C_12
REMARK    6  A    between atoms: C_13  and  O_14
REMARK    7  A    between atoms: O_14  and  C_15
REMARK    8  A    between atoms: C_20  and  O_21
REMARK    9  A    between atoms: O_21  and  C_22
REMARK   10  A    between atoms: C_23  and  O_24
REMARK   11  A    between atoms: O_24  and  C_25
REMARK   12  A    between atoms: C_27  and  O_28
REMARK   13  A    between atoms: O_28  and  C_29
REMARK                            x       y       z     vdW  Elec       q    Type
REMARK                         _______ _______ _______ _____ _____    ______ ____
ROOT
ATOM      1  O   LIG A   1      -3.865   1.718  -0.042  0.00  0.00    -0.287 OA
ATOM      2  C   LIG A   1      -2.698   1.421  -0.078  0.00  0.00    +0.197 A 
ATOM      3  C   LIG A   1      -2.331  -0.007  -0.085  0.00  0.00    +0.098 A 
ATOM      4  C   LIG A   1      -1.049  -0.364  -0.078  0.00  0.00    +0.140 A 
ATOM      5  O   LIG A   1       0.009   0.538  -0.148  0.00  0.00    -0.451 OA
ATOM      6  C   LIG A   1      -1.576   2.392  -0.100  0.00  0.00    +0.109 A 
ATOM      7  C   LIG A   1      -0.268   1.900  -0.149  0.00  0.00    +0.188 A 
ATOM      8  C   LIG A   1       0.836   2.787  -0.201  0.00  0.00    +0.205 A 
ATOM      9  C   LIG A   1       0.586   4.170  -0.228  0.00  0.00    +0.169 A 
ATOM     10  C   LIG A   1      -0.728   4.640  -0.171  0.00  0.00    +0.096 A 
ATOM     11  C   LIG A   1      -1.815   3.768  -0.074  0.00  0.00    +0.138 A 
ENDROOT
BRANCH   4  12
ATOM     12  C   LIG A   1      -0.665  -1.794  -0.041  0.00  0.00    +0.025 A 
ATOM     13  C   LIG A   1       0.512  -2.211  -0.664  0.00  0.00    +0.061 A 
ATOM     14  C   LIG A   1       0.927  -3.548  -0.630  0.00  0.00    +0.166 A 
ATOM     15  C   LIG A   1       0.146  -4.517   0.035  0.00  0.00    +0.203 A 
ATOM     16  C   LIG A   1      -1.047  -4.114   0.665  0.00  0.00    +0.166 A 
ATOM     17  C   LIG A   1      -1.431  -2.761   0.629  0.00  0.00    +0.061 A 
BRANCH  14  18
ATOM     18  O   LIG A   1       2.069  -3.981  -1.242  0.00  0.00    -0.491 OA
ATOM     19  C   LIG A   1       2.901  -3.050  -1.907  0.00  0.00    +0.277 C 
ENDBRANCH  14  18
BRANCH  15  20
ATOM     20  O   LIG A   1       0.442  -5.858   0.050  0.00  0.00    -0.488 OA
ATOM     21  C   LIG A   1       1.804  -6.262   0.039  0.00  0.00    +0.277 C 
ENDBRANCH  15  20
BRANCH  16  22
ATOM     22  O   LIG A   1      -1.910  -4.893   1.401  0.00  0.00    -0.491 OA
ATOM     23  C   LIG A   1      -1.946  -6.284   1.101  0.00  0.00    +0.277 C 
ENDBRANCH  16  22
ENDBRANCH   4  12
BRANCH   8  24
ATOM     24  O   LIG A   1       2.088   2.217  -0.272  0.00  0.00    -0.488 OA
ATOM     25  C   LIG A   1       3.158   2.949   0.329  0.00  0.00    +0.277 C 
ENDBRANCH   8  24
BRANCH   9  26
ATOM     26  O   LIG A   1       1.622   5.048  -0.419  0.00  0.00    -0.491 OA
ATOM     27  C   LIG A   1       1.478   6.330   0.186  0.00  0.00    +0.277 C 
ENDBRANCH   9  26
BRANCH  11  28
ATOM     28  O   LIG A   1      -3.097   4.242  -0.065  0.00  0.00    -0.494 OA
ATOM     29  C   LIG A   1      -3.325   5.458   0.642  0.00  0.00    +0.277 C 
ENDBRANCH  11  28
TORSDOF 7
