REMARK  Name = NuBBE_2049
REMARK  10 active torsions:
REMARK  status: ('A' for Active; 'I' for Inactive)
REMARK    1  A    between atoms: O_1  and  C_2
REMARK    2  A    between atoms: O_1  and  C_3
REMARK    3  A    between atoms: C_15  and  O_16
REMARK    4  A    between atoms: O_16  and  C_17
REMARK    5  A    between atoms: C_18  and  O_22
REMARK    6  A    between atoms: C_19  and  O_21
REMARK    7  A    between atoms: O_22  and  C_23
REMARK    8  A    between atoms: C_25  and  O_29
REMARK    9  A    between atoms: C_26  and  O_27
REMARK   10  A    between atoms: O_27  and  C_28
REMARK                            x       y       z     vdW  Elec       q    Type
REMARK                         _______ _______ _______ _____ _____    ______ ____
ROOT
ATOM      1  C   LIG A   1      -1.680  -3.152   0.042  0.00  0.00    +0.208 A 
ATOM      2  C   LIG A   1      -1.566  -1.772  -0.238  0.00  0.00    +0.172 A 
ATOM      3  C   LIG A   1      -0.339  -1.221  -0.617  0.00  0.00    +0.042 A 
ATOM      4  C   LIG A   1      -0.249   0.197  -1.105  0.00  0.00    +0.218 C 
ATOM      5  C   LIG A   1      -1.522   1.023  -0.906  0.00  0.00    +0.106 C 
ATOM      6  C   LIG A   1      -2.396   0.382   0.162  0.00  0.00    +0.241 C 
ATOM      7  O   LIG A   1      -2.694  -0.983  -0.178  0.00  0.00    -0.487 OA
ATOM      8  C   LIG A   1      -0.910   2.327  -0.522  0.00  0.00    +0.012 A 
ATOM      9  C   LIG A   1       0.450   2.149  -0.272  0.00  0.00    +0.170 A 
ATOM     10  O   LIG A   1       0.847   0.848  -0.422  0.00  0.00    -0.479 OA
ATOM     11  C   LIG A   1       1.288   3.186   0.147  0.00  0.00    +0.208 A 
ATOM     12  C   LIG A   1       0.699   4.440   0.354  0.00  0.00    +0.207 A 
ATOM     13  C   LIG A   1      -0.688   4.600   0.101  0.00  0.00    +0.163 A 
ATOM     14  C   LIG A   1      -1.496   3.558  -0.361  0.00  0.00    +0.057 A 
ATOM     15  C   LIG A   1       0.806  -2.023  -0.600  0.00  0.00    +0.060 A 
ATOM     16  C   LIG A   1       0.719  -3.371  -0.262  0.00  0.00    +0.163 A 
ATOM     17  C   LIG A   1      -0.518  -3.961   0.046  0.00  0.00    +0.207 A 
ENDROOT
BRANCH   1  18
ATOM     18  O   LIG A   1      -2.950  -3.574   0.373  0.00  0.00    -0.488 OA
ATOM     19  C   LIG A   1      -3.308  -4.903   0.012  0.00  0.00    +0.277 C 
ENDBRANCH   1  18
BRANCH  11  20
ATOM     20  O   LIG A   1       2.614   3.001   0.425  0.00  0.00    -0.488 OA
ATOM     21  C   LIG A   1       3.319   2.091  -0.412  0.00  0.00    +0.277 C 
ENDBRANCH  11  20
BRANCH  13  22
ATOM     22  O   LIG A   1      -1.303   5.798   0.351  0.00  0.00    -0.503 OA
ATOM     23  H   LIG A   1      -0.641   6.325   0.842  0.00  0.00    +0.292 HD
ENDBRANCH  13  22
BRANCH  12  24
ATOM     24  O   LIG A   1       1.303   5.600   0.789  0.00  0.00    -0.488 OA
ATOM     25  C   LIG A   1       2.700   5.568   1.057  0.00  0.00    +0.277 C 
ENDBRANCH  12  24
BRANCH  17  26
ATOM     26  O   LIG A   1      -0.679  -5.295   0.313  0.00  0.00    -0.488 OA
ATOM     27  C   LIG A   1       0.390  -5.986   0.944  0.00  0.00    +0.277 C 
ENDBRANCH  17  26
BRANCH  16  28
ATOM     28  O   LIG A   1       1.875  -4.105  -0.276  0.00  0.00    -0.503 OA
ATOM     29  H   LIG A   1       2.630  -3.514  -0.427  0.00  0.00    +0.292 HD
ENDBRANCH  16  28
TORSDOF 6
