@<TRIPOS>MOLECULE
NuBBE_1711
 22 23 0 0 0
SMALL
GASTEIGER

@<TRIPOS>ATOM
      1 C          -0.1873   -2.9843    1.7357 C.3     1  LIG1        0.0788
      2 O          -0.4165   -1.5979    1.5135 O.3     1  LIG1       -0.4943
      3 C           0.0682   -1.0446    0.3470 C.ar    1  LIG1        0.1343
      4 C          -0.2026    0.4007    0.1916 C.ar    1  LIG1        0.0402
      5 C          -0.8982    1.1459    1.1538 C.ar    1  LIG1       -0.0491
      6 C          -1.1310    2.5114    0.9656 C.ar    1  LIG1       -0.0610
      7 C          -0.6714    3.1482   -0.1862 C.ar    1  LIG1       -0.0598
      8 C           0.0219    2.4224   -1.1539 C.ar    1  LIG1       -0.0376
      9 C           0.2519    1.0584   -0.9616 C.ar    1  LIG1        0.0527
     10 N           0.9480    0.3374   -1.9377 N.ar    1  LIG1       -0.3219
     11 C           0.7411   -1.6910   -0.6205 C.ar    1  LIG1        0.0451
     12 C           1.2189   -0.9959   -1.8367 C.ar    1  LIG1        0.2527
     13 O           1.8307   -1.6080   -2.7058 O.2     1  LIG1       -0.2678
     14 H          -0.6332   -3.2487    2.6991 H       1  LIG1        0.0660
     15 H           0.8846   -3.2003    1.7898 H       1  LIG1        0.0660
     16 H          -0.6712   -3.5901    0.9627 H       1  LIG1        0.0660
     17 H          -1.2658    0.6699    2.0601 H       1  LIG1        0.0625
     18 H          -1.6720    3.0764    1.7208 H       1  LIG1        0.0618
     19 H          -0.8541    4.2103   -0.3291 H       1  LIG1        0.0618
     20 H           0.3756    2.9279   -2.0477 H       1  LIG1        0.0638
     21 H           1.2817    0.7965   -2.7741 H       1  LIG1        0.1689
     22 H           0.9805   -2.7445   -0.5864 H       1  LIG1        0.0709
@<TRIPOS>BOND
     1     1     2    1
     2     2     3    1
     3     3     4   ar
     4     4     5   ar
     5     5     6   ar
     6     6     7   ar
     7     7     8   ar
     8     8     9   ar
     9     4     9   ar
    10     9    10   ar
    11     3    11   ar
    12    11    12   ar
    13    10    12   ar
    14    12    13    2
    15     1    14    1
    16     1    15    1
    17     1    16    1
    18     5    17    1
    19     6    18    1
    20     7    19    1
    21     8    20    1
    22    10    21    1
    23    11    22    1
