REMARK  Name = NuBBE_667
REMARK  9 active torsions:
REMARK  status: ('A' for Active; 'I' for Inactive)
REMARK    1  A    between atoms: C_5  and  C_6
REMARK    2  A    between atoms: C_6  and  O_7
REMARK    3  A    between atoms: C_9  and  O_11
REMARK    4  A    between atoms: C_14  and  O_16
REMARK    5  A    between atoms: O_16  and  C_17
REMARK    6  A    between atoms: C_17  and  C_18
REMARK    7  A    between atoms: C_18  and  C_19
REMARK    8  A    between atoms: C_20  and  C_21
REMARK    9  A    between atoms: C_24  and  C_25
REMARK                            x       y       z     vdW  Elec       q    Type
REMARK                         _______ _______ _______ _____ _____    ______ ____
ROOT
ATOM      1  O   LIG A   1      -2.667  -1.042  -0.098  0.00  0.00    -0.294 OA
ATOM      2  C   LIG A   1      -1.486  -1.359  -0.050  0.00  0.00    +0.168 C 
ATOM      3  C   LIG A   1      -0.628  -1.217   1.169  0.00  0.00    +0.117 C 
ATOM      4  C   LIG A   1       0.712  -1.658   0.576  0.00  0.00    +0.109 C 
ATOM      5  C   LIG A   1       1.684  -2.132   1.615  0.00  0.00    -0.014 C 
ATOM      6  C   LIG A   1       2.597  -1.171   1.855  0.00  0.00    +0.009 C 
ATOM      7  C   LIG A   1       2.388   0.028   0.969  0.00  0.00    +0.147 C 
ATOM      8  C   LIG A   1       1.581  -0.619  -0.146  0.00  0.00    +0.099 C 
ATOM      9  C   LIG A   1       0.798   0.210  -1.155  0.00  0.00    +0.189 C 
ATOM     10  C   LIG A   1      -0.067  -0.753  -2.015  0.00  0.00    +0.087 C 
ATOM     11  C   LIG A   1      -0.673  -1.918  -1.200  0.00  0.00    +0.129 C 
ATOM     12  C   LIG A   1      -1.415  -2.935  -2.042  0.00  0.00    +0.050 C 
ATOM     13  O   LIG A   1       0.364  -2.609  -0.432  0.00  0.00    -0.354 OA
ENDROOT
BRANCH   7  14
ATOM     14  O   LIG A   1       3.626   0.511   0.491  0.00  0.00    -0.387 OA
ATOM     15  H   LIG A   1       4.163  -0.247   0.202  0.00  0.00    +0.210 HD
ENDBRANCH   7  14
BRANCH   5  16
ATOM     16  C   LIG A   1       1.541  -3.435   2.315  0.00  0.00    +0.189 C 
BRANCH  16  17
ATOM     17  O   LIG A   1       2.171  -4.449   1.553  0.00  0.00    -0.391 OA
ATOM     18  H   LIG A   1       1.815  -4.389   0.649  0.00  0.00    +0.210 HD
ENDBRANCH  16  17
ENDBRANCH   5  16
BRANCH   9  19
ATOM     19  O   LIG A   1      -0.073   1.165  -0.518  0.00  0.00    -0.458 OA
BRANCH  19  20
ATOM     20  C   LIG A   1       0.118   2.471  -0.861  0.00  0.00    +0.335 C 
ATOM     21  O   LIG A   1       1.059   2.884  -1.526  0.00  0.00    -0.245 OA
BRANCH  20  22
ATOM     22  C   LIG A   1      -0.991   3.362  -0.404  0.00  0.00    +0.029 C 
ATOM     23  C   LIG A   1      -0.851   4.806  -0.808  0.00  0.00    +0.051 C 
ATOM     24  C   LIG A   1      -2.053   2.892   0.282  0.00  0.00    -0.020 C 
ATOM     25  C   LIG A   1      -3.257   3.678   0.700  0.00  0.00    +0.035 C 
ENDBRANCH  20  22
ENDBRANCH  19  20
ENDBRANCH   9  19
TORSDOF 6
