@<TRIPOS>MOLECULE
NuBBE_2057
 38 40 0 0 0
SMALL
GASTEIGER

@<TRIPOS>ATOM
      1 O          -5.4620    2.5485    0.8458 O.2     1  LIG1       -0.2452
      2 C          -4.2884    2.7596    0.5820 C.ar    1  LIG1        0.3372
      3 O          -3.3520    1.7394    0.5025 O.2     1  LIG1       -0.4219
      4 C          -2.0012    2.0118    0.2150 C.ar    1  LIG1        0.1463
      5 C          -1.1449    0.9050    0.1646 C.ar    1  LIG1        0.0270
      6 C           0.2150    1.0740   -0.1152 C.ar    1  LIG1        0.1694
      7 O           1.1232    0.0475   -0.2031 O.3     1  LIG1       -0.4854
      8 C           0.5693   -1.2683    0.0009 C.3     1  LIG1        0.1183
      9 C           1.6675   -2.3350   -0.1187 C.3     1  LIG1        0.1171
     10 C           1.1196   -3.7815    0.0542 C.3     1  LIG1        0.0894
     11 C           2.2449   -4.8181   -0.0529 C.3     1  LIG1       -0.0338
     12 C           0.3674   -3.9837    1.3716 C.3     1  LIG1       -0.0338
     13 O           0.1900   -4.0472   -1.0081 O.3     1  LIG1       -0.3865
     14 O           2.2521   -2.2309   -1.4324 O.3     1  LIG1       -0.3856
     15 C           0.6557    2.3779   -0.3191 C.ar    1  LIG1        0.2084
     16 O           1.9364    2.7677   -0.5880 O.3     1  LIG1       -0.4489
     17 C           1.7817    4.1954   -0.7161 C.3     1  LIG1        0.2334
     18 O           0.4298    4.6442   -0.5036 O.3     1  LIG1       -0.4518
     19 C          -0.2072    3.4615   -0.2677 C.ar    1  LIG1        0.1805
     20 C          -1.5563    3.3107   -0.0046 C.ar    1  LIG1        0.0632
     21 C          -2.5182    4.3979    0.0533 C.ar    1  LIG1       -0.0407
     22 C          -3.7995    4.1284    0.3298 C.ar    1  LIG1        0.0237
     23 H          -1.5870   -0.0684    0.3476 H       1  LIG1        0.0692
     24 H          -0.1916   -1.4525   -0.7680 H       1  LIG1        0.0724
     25 H           0.1338   -1.3138    1.0042 H       1  LIG1        0.0724
     26 H           2.4628   -2.1328    0.6077 H       1  LIG1        0.0656
     27 H           2.9825   -4.6904    0.7461 H       1  LIG1        0.0258
     28 H           2.7601   -4.7555   -1.0173 H       1  LIG1        0.0258
     29 H           1.8428   -5.8366    0.0091 H       1  LIG1        0.0258
     30 H           0.9857   -3.7151    2.2336 H       1  LIG1        0.0258
     31 H           0.0528   -5.0282    1.4845 H       1  LIG1        0.0258
     32 H          -0.5575   -3.3977    1.4006 H       1  LIG1        0.0258
     33 H           0.6339   -3.7383   -1.8239 H       1  LIG1        0.2102
     34 H           2.4604   -1.2837   -1.5563 H       1  LIG1        0.2100
     35 H           2.4325    4.6937    0.0124 H       1  LIG1        0.1166
     36 H           2.0943    4.4961   -1.7231 H       1  LIG1        0.1166
     37 H          -2.1787    5.4116   -0.1312 H       1  LIG1        0.0628
     38 H          -4.5497    4.9065    0.3837 H       1  LIG1        0.0689
@<TRIPOS>BOND
     1     1     2    2
     2     2     3   ar
     3     3     4   ar
     4     4     5   ar
     5     5     6   ar
     6     6     7    1
     7     7     8    1
     8     8     9    1
     9     9    10    1
    10    10    11    1
    11    10    12    1
    12    10    13    1
    13     9    14    1
    14     6    15   ar
    15    15    16    1
    16    16    17    1
    17    17    18    1
    18    15    19   ar
    19    18    19    1
    20    19    20   ar
    21     4    20   ar
    22    20    21   ar
    23    21    22   ar
    24     2    22   ar
    25     5    23    1
    26     8    24    1
    27     8    25    1
    28     9    26    1
    29    11    27    1
    30    11    28    1
    31    11    29    1
    32    12    30    1
    33    12    31    1
    34    12    32    1
    35    13    33    1
    36    14    34    1
    37    17    35    1
    38    17    36    1
    39    21    37    1
    40    22    38    1
