@<TRIPOS>MOLECULE
NuBBE_1444
 48 50 0 0 0
SMALL
GASTEIGER

@<TRIPOS>ATOM
      1 O          -3.3333   -3.7987    0.2433 O.3     1  LIG1       -0.5058
      2 C          -1.9865   -3.5771    0.1884 C.ar    1  LIG1        0.1350
      3 C          -1.1116   -4.6367    0.3982 C.ar    1  LIG1        0.0261
      4 C           0.2706   -4.4114    0.3922 C.ar    1  LIG1        0.1687
      5 O           1.1827   -5.4252    0.5751 O.3     1  LIG1       -0.4912
      6 C           0.8013   -6.7096    0.0843 C.3     1  LIG1        0.0790
      7 C           0.7783   -3.0977    0.2412 C.ar    1  LIG1        0.2051
      8 C          -0.1199   -2.0363    0.0404 C.ar    1  LIG1        0.1881
      9 C          -1.4897   -2.2911   -0.0346 C.ar    1  LIG1        0.1128
     10 C          -2.3482   -1.1746   -0.4344 C.ar    1  LIG1        0.2382
     11 C          -1.8689    0.1952   -0.1079 C.ar    1  LIG1        0.2107
     12 O          -2.7070    1.2862    0.0593 O.3     1  LIG1       -0.4883
     13 C          -3.9969    1.1911   -0.5371 C.3     1  LIG1        0.0791
     14 C          -0.5292    0.3059    0.0089 C.ar    1  LIG1        0.1811
     15 O           0.3514   -0.7537   -0.0804 O.2     1  LIG1       -0.4470
     16 C           0.1537    1.5880    0.2472 C.ar    1  LIG1        0.0247
     17 C           0.4934    1.9438    1.5510 C.ar    1  LIG1       -0.0473
     18 C           1.1259    3.1585    1.8087 C.ar    1  LIG1       -0.0156
     19 C           1.4239    4.0494    0.7704 C.ar    1  LIG1        0.1615
     20 C           1.1348    3.6818   -0.5622 C.ar    1  LIG1        0.1622
     21 O           1.4706    4.5852   -1.5441 O.3     1  LIG1       -0.4914
     22 C           1.1631    4.2503   -2.8950 C.3     1  LIG1        0.0790
     23 C           0.5058    2.4478   -0.8092 C.ar    1  LIG1       -0.0055
     24 O           2.0285    5.2654    1.0016 O.3     1  LIG1       -0.4915
     25 C           1.7355    5.8603    2.2677 C.3     1  LIG1        0.0790
     26 O          -3.3668   -1.3828   -1.1049 O.2     1  LIG1       -0.2830
     27 O           2.1414   -2.9658    0.3682 O.3     1  LIG1       -0.4885
     28 C           2.7883   -1.9589   -0.4037 C.3     1  LIG1        0.0791
     29 H          -3.5226   -4.7504    0.2300 H       1  LIG1        0.2922
     30 H          -1.5154   -5.6255    0.5829 H       1  LIG1        0.0692
     31 H          -0.0122   -7.1434    0.6743 H       1  LIG1        0.0660
     32 H           1.6611   -7.3790    0.1862 H       1  LIG1        0.0660
     33 H           0.5331   -6.6667   -0.9776 H       1  LIG1        0.0660
     34 H          -4.5714    2.0748   -0.2455 H       1  LIG1        0.0660
     35 H          -4.5627    0.3274   -0.1755 H       1  LIG1        0.0660
     36 H          -3.9049    1.1876   -1.6278 H       1  LIG1        0.0660
     37 H           0.2697    1.2798    2.3820 H       1  LIG1        0.0626
     38 H           1.3786    3.3758    2.8398 H       1  LIG1        0.0655
     39 H           1.3273    5.1387   -3.5146 H       1  LIG1        0.0660
     40 H           0.1131    3.9659   -3.0224 H       1  LIG1        0.0660
     41 H           1.8302    3.4621   -3.2605 H       1  LIG1        0.0660
     42 H           0.2725    2.1326   -1.8208 H       1  LIG1        0.0662
     43 H           2.1242    5.2691    3.1035 H       1  LIG1        0.0660
     44 H           0.6577    6.0253    2.3776 H       1  LIG1        0.0660
     45 H           2.2347    6.8325    2.3222 H       1  LIG1        0.0660
     46 H           3.8655   -2.0538   -0.2380 H       1  LIG1        0.0660
     47 H           2.5373   -0.9484   -0.0761 H       1  LIG1        0.0660
     48 H           2.5932   -2.0939   -1.4726 H       1  LIG1        0.0660
@<TRIPOS>BOND
     1     1     2    1
     2     2     3   ar
     3     3     4   ar
     4     4     5    1
     5     5     6    1
     6     4     7   ar
     7     7     8   ar
     8     8     9   ar
     9     2     9   ar
    10     9    10   ar
    11    10    11   ar
    12    11    12    1
    13    12    13    1
    14    11    14   ar
    15    14    15   ar
    16     8    15   ar
    17    14    16    1
    18    16    17   ar
    19    17    18   ar
    20    18    19   ar
    21    19    20   ar
    22    20    21    1
    23    21    22    1
    24    20    23   ar
    25    16    23   ar
    26    19    24    1
    27    24    25    1
    28    10    26    2
    29     7    27    1
    30    27    28    1
    31     1    29    1
    32     3    30    1
    33     6    31    1
    34     6    32    1
    35     6    33    1
    36    13    34    1
    37    13    35    1
    38    13    36    1
    39    17    37    1
    40    18    38    1
    41    22    39    1
    42    22    40    1
    43    22    41    1
    44    23    42    1
    45    25    43    1
    46    25    44    1
    47    25    45    1
    48    28    46    1
    49    28    47    1
    50    28    48    1
