REMARK  Name = NuBBE_2060
REMARK  9 active torsions:
REMARK  status: ('A' for Active; 'I' for Inactive)
REMARK    1  A    between atoms: C_5  and  O_6
REMARK    2  A    between atoms: O_6  and  C_7
REMARK    3  A    between atoms: C_8  and  O_9
REMARK    4  A    between atoms: O_9  and  C_10
REMARK    5  A    between atoms: C_10  and  C_11
REMARK    6  A    between atoms: C_13  and  C_14
REMARK    7  A    between atoms: C_13  and  C_15
REMARK    8  A    between atoms: C_16  and  O_21
REMARK    9  A    between atoms: O_21  and  C_22
REMARK                            x       y       z     vdW  Elec       q    Type
REMARK                         _______ _______ _______ _____ _____    ______ ____
ROOT
ATOM      1  O   LIG A   1      -5.057   3.172   1.990  0.00  0.00    -0.245 OA
ATOM      2  C   LIG A   1      -3.879   3.197   1.637  0.00  0.00    +0.337 A 
ATOM      3  O   LIG A   1      -3.072   2.058   1.686  0.00  0.00    -0.418 OA
ATOM      4  C   LIG A   1      -1.779   2.041   1.144  0.00  0.00    +0.184 A 
ATOM      5  C   LIG A   1      -1.068   0.828   1.040  0.00  0.00    +0.209 A 
ATOM      6  C   LIG A   1       0.253   0.856   0.523  0.00  0.00    +0.208 A 
ATOM      7  C   LIG A   1       0.797   2.104   0.128  0.00  0.00    +0.166 A 
ATOM      8  C   LIG A   1       0.050   3.278   0.212  0.00  0.00    +0.061 A 
ATOM      9  C   LIG A   1      -1.240   3.252   0.715  0.00  0.00    +0.025 A 
ATOM     10  C   LIG A   1      -2.009   4.477   0.741  0.00  0.00    +0.019 A 
ATOM     11  C   LIG A   1      -3.274   4.471   1.170  0.00  0.00    +0.092 A 
ENDROOT
BRANCH   5  12
ATOM     12  O   LIG A   1      -1.535  -0.398   1.430  0.00  0.00    -0.488 OA
ATOM     13  C   LIG A   1      -2.932  -0.629   1.532  0.00  0.00    +0.277 C 
ENDBRANCH   5  12
BRANCH   7  14
ATOM     14  O   LIG A   1       2.040   2.358  -0.392  0.00  0.00    -0.491 OA
ATOM     15  C   LIG A   1       2.598   1.305  -1.152  0.00  0.00    +0.277 C 
ENDBRANCH   7  14
BRANCH   6  16
ATOM     16  O   LIG A   1       1.073  -0.253   0.401  0.00  0.00    -0.482 OA
BRANCH  16  17
ATOM     17  C   LIG A   1       0.475  -1.519   0.066  0.00  0.00    +0.264 C 
BRANCH  17  18
ATOM     18  C   LIG A   1       1.123  -2.132  -1.149  0.00  0.00    +0.188 C 
ATOM     19  O   LIG A   1       0.480  -3.383  -1.494  0.00  0.00    -0.362 OA
ATOM     20  C   LIG A   1       1.882  -3.457  -1.230  0.00  0.00    +0.094 C 
ATOM     21  C   LIG A   1       2.675  -3.755  -2.478  0.00  0.00    +0.044 C 
ATOM     22  C   LIG A   1       2.225  -4.178   0.038  0.00  0.00    +0.044 C 
ENDBRANCH  17  18
ENDBRANCH  16  17
ENDBRANCH   6  16
TORSDOF 5
