@<TRIPOS>MOLECULE
NuBBE_83
 58 61 0 0 0
SMALL
GASTEIGER

@<TRIPOS>ATOM
      1 C          -0.1315   -0.7284   -3.5987 C.3     1  LIG1       -0.0594
      2 C           0.9960   -0.7818   -2.5787 C.3     1  LIG1       -0.0081
      3 H           1.8973   -1.1154   -3.1151 H       1  LIG1        0.0330
      4 C           1.3221    0.5499   -1.9060 C.3     1  LIG1       -0.0081
      5 H           0.4047    1.0204   -1.5376 H       1  LIG1        0.0330
      6 C           1.9892    1.5414   -2.8447 C.3     1  LIG1       -0.0594
      7 C           2.1894    0.0862   -0.7296 C.3     1  LIG1        0.0875
      8 H           3.2127   -0.1289   -1.0609 H       1  LIG1        0.0649
      9 C           2.2420    1.0544    0.4387 C.ar    1  LIG1       -0.0115
     10 C           3.2415    2.0621    0.5056 C.ar    1  LIG1       -0.0104
     11 C           3.3028    2.9801    1.5728 C.ar    1  LIG1        0.1657
     12 O           4.3273    3.8906    1.5046 O.3     1  LIG1       -0.4913
     13 C           4.4430    4.8002    2.5910 C.3     1  LIG1        0.0790
     14 C           2.3490    2.8754    2.5611 C.ar    1  LIG1        0.2075
     15 O           2.1950    3.6522    3.6728 O.3     1  LIG1       -0.4489
     16 C           1.0550    3.0563    4.3093 C.3     1  LIG1        0.2334
     17 O           0.5277    1.9335    3.5772 O.3     1  LIG1       -0.4525
     18 C           1.3806    1.8941    2.5127 C.ar    1  LIG1        0.1702
     19 C           1.3093    0.9794    1.4830 C.ar    1  LIG1       -0.0103
     20 O           1.6283   -1.1850   -0.3201 O.3     1  LIG1       -0.3636
     21 C           0.8237   -1.7331   -1.3906 C.3     1  LIG1        0.0875
     22 H           1.2743   -2.7006   -1.6475 H       1  LIG1        0.0649
     23 C          -0.5799   -1.9821   -0.8744 C.ar    1  LIG1       -0.0115
     24 C          -1.1058   -3.2777   -0.8574 C.ar    1  LIG1       -0.0104
     25 C          -2.3628   -3.5497   -0.2930 C.ar    1  LIG1        0.1655
     26 O          -2.9021   -4.8157   -0.2253 O.3     1  LIG1       -0.4913
     27 C          -2.1294   -5.8806   -0.7685 C.3     1  LIG1        0.0790
     28 C          -3.1428   -2.4945    0.2385 C.ar    1  LIG1        0.2035
     29 O          -4.3481   -2.8728    0.7835 O.3     1  LIG1       -0.4885
     30 C          -5.3725   -1.8921    0.8786 C.3     1  LIG1        0.0791
     31 C          -2.6389   -1.1854    0.1870 C.ar    1  LIG1        0.1655
     32 O          -3.3380   -0.1465    0.7541 O.3     1  LIG1       -0.4913
     33 C          -3.2968    1.0715    0.0101 C.3     1  LIG1        0.0790
     34 C          -1.3699   -0.9512   -0.3583 C.ar    1  LIG1       -0.0104
     35 H           0.1828   -0.1565   -4.4785 H       1  LIG1        0.0233
     36 H          -1.0271   -0.2430   -3.1995 H       1  LIG1        0.0233
     37 H          -0.4028   -1.7322   -3.9412 H       1  LIG1        0.0233
     38 H           2.8839    1.1142   -3.3069 H       1  LIG1        0.0233
     39 H           2.2730    2.4549   -2.3159 H       1  LIG1        0.0233
     40 H           1.2991    1.8269   -3.6461 H       1  LIG1        0.0233
     41 H           3.9795    2.1260   -0.2845 H       1  LIG1        0.0659
     42 H           5.3271    5.4227    2.4185 H       1  LIG1        0.0660
     43 H           4.5999    4.2760    3.5408 H       1  LIG1        0.0660
     44 H           3.5781    5.4714    2.6386 H       1  LIG1        0.0660
     45 H           0.2695    3.8133    4.4054 H       1  LIG1        0.1166
     46 H           1.3463    2.7232    5.3110 H       1  LIG1        0.1166
     47 H           0.5404    0.2003    1.5136 H       1  LIG1        0.0659
     48 H          -0.5034   -4.0768   -1.2781 H       1  LIG1        0.0659
     49 H          -1.1642   -5.9738   -0.2582 H       1  LIG1        0.0660
     50 H          -1.9936   -5.7512   -1.8480 H       1  LIG1        0.0660
     51 H          -2.6734   -6.8170   -0.6135 H       1  LIG1        0.0660
     52 H          -6.3358   -2.4106    0.8528 H       1  LIG1        0.0660
     53 H          -5.3744   -1.1954    0.0340 H       1  LIG1        0.0660
     54 H          -5.3066   -1.3636    1.8355 H       1  LIG1        0.0660
     55 H          -4.1090    1.7106    0.3676 H       1  LIG1        0.0660
     56 H          -3.4536    0.8953   -1.0606 H       1  LIG1        0.0660
     57 H          -2.3580    1.6073    0.1831 H       1  LIG1        0.0660
     58 H          -0.9701    0.0515   -0.3438 H       1  LIG1        0.0659
@<TRIPOS>BOND
     1     1     2    1
     2     2     3    1
     3     2     4    1
     4     4     7    1
     5     9    10   ar
     6    10    11   ar
     7    11    12    1
     8    12    13    1
     9    11    14   ar
    10    14    15    1
    11    15    16    1
    12    16    17    1
    13    14    18   ar
    14    17    18    1
    15    18    19   ar
    16     9    19   ar
    17     7    20    1
    18    20    21    1
    19     2    21    1
    20    23    24   ar
    21    24    25   ar
    22    25    26    1
    23    26    27    1
    24    25    28   ar
    25    28    29    1
    26    29    30    1
    27    28    31   ar
    28    31    32    1
    29    32    33    1
    30    31    34   ar
    31    23    34   ar
    32     7     9    1
    33     7     8    1
    34     4     6    1
    35     4     5    1
    36    21    23    1
    37    21    22    1
    38     1    35    1
    39     1    36    1
    40     1    37    1
    41     6    38    1
    42     6    39    1
    43     6    40    1
    44    10    41    1
    45    13    42    1
    46    13    43    1
    47    13    44    1
    48    16    45    1
    49    16    46    1
    50    19    47    1
    51    24    48    1
    52    27    49    1
    53    27    50    1
    54    27    51    1
    55    30    52    1
    56    30    53    1
    57    30    54    1
    58    33    55    1
    59    33    56    1
    60    33    57    1
    61    34    58    1
