REMARK  Name = NuBBE_2103
REMARK  11 active torsions:
REMARK  status: ('A' for Active; 'I' for Inactive)
REMARK    1  A    between atoms: O_1  and  C_2
REMARK    2  A    between atoms: O_1  and  C_3
REMARK    3  A    between atoms: C_4  and  C_21
REMARK    4  A    between atoms: C_6  and  C_20
REMARK    5  A    between atoms: C_8  and  C_11
REMARK    6  A    between atoms: C_9  and  O_10
REMARK    7  A    between atoms: C_11  and  C_12
REMARK    8  A    between atoms: C_15  and  O_18
REMARK    9  A    between atoms: O_18  and  C_19
REMARK   10  A    between atoms: C_25  and  O_27
REMARK   11  A    between atoms: O_27  and  C_28
REMARK                            x       y       z     vdW  Elec       q    Type
REMARK                         _______ _______ _______ _____ _____    ______ ____
ROOT
ATOM      1  C   LIG A   1       0.408  -0.330  -1.605  0.00  0.00    +0.168 C 
ATOM      2  C   LIG A   1       0.947  -0.935  -0.251  0.00  0.00    +0.065 C 
ATOM      3  C   LIG A   1       2.025   0.108   0.250  0.00  0.00    +0.009 C 
ATOM      4  C   LIG A   1       1.918   1.311  -0.747  0.00  0.00    +0.028 C 
ATOM      5  C   LIG A   1       1.565   0.586  -2.061  0.00  0.00    +0.165 C 
ATOM      6  C   LIG A   1       0.745   2.197  -0.354  0.00  0.00    +0.032 C 
ATOM      7  C   LIG A   1      -0.535   1.896  -0.646  0.00  0.00    +0.162 C 
ATOM      8  C   LIG A   1      -0.802   0.585  -1.335  0.00  0.00    +0.232 C 
ATOM      9  O   LIG A   1      -1.936   0.256  -1.683  0.00  0.00    -0.286 OA
ATOM     10  C   LIG A   1       2.081   0.498   1.724  0.00  0.00    +0.009 C 
ENDROOT
BRANCH   2  11
ATOM     11  C   LIG A   1      -0.108  -1.538   0.680  0.00  0.00    -0.034 A 
ATOM     12  C   LIG A   1      -0.433  -2.905   0.539  0.00  0.00    +0.053 A 
ATOM     13  C   LIG A   1      -1.390  -3.467   1.370  0.00  0.00    +0.170 A 
ATOM     14  C   LIG A   1      -2.037  -2.743   2.345  0.00  0.00    +0.207 A 
ATOM     15  C   LIG A   1      -1.762  -1.402   2.524  0.00  0.00    +0.166 A 
ATOM     16  C   LIG A   1      -0.813  -0.807   1.664  0.00  0.00    +0.053 A 
ATOM     17  O   LIG A   1      -2.927  -3.512   3.033  0.00  0.00    -0.449 OA
ATOM     18  C   LIG A   1      -2.837  -4.760   2.327  0.00  0.00    +0.467 C 
ATOM     19  O   LIG A   1      -1.801  -4.767   1.327  0.00  0.00    -0.453 OA
BRANCH  15  20
ATOM     20  O   LIG A   1      -2.311  -0.556   3.449  0.00  0.00    -0.491 OA
ATOM     21  C   LIG A   1      -3.271  -1.115   4.340  0.00  0.00    +0.277 C 
ENDBRANCH  15  20
ENDBRANCH   2  11
BRANCH   1  22
ATOM     22  O   LIG A   1       0.219  -1.383  -2.562  0.00  0.00    -0.365 OA
ATOM     23  C   LIG A   1      -0.298  -0.976  -3.829  0.00  0.00    +0.195 C 
ENDBRANCH   1  22
BRANCH   5  24
ATOM     24  O   LIG A   1       2.675  -0.169  -2.559  0.00  0.00    -0.388 OA
ATOM     25  H   LIG A   1       2.307  -0.875  -3.125  0.00  0.00    +0.210 HD
ENDBRANCH   5  24
BRANCH   7  26
ATOM     26  O   LIG A   1      -1.539   2.766  -0.222  0.00  0.00    -0.492 OA
ATOM     27  C   LIG A   1      -2.716   2.764  -1.028  0.00  0.00    +0.277 C 
ENDBRANCH   7  26
BRANCH   4  28
ATOM     28  C   LIG A   1       3.244   2.112  -0.860  0.00  0.00    +0.040 C 
BRANCH  28  29
ATOM     29  C   LIG A   1       3.201   3.268  -1.832  0.00  0.00    -0.034 C 
ATOM     30  C   LIG A   1       3.442   4.539  -1.487  0.00  0.00    +0.004 C 
ENDBRANCH  28  29
ENDBRANCH   4  28
TORSDOF 7
