@<TRIPOS>MOLECULE
NuBBE_1385
 27 26 0 0 0
SMALL
GASTEIGER

@<TRIPOS>ATOM
      1 C          -2.4580    1.9484    0.5992 C.3     1  LIG1       -0.0440
      2 C          -1.0068    1.5812    0.7720 C.2     1  LIG1       -0.0796
      3 C          -0.6225    1.2444    2.1863 C.3     1  LIG1       -0.0440
      4 C          -0.1742    1.5718   -0.2874 C.2     1  LIG1       -0.0850
      5 C           1.2953    1.2465   -0.3040 C.3     1  LIG1       -0.0308
      6 C           1.6380    0.0621   -1.2216 C.3     1  LIG1       -0.0282
      7 C           0.9810   -1.2561   -0.8446 C.2     1  LIG1       -0.0693
      8 C           1.3100   -1.7955    0.5211 C.3     1  LIG1       -0.0434
      9 C           0.1717   -1.8728   -1.7271 C.2     1  LIG1       -0.0235
     10 C          -0.5557   -3.1340   -1.4707 C.2     1  LIG1        0.1431
     11 O          -1.2583   -3.6470   -2.3359 O.2     1  LIG1       -0.2963
     12 H          -2.7024    2.8218    1.2125 H       1  LIG1        0.0274
     13 H          -3.0985    1.1153    0.9064 H       1  LIG1        0.0274
     14 H          -2.7055    2.1915   -0.4395 H       1  LIG1        0.0274
     15 H          -1.2900    0.4727    2.5841 H       1  LIG1        0.0274
     16 H          -0.7055    2.1337    2.8194 H       1  LIG1        0.0274
     17 H           0.3951    0.8624    2.2859 H       1  LIG1        0.0274
     18 H          -0.5804    1.8392   -1.2637 H       1  LIG1        0.0572
     19 H           1.6935    1.0631    0.6970 H       1  LIG1        0.0310
     20 H           1.8268    2.1328   -0.6737 H       1  LIG1        0.0310
     21 H           2.7263   -0.0802   -1.2174 H       1  LIG1        0.0313
     22 H           1.3792    0.3356   -2.2535 H       1  LIG1        0.0313
     23 H           2.2917   -1.4451    0.8563 H       1  LIG1        0.0274
     24 H           1.3564   -2.8885    0.5326 H       1  LIG1        0.0274
     25 H           0.5612   -1.4691    1.2489 H       1  LIG1        0.0274
     26 H          -0.0212   -1.4508   -2.7093 H       1  LIG1        0.0649
     27 H          -0.4472   -3.5829   -0.4734 H       1  LIG1        0.1075
@<TRIPOS>BOND
     1     1     2    1
     2     2     3    1
     3     2     4    2
     4     4     5    1
     5     5     6    1
     6     6     7    1
     7     7     8    1
     8     7     9    2
     9     9    10    1
    10    10    11    2
    11     1    12    1
    12     1    13    1
    13     1    14    1
    14     3    15    1
    15     3    16    1
    16     3    17    1
    17     4    18    1
    18     5    19    1
    19     5    20    1
    20     6    21    1
    21     6    22    1
    22     8    23    1
    23     8    24    1
    24     8    25    1
    25     9    26    1
    26    10    27    1
