@<TRIPOS>MOLECULE
NuBBE_1012
 24 26 0 0 0
SMALL
GASTEIGER

@<TRIPOS>ATOM
      1 O          -2.6072    1.7312   -0.0991 O.3     1  LIG1       -0.5064
      2 C          -1.2441    1.5982   -0.1128 C.ar    1  LIG1        0.1229
      3 C          -0.6052    0.3728    0.1476 C.ar    1  LIG1        0.0305
      4 C           0.8149    0.3460    0.1774 C.ar    1  LIG1       -0.0074
      5 C           1.5367   -0.9416    0.5492 C.3     1  LIG1        0.1092
      6 H           1.5420   -1.0074    1.6453 H       1  LIG1        0.0671
      7 C           0.8438   -2.1527   -0.0062 C.3     1  LIG1        0.1180
      8 H           1.3563   -3.0845    0.1815 H       1  LIG1        0.0652
      9 C          -0.6536   -2.1368   -0.0551 C.3     1  LIG1        0.1181
     10 H          -1.2050   -3.0544    0.0908 H       1  LIG1        0.0652
     11 C          -1.3812   -0.9072    0.4053 C.3     1  LIG1        0.1125
     12 H          -1.5749   -0.9851    1.4810 H       1  LIG1        0.0672
     13 O          -2.6444   -0.8616   -0.2609 O.3     1  LIG1       -0.3844
     14 O           0.1349   -2.0109   -1.2517 O.3     1  LIG1       -0.3622
     15 O           2.8910   -0.9336    0.1170 O.3     1  LIG1       -0.3845
     16 C           1.5343    1.5176   -0.1050 C.ar    1  LIG1       -0.0555
     17 C           0.8708    2.7054   -0.4181 C.ar    1  LIG1       -0.0580
     18 C          -0.5194    2.7447   -0.4081 C.ar    1  LIG1       -0.0198
     19 H          -3.0010    0.8485    0.0542 H       1  LIG1        0.2921
     20 H          -2.4281   -0.8408   -1.2150 H       1  LIG1        0.2103
     21 H           3.3165   -1.7225    0.4899 H       1  LIG1        0.2103
     22 H           2.6229    1.5081   -0.1029 H       1  LIG1        0.0621
     23 H           1.4396    3.5969   -0.6643 H       1  LIG1        0.0619
     24 H          -1.0397    3.6698   -0.6399 H       1  LIG1        0.0654
@<TRIPOS>BOND
     1     2     3   ar
     2     3     4   ar
     3     4     5    1
     4     5     7    1
     5     7     9    1
     6     9    11    1
     7     3    11    1
     8     9    14    1
     9     7    14    1
    10     4    16   ar
    11    16    17   ar
    12    17    18   ar
    13     2    18   ar
    14     1     2    1
    15     7     8    1
    16     9    10    1
    17    11    12    1
    18    11    13    1
    19     5    15    1
    20     5     6    1
    21     1    19    1
    22    13    20    1
    23    15    21    1
    24    16    22    1
    25    17    23    1
    26    18    24    1
