@<TRIPOS>MOLECULE
NuBBE_1612
 24 26 0 0 0
SMALL
GASTEIGER

@<TRIPOS>ATOM
      1 O          -3.2762   -0.1962    0.2064 O.2     1  LIG1       -0.2411
      2 C          -2.0591   -0.3416    0.1688 C.ar    1  LIG1        0.3795
      3 O          -1.2194    0.7690    0.1331 O.2     1  LIG1       -0.4189
      4 C           0.1882    0.6614    0.1274 C.ar    1  LIG1        0.1500
      5 C           0.9788    1.8221    0.1073 C.ar    1  LIG1        0.0630
      6 C           2.3596    1.6659    0.1067 C.ar    1  LIG1        0.1383
      7 C           3.0061    0.4316    0.1248 C.ar    1  LIG1       -0.0180
      8 C           2.1883   -0.7071    0.1443 C.ar    1  LIG1       -0.0475
      9 C           0.7918   -0.5993    0.1455 C.ar    1  LIG1        0.0219
     10 C          -0.0583   -1.7778    0.1616 C.ar    1  LIG1       -0.0021
     11 C          -1.3945   -1.6868    0.1571 C.ar    1  LIG1        0.2054
     12 O          -2.1117   -2.8795    0.1841 O.3     1  LIG1       -0.4886
     13 C          -3.3512   -2.8733   -0.5173 C.3     1  LIG1        0.0791
     14 O           2.9720    2.8817    0.0865 O.2     1  LIG1       -0.4628
     15 C           1.9884    3.8198    0.0751 C.ar    1  LIG1        0.0932
     16 C           0.7484    3.2231    0.0871 C.ar    1  LIG1       -0.0126
     17 H           4.0877    0.3635    0.1240 H       1  LIG1        0.0655
     18 H           2.6640   -1.6864    0.1587 H       1  LIG1        0.0626
     19 H           0.4165   -2.7539    0.1729 H       1  LIG1        0.0663
     20 H          -3.6131   -3.9130   -0.7367 H       1  LIG1        0.0660
     21 H          -3.2793   -2.3389   -1.4707 H       1  LIG1        0.0660
     22 H          -4.1457   -2.4621    0.1116 H       1  LIG1        0.0660
     23 H           2.3249    4.8472    0.0593 H       1  LIG1        0.1030
     24 H          -0.2060    3.7305    0.0826 H       1  LIG1        0.0656
@<TRIPOS>BOND
     1     1     2    2
     2     2     3   ar
     3     3     4   ar
     4     4     5   ar
     5     5     6   ar
     6     6     7   ar
     7     7     8   ar
     8     8     9   ar
     9     4     9   ar
    10     9    10   ar
    11    10    11   ar
    12     2    11   ar
    13    11    12    1
    14    12    13    1
    15     6    14   ar
    16    14    15   ar
    17    15    16   ar
    18     5    16   ar
    19     7    17    1
    20     8    18    1
    21    10    19    1
    22    13    20    1
    23    13    21    1
    24    13    22    1
    25    15    23    1
    26    16    24    1
