@<TRIPOS>MOLECULE
NuBBE_1716
 29 31 0 0 0
SMALL
GASTEIGER

@<TRIPOS>ATOM
      1 O          -2.0427   -0.2955    0.1947 O.2     1  LIG1       -0.2861
      2 C          -0.8229   -0.3830    0.1669 C.ar    1  LIG1        0.2074
      3 C           0.0250    0.8309    0.1674 C.ar    1  LIG1        0.1098
      4 C          -0.4857    2.1302    0.3051 C.ar    1  LIG1        0.1756
      5 O          -1.8174    2.4110    0.4808 O.3     1  LIG1       -0.4906
      6 C          -2.4809    2.5016   -0.7841 C.3     1  LIG1        0.0790
      7 C           0.3918    3.2198    0.3556 C.ar    1  LIG1        0.1594
      8 O          -0.0831    4.4845    0.5668 O.3     1  LIG1       -0.5033
      9 C           1.7600    3.0508    0.2077 C.ar    1  LIG1       -0.0130
     10 C           2.2672    1.7653    0.0387 C.ar    1  LIG1       -0.0149
     11 C           1.4047    0.6605    0.0306 C.ar    1  LIG1        0.1430
     12 O           2.0206   -0.5558   -0.1161 O.2     1  LIG1       -0.4543
     13 C           1.2546   -1.6899   -0.0363 C.ar    1  LIG1        0.1428
     14 C           1.9651   -2.8930   -0.1125 C.ar    1  LIG1       -0.0184
     15 C           1.2929   -4.1104   -0.0405 C.ar    1  LIG1       -0.0548
     16 C          -0.0923   -4.1276    0.1079 C.ar    1  LIG1       -0.0192
     17 C          -0.8033   -2.9252    0.1814 C.ar    1  LIG1        0.1312
     18 O          -2.1592   -2.9823    0.3333 O.3     1  LIG1       -0.5059
     19 C          -0.1332   -1.6942    0.1073 C.ar    1  LIG1        0.1059
     20 H          -3.5583    2.4494   -0.6016 H       1  LIG1        0.0660
     21 H          -2.2093    1.6914   -1.4693 H       1  LIG1        0.0660
     22 H          -2.2606    3.4675   -1.2510 H       1  LIG1        0.0660
     23 H          -1.0276    4.3753    0.7927 H       1  LIG1        0.2923
     24 H           2.4242    3.9095    0.2388 H       1  LIG1        0.0656
     25 H           3.3394    1.6199   -0.0703 H       1  LIG1        0.0656
     26 H           3.0466   -2.8789   -0.2266 H       1  LIG1        0.0654
     27 H           1.8480   -5.0436   -0.0981 H       1  LIG1        0.0620
     28 H          -0.6032   -5.0848    0.1657 H       1  LIG1        0.0654
     29 H          -2.4605   -3.9031    0.3646 H       1  LIG1        0.2922
@<TRIPOS>BOND
     1     1     2    2
     2     2     3   ar
     3     3     4   ar
     4     4     5    1
     5     5     6    1
     6     4     7   ar
     7     7     8    1
     8     7     9   ar
     9     9    10   ar
    10    10    11   ar
    11     3    11   ar
    12    11    12   ar
    13    12    13   ar
    14    13    14   ar
    15    14    15   ar
    16    15    16   ar
    17    16    17   ar
    18    17    18    1
    19    17    19   ar
    20    13    19   ar
    21     2    19   ar
    22     6    20    1
    23     6    21    1
    24     6    22    1
    25     8    23    1
    26     9    24    1
    27    10    25    1
    28    14    26    1
    29    15    27    1
    30    16    28    1
    31    18    29    1
