@<TRIPOS>MOLECULE
NuBBE_118
 63 65 0 0 0
SMALL
GASTEIGER

@<TRIPOS>ATOM
      1 C           4.6505   -2.6502   -2.3399 C.3     1  LIG1        0.0790
      2 O           3.7534   -3.5382   -1.6869 O.3     1  LIG1       -0.4912
      3 C           2.8709   -2.9957   -0.7818 C.ar    1  LIG1        0.1686
      4 C           2.9343   -1.6714   -0.3464 C.ar    1  LIG1        0.0258
      5 C           2.0750   -1.2090    0.6575 C.ar    1  LIG1        0.1312
      6 O           2.2731    0.0917    1.0415 O.3     1  LIG1       -0.4606
      7 C           1.3899    0.6071    2.0389 C.3     1  LIG1        0.2308
      8 H           1.2973   -0.0996    2.8740 H       1  LIG1        0.1084
      9 O           0.1116    0.8546    1.4456 O.3     1  LIG1       -0.3313
     10 C          -0.8184    1.5445    2.2862 C.3     1  LIG1        0.1144
     11 H          -1.0152    0.9373    3.1809 H       1  LIG1        0.0647
     12 C          -0.2326    2.9049    2.6871 C.3     1  LIG1        0.1120
     13 H          -0.0118    3.5223    1.8073 H       1  LIG1        0.0647
     14 C           1.0704    2.6570    3.4499 C.3     1  LIG1        0.1152
     15 H           0.8764    2.1196    4.3879 H       1  LIG1        0.0648
     16 C           2.0539    1.8801    2.5833 C.3     1  LIG1        0.1454
     17 H           2.4157    2.5081    1.7598 H       1  LIG1        0.0683
     18 O           3.2076    1.5509    3.3799 O.3     1  LIG1       -0.3829
     19 O           1.6701    3.9039    3.8339 O.3     1  LIG1       -0.3864
     20 O          -1.1078    3.6497    3.5382 O.3     1  LIG1       -0.3865
     21 C          -2.1491    1.6749    1.5230 C.3     1  LIG1        0.0796
     22 O          -1.9352    2.3661    0.2883 O.3     1  LIG1       -0.3460
     23 C          -3.1517    2.6335   -0.4080 C.3     1  LIG1        0.1880
     24 H          -3.7986    3.2593    0.2175 H       1  LIG1        0.0937
     25 O          -3.8666    1.4268   -0.7330 O.3     1  LIG1       -0.3457
     26 C          -4.1478    1.4556   -2.1418 C.3     1  LIG1        0.0843
     27 C          -3.0085    2.2442   -2.7747 C.3     1  LIG1        0.1425
     28 C          -1.7579    1.3631   -2.9528 C.3     1  LIG1        0.0778
     29 O          -2.0353    0.3347   -3.9080 O.3     1  LIG1       -0.3920
     30 C          -2.8132    3.3405   -1.7303 C.3     1  LIG1        0.1387
     31 H          -1.8110    3.7801   -1.7535 H       1  LIG1        0.0675
     32 O          -3.7522    4.4066   -1.9767 O.3     1  LIG1       -0.3837
     33 O          -3.3984    2.8575   -4.0166 O.3     1  LIG1       -0.3812
     34 C           1.1395   -2.0859    1.2053 C.ar    1  LIG1        0.0258
     35 C           1.0466   -3.4173    0.7834 C.ar    1  LIG1        0.1686
     36 O           0.0898   -4.0896    1.4873 O.3     1  LIG1       -0.4912
     37 C          -0.0836   -5.4728    1.2533 C.3     1  LIG1        0.0790
     38 C           1.8929   -3.8662   -0.2491 C.ar    1  LIG1        0.2037
     39 O           1.7790   -5.1685   -0.6628 O.3     1  LIG1       -0.4885
     40 C           1.6802   -5.3348   -2.0763 C.3     1  LIG1        0.0791
     41 H           5.3024   -3.2489   -2.9820 H       1  LIG1        0.0660
     42 H           5.2919   -2.1234   -1.6255 H       1  LIG1        0.0660
     43 H           4.1017   -1.9484   -2.9763 H       1  LIG1        0.0660
     44 H           3.6477   -0.9641   -0.7466 H       1  LIG1        0.0692
     45 H           3.4918    2.3938    3.7844 H       1  LIG1        0.2102
     46 H           0.9415    4.4209    4.2341 H       1  LIG1        0.2100
     47 H          -1.7472    4.1039    2.9579 H       1  LIG1        0.2100
     48 H          -2.8882    2.2120    2.1296 H       1  LIG1        0.0587
     49 H          -2.5349    0.6741    1.2997 H       1  LIG1        0.0587
     50 H          -5.1174    1.9450   -2.2931 H       1  LIG1        0.0591
     51 H          -4.2408    0.4316   -2.5170 H       1  LIG1        0.0591
     52 H          -0.9306    1.9493   -3.3650 H       1  LIG1        0.0587
     53 H          -1.4353    0.8986   -2.0162 H       1  LIG1        0.0587
     54 H          -1.4423   -0.4120   -3.7031 H       1  LIG1        0.2095
     55 H          -3.9519    4.3500   -2.9365 H       1  LIG1        0.2101
     56 H          -2.7696    2.5513   -4.6984 H       1  LIG1        0.2105
     57 H           0.4506   -1.7722    1.9777 H       1  LIG1        0.0692
     58 H          -0.8419   -5.8285    1.9581 H       1  LIG1        0.0660
     59 H           0.8334   -6.0338    1.4533 H       1  LIG1        0.0660
     60 H          -0.4698   -5.6463    0.2462 H       1  LIG1        0.0660
     61 H           0.7547   -5.8790   -2.2919 H       1  LIG1        0.0660
     62 H           2.5233   -5.9473   -2.4106 H       1  LIG1        0.0660
     63 H           1.6477   -4.4019   -2.6501 H       1  LIG1        0.0660
@<TRIPOS>BOND
     1     1     2    1
     2     2     3    1
     3     3     4   ar
     4     4     5   ar
     5     5     6    1
     6     7     9    1
     7     9    10    1
     8    10    11    1
     9    10    12    1
    10    12    14    1
    11    14    15    1
    12    14    16    1
    13     7    16    1
    14    14    19    1
    15    10    21    1
    16    21    22    1
    17    23    25    1
    18    25    26    1
    19    26    27    1
    20    28    29    1
    21    27    30    1
    22    23    30    1
    23     5    34   ar
    24    34    35   ar
    25    35    36    1
    26    36    37    1
    27    35    38   ar
    28     3    38   ar
    29    38    39    1
    30    39    40    1
    31    12    20    1
    32    12    13    1
    33     7     8    1
    34     7     6    1
    35    16    18    1
    36    16    17    1
    37    23    24    1
    38    23    22    1
    39    27    33    1
    40    27    28    1
    41    30    32    1
    42    30    31    1
    43     1    41    1
    44     1    42    1
    45     1    43    1
    46     4    44    1
    47    18    45    1
    48    19    46    1
    49    20    47    1
    50    21    48    1
    51    21    49    1
    52    26    50    1
    53    26    51    1
    54    28    52    1
    55    28    53    1
    56    29    54    1
    57    32    55    1
    58    33    56    1
    59    34    57    1
    60    37    58    1
    61    37    59    1
    62    37    60    1
    63    40    61    1
    64    40    62    1
    65    40    63    1
