@<TRIPOS>MOLECULE
NuBBE_1219
 55 57 0 0 0
SMALL
GASTEIGER

@<TRIPOS>ATOM
      1 O          -0.2730    2.0405    3.1396 O.2     1  LIG1       -0.2830
      2 C          -0.3322    1.3592    2.0749 C.ar    1  LIG1        0.2383
      3 C          -0.0793   -0.0682    2.0358 C.ar    1  LIG1        0.2107
      4 O          -0.7832   -1.0138    2.7608 O.3     1  LIG1       -0.4883
      5 C          -1.6898   -0.5718    3.7836 C.3     1  LIG1        0.0791
      6 C           0.8587   -0.3028    1.0780 C.ar    1  LIG1        0.1811
      7 C           1.2917   -1.6300    0.6617 C.ar    1  LIG1        0.0247
      8 C           0.6245   -2.2435   -0.3849 C.ar    1  LIG1       -0.0473
      9 C           1.0098   -3.5133   -0.7889 C.ar    1  LIG1       -0.0156
     10 C           2.0903   -4.2085   -0.1969 C.ar    1  LIG1        0.1615
     11 O           2.3855   -5.4895   -0.6084 O.3     1  LIG1       -0.4915
     12 C           1.2536   -6.2052   -1.1400 C.3     1  LIG1        0.0790
     13 C           2.8219   -3.5577    0.8117 C.ar    1  LIG1        0.1622
     14 O           3.8907   -3.9420    1.5683 O.3     1  LIG1       -0.4914
     15 C           4.7571   -5.0145    1.2578 C.3     1  LIG1        0.0790
     16 C           2.3838   -2.2830    1.2386 C.ar    1  LIG1       -0.0055
     17 O           1.4048    0.7345    0.2793 O.2     1  LIG1       -0.4470
     18 C          -0.5758    1.9585    0.7695 C.ar    1  LIG1        0.1167
     19 C           0.4884    1.7090   -0.0959 C.ar    1  LIG1        0.1884
     20 C           0.5327    2.3204   -1.3545 C.ar    1  LIG1        0.2088
     21 O           1.7206    2.1327   -2.0159 O.3     1  LIG1       -0.4884
     22 C           2.3364    3.2649   -2.6210 C.3     1  LIG1        0.0791
     23 C          -0.6623    2.9064   -1.8642 C.ar    1  LIG1        0.2110
     24 O          -0.6434    3.4636   -3.1275 O.3     1  LIG1       -0.4883
     25 C          -1.8466    4.0686   -3.6262 C.3     1  LIG1        0.0791
     26 C          -1.8348    2.8570   -1.0578 C.ar    1  LIG1        0.2082
     27 O          -3.0805    2.9252   -1.6611 O.3     1  LIG1       -0.4884
     28 C          -4.0996    3.7443   -1.0722 C.3     1  LIG1        0.0791
     29 C          -1.7688    2.4757    0.2868 C.ar    1  LIG1        0.1799
     30 O          -2.9672    2.5762    0.9270 O.3     1  LIG1       -0.4905
     31 C          -3.0376    2.1392    2.2445 C.3     1  LIG1        0.0790
     32 H          -2.5200    0.0218    3.4315 H       1  LIG1        0.0660
     33 H          -1.1867   -0.0235    4.5827 H       1  LIG1        0.0660
     34 H          -2.2125   -1.4395    4.1966 H       1  LIG1        0.0660
     35 H          -0.2024   -1.7573   -0.8970 H       1  LIG1        0.0626
     36 H           0.4020   -3.9262   -1.5844 H       1  LIG1        0.0655
     37 H           1.5687   -7.1883   -1.4971 H       1  LIG1        0.0660
     38 H           0.8099   -5.7241   -2.0201 H       1  LIG1        0.0660
     39 H           0.4953   -6.3395   -0.3591 H       1  LIG1        0.0660
     40 H           5.4664   -5.0790    2.0976 H       1  LIG1        0.0660
     41 H           5.3591   -4.8150    0.3665 H       1  LIG1        0.0660
     42 H           4.2408   -5.9733    1.2083 H       1  LIG1        0.0660
     43 H           2.9221   -1.7945    2.0487 H       1  LIG1        0.0662
     44 H           1.8174    4.2113   -2.4513 H       1  LIG1        0.0660
     45 H           2.4236    3.0585   -3.6910 H       1  LIG1        0.0660
     46 H           3.3617    3.3720   -2.2355 H       1  LIG1        0.0660
     47 H          -2.4960    4.5004   -2.8687 H       1  LIG1        0.0660
     48 H          -2.3960    3.3487   -4.2452 H       1  LIG1        0.0660
     49 H          -1.6086    4.9531   -4.2201 H       1  LIG1        0.0660
     50 H          -4.2742    4.6181   -1.7043 H       1  LIG1        0.0660
     51 H          -3.8938    4.1502   -0.0796 H       1  LIG1        0.0660
     52 H          -5.0200    3.1543   -1.0512 H       1  LIG1        0.0660
     53 H          -4.0532    2.1896    2.6304 H       1  LIG1        0.0660
     54 H          -2.3984    2.7494    2.8818 H       1  LIG1        0.0660
     55 H          -2.7814    1.1004    2.1582 H       1  LIG1        0.0660
@<TRIPOS>BOND
     1     1     2    2
     2     2     3   ar
     3     3     4    1
     4     4     5    1
     5     3     6   ar
     6     6     7    1
     7     7     8   ar
     8     8     9   ar
     9     9    10   ar
    10    10    11    1
    11    11    12    1
    12    10    13   ar
    13    13    14    1
    14    14    15    1
    15    13    16   ar
    16     7    16   ar
    17     6    17   ar
    18     2    18   ar
    19    18    19   ar
    20    17    19   ar
    21    19    20   ar
    22    20    21    1
    23    21    22    1
    24    20    23   ar
    25    23    24    1
    26    24    25    1
    27    23    26   ar
    28    26    27    1
    29    27    28    1
    30    26    29   ar
    31    18    29   ar
    32    29    30    1
    33    30    31    1
    34     5    32    1
    35     5    33    1
    36     5    34    1
    37     8    35    1
    38     9    36    1
    39    12    37    1
    40    12    38    1
    41    12    39    1
    42    15    40    1
    43    15    41    1
    44    15    42    1
    45    16    43    1
    46    22    44    1
    47    22    45    1
    48    22    46    1
    49    25    47    1
    50    25    48    1
    51    25    49    1
    52    28    50    1
    53    28    51    1
    54    28    52    1
    55    31    53    1
    56    31    54    1
    57    31    55    1
