REMARK  Name = NuBBE_1368
REMARK  6 active torsions:
REMARK  status: ('A' for Active; 'I' for Inactive)
REMARK    1  A    between atoms: C_2  and  O_3
REMARK    2  A    between atoms: C_2  and  C_11
REMARK    3  A    between atoms: O_3  and  C_4
REMARK    4  A    between atoms: C_4  and  C_5
REMARK    5  A    between atoms: C_11  and  C_12
REMARK    6  A    between atoms: C_12  and  O_13
REMARK                            x       y       z     vdW  Elec       q    Type
REMARK                         _______ _______ _______ _____ _____    ______ ____
ROOT
ATOM      1  C   LIG A   1       0.179  -0.515   2.158  0.00  0.00    +0.164 C 
ATOM      2  C   LIG A   1       0.931   0.777   2.398  0.00  0.00    -0.000 A 
ATOM      3  C   LIG A   1       0.434   1.688   3.358  0.00  0.00    +0.007 A 
ATOM      4  C   LIG A   1       1.035   2.924   3.556  0.00  0.00    +0.000 A 
ATOM      5  C   LIG A   1       2.138   3.270   2.793  0.00  0.00    +0.001 A 
ATOM      6  C   LIG A   1       2.656   2.366   1.860  0.00  0.00    +0.009 A 
ATOM      7  C   LIG A   1       2.083   1.094   1.647  0.00  0.00    -0.011 A 
ATOM      8  C   LIG A   1       2.656   0.105   0.696  0.00  0.00    -0.007 A 
ATOM      9  C   LIG A   1       3.757   0.391  -0.138  0.00  0.00    +0.009 A 
ATOM     10  C   LIG A   1       4.299  -0.563  -1.009  0.00  0.00    +0.001 A 
ATOM     11  C   LIG A   1       3.756  -1.839  -1.077  0.00  0.00    +0.001 A 
ATOM     12  C   LIG A   1       2.670  -2.158  -0.272  0.00  0.00    +0.012 A 
ATOM     13  C   LIG A   1       2.128  -1.197   0.600  0.00  0.00    +0.028 A 
ATOM     14  C   LIG A   1       0.968  -1.595   1.427  0.00  0.00    +0.200 C 
ATOM     15  O   LIG A   1       0.647  -2.783   1.529  0.00  0.00    -0.289 OA
ENDROOT
BRANCH   1  16
ATOM     16  O   LIG A   1      -0.088  -1.101   3.461  0.00  0.00    -0.375 OA
ATOM     17  H   LIG A   1      -0.242  -2.054   3.297  0.00  0.00    +0.211 HD
ENDBRANCH   1  16
BRANCH   1  18
ATOM     18  C   LIG A   1      -1.194  -0.308   1.508  0.00  0.00    +0.168 C 
BRANCH  18  20
ATOM     19  O   LIG A   1      -0.232   0.206  -0.658  0.00  0.00    -0.251 OA
ATOM     20  C   LIG A   1      -1.143   0.325   0.141  0.00  0.00    +0.311 C 
BRANCH  20  21
ATOM     21  O   LIG A   1      -2.320   0.978  -0.091  0.00  0.00    -0.460 OA
BRANCH  21  22
ATOM     22  C   LIG A   1      -2.512   1.426  -1.440  0.00  0.00    +0.267 C 
BRANCH  22  23
ATOM     23  C   LIG A   1      -2.919   0.258  -2.302  0.00  0.00    -0.010 A 
ATOM     24  C   LIG A   1      -4.088  -0.461  -2.014  0.00  0.00    +0.007 A 
ATOM     25  C   LIG A   1      -4.409  -1.606  -2.743  0.00  0.00    +0.000 A 
ATOM     26  C   LIG A   1      -3.572  -2.036  -3.771  0.00  0.00    +0.000 A 
ATOM     27  C   LIG A   1      -2.417  -1.318  -4.077  0.00  0.00    +0.000 A 
ATOM     28  C   LIG A   1      -2.092  -0.175  -3.346  0.00  0.00    +0.007 A 
ENDBRANCH  22  23
ENDBRANCH  21  22
ENDBRANCH  20  21
ENDBRANCH  18  20
ENDBRANCH   1  18
TORSDOF 6
