REMARK  Name = NuBBE_2076
REMARK  6 active torsions:
REMARK  status: ('A' for Active; 'I' for Inactive)
REMARK    1  A    between atoms: C_3  and  C_4
REMARK    2  A    between atoms: C_5  and  O_6
REMARK    3  A    between atoms: O_6  and  C_7
REMARK    4  A    between atoms: C_17  and  O_19
REMARK    5  A    between atoms: O_19  and  C_20
REMARK    6  A    between atoms: C_20  and  C_21
REMARK                            x       y       z     vdW  Elec       q    Type
REMARK                         _______ _______ _______ _____ _____    ______ ____
ROOT
ATOM      1  O   LIG A   1      -4.535  -0.924   0.673  0.00  0.00    -0.250 OA
ATOM      2  C   LIG A   1      -3.329  -0.808   0.695  0.00  0.00    +0.319 C 
ATOM      3  C   LIG A   1      -2.492   0.433   0.882  0.00  0.00    +0.125 C 
ATOM      4  C   LIG A   1      -2.188   0.353   2.415  0.00  0.00    +0.029 C 
ATOM      5  C   LIG A   1      -2.737   1.899   0.394  0.00  0.00    +0.185 C 
ATOM      6  C   LIG A   1      -2.399   2.187  -1.124  0.00  0.00    +0.067 C 
ATOM      7  C   LIG A   1      -0.889   1.875  -1.436  0.00  0.00    +0.015 C 
ATOM      8  C   LIG A   1      -0.336   1.064  -0.229  0.00  0.00    +0.005 C 
ATOM      9  C   LIG A   1      -0.405   2.141   0.912  0.00  0.00    +0.170 C 
ATOM     10  O   LIG A   1      -1.726   2.699   1.073  0.00  0.00    -0.347 OA
ATOM     11  C   LIG A   1       1.097   0.469  -0.267  0.00  0.00    +0.005 C 
ATOM     12  C   LIG A   1       2.001   1.114  -1.324  0.00  0.00    +0.005 C 
ATOM     13  C   LIG A   1       3.438   0.613  -1.205  0.00  0.00    +0.004 C 
ATOM     14  C   LIG A   1       3.522  -0.910  -1.252  0.00  0.00    +0.045 C 
ATOM     15  C   LIG A   1       2.619  -1.573  -0.200  0.00  0.00    +0.180 C 
ATOM     16  C   LIG A   1       1.162  -1.086  -0.367  0.00  0.00    +0.037 C 
ATOM     17  C   LIG A   1       0.169  -1.766   0.626  0.00  0.00    +0.052 C 
ATOM     18  C   LIG A   1      -1.216  -1.475   0.086  0.00  0.00    +0.182 C 
ATOM     19  O   LIG A   1      -2.421  -1.889   0.735  0.00  0.00    -0.461 OA
ATOM     20  C   LIG A   1      -1.420  -0.011  -0.088  0.00  0.00    +0.060 C 
ENDROOT
BRANCH   5  21
ATOM     21  O   LIG A   1      -4.045   2.302   0.772  0.00  0.00    -0.351 OA
ATOM     22  C   LIG A   1      -4.391   3.638   0.434  0.00  0.00    +0.197 C 
ENDBRANCH   5  21
BRANCH  15  23
ATOM     23  O   LIG A   1       2.640  -3.006  -0.355  0.00  0.00    -0.461 OA
BRANCH  23  24
ATOM     24  C   LIG A   1       3.710  -3.644   0.200  0.00  0.00    +0.304 C 
ATOM     25  C   LIG A   1       3.479  -5.124   0.229  0.00  0.00    +0.136 C 
ATOM     26  O   LIG A   1       4.689  -3.095   0.686  0.00  0.00    -0.251 OA
ENDBRANCH  23  24
ENDBRANCH  15  23
TORSDOF 3
