@<TRIPOS>MOLECULE
NuBBE_2077
 52 57 0 0 0
SMALL
GASTEIGER

@<TRIPOS>ATOM
      1 O          -0.0815   -4.1494   -0.4016 O.2     1  LIG1       -0.2500
      2 C          -0.2172   -2.9430   -0.5151 C.2     1  LIG1        0.3201
      3 C           0.8725   -1.8841   -0.6450 C.3     1  LIG1        0.1365
      4 C           1.1907   -1.9880   -2.1722 C.3     1  LIG1       -0.0428
      5 C           2.1739   -1.6521    0.1611 C.3     1  LIG1        0.2315
      6 O           3.0832   -2.7505    0.0441 O.3     1  LIG1       -0.4314
      7 C           2.8292   -3.8456    0.8094 C.2     1  LIG1        0.3063
      8 C           3.7408   -4.9623    0.3984 C.3     1  LIG1        0.0333
      9 O           1.9917   -3.9361    1.6932 O.2     1  LIG1       -0.2511
     10 C           2.8888   -0.4166   -0.4972 C.3     1  LIG1        0.0148
     11 C           1.8787    0.7557   -0.6472 C.3     1  LIG1       -0.0386
     12 C           0.6662    0.5025    0.2819 C.3     1  LIG1        0.0054
     13 C           1.3408    0.1002    1.6349 C.3     1  LIG1        0.0583
     14 O           1.9559   -1.2096    1.5205 O.3     1  LIG1       -0.3377
     15 C          -0.3446    1.7013    0.3223 C.3     1  LIG1       -0.0228
     16 H           0.1879    2.5825   -0.0673 H       1  LIG1        0.0314
     17 C          -0.7984    2.1029    1.7537 C.3     1  LIG1       -0.0448
     18 C          -1.6665    3.3745    1.7742 C.3     1  LIG1       -0.0208
     19 C          -2.6462    3.3494    0.6776 C.2     1  LIG1        0.0361
     20 C          -2.6614    2.5366   -0.3728 C.2     1  LIG1        0.1084
     21 O          -3.6868    2.6754   -1.2986 O.2     1  LIG1       -0.4877
     22 C          -4.5367    3.7206   -0.7745 C.3     1  LIG1        0.1512
     23 C          -3.8358    4.1570    0.4796 C.2     1  LIG1        0.1994
     24 O          -4.1900    5.0464    1.2365 O.2     1  LIG1       -0.2886
     25 C          -1.6097    1.4963   -0.6195 C.3     1  LIG1        0.0238
     26 H          -1.2533    1.6357   -1.6506 H       1  LIG1        0.0383
     27 C          -2.2468    0.0855   -0.5200 C.3     1  LIG1       -0.0054
     28 C          -1.2095   -0.9051   -0.9938 C.3     1  LIG1        0.1084
     29 O          -1.4599   -2.3127   -0.7966 O.3     1  LIG1       -0.4605
     30 H          -1.0150   -0.7244   -2.0569 H       1  LIG1        0.0737
     31 C          -0.0313   -0.7880   -0.1135 C.3     1  LIG1        0.0258
     32 H          -0.4331   -1.1372    0.8639 H       1  LIG1        0.0355
     33 H           1.9917   -2.7181   -2.3401 H       1  LIG1        0.0242
     34 H           1.4952   -1.0434   -2.6249 H       1  LIG1        0.0242
     35 H           0.3448   -2.3473   -2.7723 H       1  LIG1        0.0242
     36 H           4.7673   -4.7346    0.6939 H       1  LIG1        0.0342
     37 H           3.6769   -5.1114   -0.6834 H       1  LIG1        0.0342
     38 H           3.4228   -5.8885    0.8855 H       1  LIG1        0.0342
     39 H           3.3611   -0.6578   -1.4558 H       1  LIG1        0.0329
     40 H           3.7150   -0.0950    0.1528 H       1  LIG1        0.0329
     41 H           1.5492    0.8667   -1.6853 H       1  LIG1        0.0274
     42 H           2.3846    1.6934   -0.3848 H       1  LIG1        0.0274
     43 H           0.6225    0.0176    2.4567 H       1  LIG1        0.0567
     44 H           2.1072    0.8204    1.9444 H       1  LIG1        0.0567
     45 H           0.0718    2.2904    2.3931 H       1  LIG1        0.0271
     46 H          -1.3627    1.2767    2.2045 H       1  LIG1        0.0271
     47 H          -1.0255    4.2569    1.6608 H       1  LIG1        0.0315
     48 H          -2.1679    3.4567    2.7444 H       1  LIG1        0.0315
     49 H          -5.5205    3.3022   -0.5483 H       1  LIG1        0.0781
     50 H          -4.5917    4.5348   -1.5006 H       1  LIG1        0.0781
     51 H          -3.1397    0.0001   -1.1514 H       1  LIG1        0.0308
     52 H          -2.5786   -0.1376    0.5019 H       1  LIG1        0.0308
@<TRIPOS>BOND
     1     1     2    2
     2     2     3    1
     3     3     4    1
     4     3     5    1
     5     5     6    1
     6     6     7    1
     7     7     8    1
     8     7     9    2
     9     5    10    1
    10    10    11    1
    11    11    12    1
    12    12    13    1
    13    13    14    1
    14     5    14    1
    15    12    15    1
    16    15    16    1
    17    15    17    1
    18    17    18    1
    19    18    19    1
    20    19    20    2
    21    20    21    1
    22    21    22    1
    23    22    23    1
    24    19    23    1
    25    23    24    2
    26    20    25    1
    27    25    26    1
    28    15    25    1
    29    25    27    1
    30    27    28    1
    31    28    29    1
    32     2    29    1
    33    28    30    1
    34    28    31    1
    35    12    31    1
    36     3    31    1
    37    31    32    1
    38     4    33    1
    39     4    34    1
    40     4    35    1
    41     8    36    1
    42     8    37    1
    43     8    38    1
    44    10    39    1
    45    10    40    1
    46    11    41    1
    47    11    42    1
    48    13    43    1
    49    13    44    1
    50    17    45    1
    51    17    46    1
    52    18    47    1
    53    18    48    1
    54    22    49    1
    55    22    50    1
    56    27    51    1
    57    27    52    1
