REMARK  Name = NuBBE_1069
REMARK  2 active torsions:
REMARK  status: ('A' for Active; 'I' for Inactive)
REMARK    1  A    between atoms: C_5  and  O_6
REMARK    2  A    between atoms: O_6  and  C_7
REMARK                            x       y       z     vdW  Elec       q    Type
REMARK                         _______ _______ _______ _____ _____    ______ ____
ROOT
ATOM      1  O   LIG A   1      -4.514   1.058   0.462  0.00  0.00    -0.245 OA
ATOM      2  C   LIG A   1      -3.303   1.176   0.314  0.00  0.00    +0.337 A 
ATOM      3  O   LIG A   1      -2.443   0.091   0.272  0.00  0.00    -0.418 OA
ATOM      4  C   LIG A   1      -1.041   0.242   0.100  0.00  0.00    +0.184 A 
ATOM      5  C   LIG A   1      -0.267  -0.932   0.074  0.00  0.00    +0.206 A 
ATOM      6  C   LIG A   1       1.111  -0.732  -0.103  0.00  0.00    +0.180 A 
ATOM      7  C   LIG A   1       1.700   0.526  -0.241  0.00  0.00    +0.025 A 
ATOM      8  C   LIG A   1       3.094   0.296  -0.396  0.00  0.00    +0.050 A 
ATOM      9  C   LIG A   1       3.271  -1.065  -0.346  0.00  0.00    +0.196 A 
ATOM     10  O   LIG A   1       2.082  -1.692  -0.170  0.00  0.00    -0.459 OA
ATOM     11  C   LIG A   1       0.886   1.675  -0.205  0.00  0.00    +0.023 A 
ATOM     12  C   LIG A   1      -0.496   1.522  -0.034  0.00  0.00    +0.022 A 
ATOM     13  C   LIG A   1      -1.377   2.679   0.008  0.00  0.00    +0.019 A 
ATOM     14  C   LIG A   1      -2.692   2.508   0.172  0.00  0.00    +0.092 A 
ENDROOT
BRANCH   5  15
ATOM     15  O   LIG A   1      -0.946  -2.129   0.217  0.00  0.00    -0.488 OA
ATOM     16  C   LIG A   1      -0.154  -3.308   0.245  0.00  0.00    +0.277 C 
ENDBRANCH   5  15
TORSDOF 1
