@<TRIPOS>MOLECULE
NuBBE_1782
 33 34 0 0 0
SMALL
GASTEIGER

@<TRIPOS>ATOM
      1 C          -0.9022   -0.2775    0.4497 C.3     1  LIG1       -0.0113
      2 C          -1.7396   -0.2052   -0.8397 C.3     1  LIG1       -0.0243
      3 C          -1.7002    1.1424   -1.5207 C.ar    1  LIG1       -0.0472
      4 C          -1.1772    1.2622   -2.8159 C.ar    1  LIG1       -0.0586
      5 C          -1.0750    2.5137   -3.4265 C.ar    1  LIG1       -0.0615
      6 C          -1.5142    3.6547   -2.7585 C.ar    1  LIG1       -0.0617
      7 C          -2.0692    3.5435   -1.4855 C.ar    1  LIG1       -0.0615
      8 C          -2.1628    2.2941   -0.8693 C.ar    1  LIG1       -0.0586
      9 C           0.5949    0.0074    0.2212 C.3     1  LIG1        0.1105
     10 H           0.6982    1.0222   -0.1821 H       1  LIG1        0.0738
     11 C           1.4395   -0.0553    1.4917 C.3     1  LIG1        0.0423
     12 C           1.7049   -1.4739    1.8938 C.2     1  LIG1        0.1076
     13 C           1.7147   -2.4394    0.9600 C.2     1  LIG1        0.0600
     14 C           1.5110   -2.1352   -0.4635 C.2     1  LIG1        0.3354
     15 O           1.7061   -3.0018   -1.3123 O.2     1  LIG1       -0.2455
     16 O           1.1270   -0.8824   -0.7896 O.3     1  LIG1       -0.4578
     17 O           1.9169   -1.6324    3.2439 O.2     1  LIG1       -0.4990
     18 C           2.2136   -2.9395    3.7242 C.3     1  LIG1        0.0783
     19 H          -1.0359   -1.2833    0.8670 H       1  LIG1        0.0304
     20 H          -1.2963    0.4244    1.1950 H       1  LIG1        0.0304
     21 H          -2.7858   -0.4419   -0.6082 H       1  LIG1        0.0314
     22 H          -1.4036   -0.9879   -1.5316 H       1  LIG1        0.0314
     23 H          -0.8316    0.3810   -3.3538 H       1  LIG1        0.0620
     24 H          -0.6464    2.5979   -4.4219 H       1  LIG1        0.0618
     25 H          -1.4271    4.6292   -3.2316 H       1  LIG1        0.0618
     26 H          -2.4253    4.4315   -0.9699 H       1  LIG1        0.0618
     27 H          -2.5928    2.2284    0.1270 H       1  LIG1        0.0620
     28 H           0.9498    0.4979    2.3018 H       1  LIG1        0.0379
     29 H           2.4110    0.4229    1.3111 H       1  LIG1        0.0379
     30 H           1.9222   -3.4802    1.1728 H       1  LIG1        0.0722
     31 H           2.2841   -2.8900    4.8148 H       1  LIG1        0.0660
     32 H           3.1771   -3.2846    3.3352 H       1  LIG1        0.0660
     33 H           1.4141   -3.6431    3.4714 H       1  LIG1        0.0660
@<TRIPOS>BOND
     1     1     2    1
     2     2     3    1
     3     3     4   ar
     4     4     5   ar
     5     5     6   ar
     6     6     7   ar
     7     7     8   ar
     8     3     8   ar
     9     1     9    1
    10     9    10    1
    11     9    11    1
    12    11    12    1
    13    12    13    2
    14    13    14    1
    15    14    15    2
    16    14    16    1
    17     9    16    1
    18    12    17    1
    19    17    18    1
    20     1    19    1
    21     1    20    1
    22     2    21    1
    23     2    22    1
    24     4    23    1
    25     5    24    1
    26     6    25    1
    27     7    26    1
    28     8    27    1
    29    11    28    1
    30    11    29    1
    31    13    30    1
    32    18    31    1
    33    18    32    1
    34    18    33    1
