@<TRIPOS>MOLECULE
NuBBE_1294
 93 99 0 0 0
SMALL
GASTEIGER

@<TRIPOS>ATOM
      1 O          -5.2656   -1.8873    1.9167 O.2     1  LIG1       -0.2512
      2 C          -5.0827   -0.6819    1.7404 C.2     1  LIG1        0.3042
      3 O          -4.4845   -0.1351    0.6644 O.3     1  LIG1       -0.4608
      4 C          -3.5068   -0.9004   -0.0882 C.3     1  LIG1        0.1124
      5 H          -3.2578   -1.8012    0.4814 H       1  LIG1        0.0741
      6 C          -2.2287    0.0066   -0.1985 C.3     1  LIG1        0.0148
      7 C          -1.5159   -0.1880   -1.5343 C.3     1  LIG1        0.0087
      8 C          -1.9298   -1.2475   -2.5424 C.3     1  LIG1        0.0343
      9 C          -1.6155   -2.7414   -2.3012 C.3     1  LIG1       -0.0537
     10 C          -3.4383   -1.0572   -2.7455 C.3     1  LIG1        0.1142
     11 H          -3.6734   -0.0278   -3.0467 H       1  LIG1        0.0741
     12 C          -4.1808   -1.3541   -1.4184 C.3     1  LIG1        0.0227
     13 O          -3.8981   -1.9942   -3.7343 O.3     1  LIG1       -0.4608
     14 C          -3.8682   -1.5768   -5.0258 C.2     1  LIG1        0.3042
     15 C          -3.6336   -2.7512   -5.9261 C.3     1  LIG1        0.0332
     16 O          -3.9385   -0.4145   -5.4005 O.2     1  LIG1       -0.2512
     17 C          -0.9548   -0.8122   -3.6478 C.3     1  LIG1        0.0573
     18 O           0.2918   -0.5633   -2.9360 O.3     1  LIG1       -0.3719
     19 C          -0.0212   -0.1884   -1.5649 C.3     1  LIG1        0.1005
     20 H           0.3354    0.8456   -1.4515 H       1  LIG1        0.0636
     21 C           0.7038   -1.0748   -0.5228 C.3     1  LIG1        0.1389
     22 H           0.8522   -2.0906   -0.8983 H       1  LIG1        0.0769
     23 C          -0.0402   -1.1795    0.8926 C.3     1  LIG1        0.0323
     24 C          -1.1633   -0.0672    0.9846 C.3     1  LIG1       -0.0193
     25 C          -1.7797    0.0264    2.3958 C.3     1  LIG1       -0.0479
     26 C          -0.7189    0.4491    3.4154 C.3     1  LIG1       -0.0430
     27 C           0.4547   -0.5372    3.4621 C.3     1  LIG1       -0.0033
     28 C           0.9004   -1.0857    2.1049 C.2     1  LIG1       -0.0572
     29 C           2.1961   -1.4475    2.1848 C.2     1  LIG1       -0.0830
     30 C           2.8303   -1.0180    3.4758 C.3     1  LIG1       -0.0267
     31 C           1.8180    0.0386    3.9818 C.3     1  LIG1       -0.0004
     32 H           1.8297    0.0763    5.0794 H       1  LIG1        0.0361
     33 C           2.2328    1.4144    3.4749 C.ar    1  LIG1       -0.0055
     34 C           1.8927    2.0537    2.2962 C.ar    1  LIG1        0.0951
     35 O           2.5078    3.2531    2.1817 O.2     1  LIG1       -0.4708
     36 C           3.2897    3.3937    3.2772 C.ar    1  LIG1        0.0920
     37 C           3.1629    2.2993    4.1005 C.ar    1  LIG1       -0.0204
     38 C           0.0183   -1.7068    4.3971 C.3     1  LIG1       -0.0553
     39 C          -0.6493   -2.5936    1.0236 C.3     1  LIG1       -0.0521
     40 O           2.0118   -0.4381   -0.4455 O.3     1  LIG1       -0.4548
     41 C           2.8685   -0.8043   -1.4367 C.2     1  LIG1        0.3323
     42 C           3.7809    0.2941   -1.7939 C.2     1  LIG1        0.0231
     43 C           4.1499    1.2867   -0.9716 C.2     1  LIG1       -0.0478
     44 C           4.9966    2.4042   -1.4138 C.ar    1  LIG1       -0.0248
     45 C           5.8643    3.0143   -0.5006 C.ar    1  LIG1       -0.0546
     46 C           6.6513    4.1028   -0.8887 C.ar    1  LIG1       -0.0612
     47 C           6.5683    4.5998   -2.1885 C.ar    1  LIG1       -0.0617
     48 C           5.6967    4.0129   -3.1012 C.ar    1  LIG1       -0.0612
     49 C           4.9118    2.9259   -2.7139 C.ar    1  LIG1       -0.0546
     50 O           2.8320   -1.8421   -2.0848 O.2     1  LIG1       -0.2456
     51 C          -2.7208    1.5147   -0.2129 C.3     1  LIG1       -0.0555
     52 C          -5.4127    0.3942    2.7289 C.3     1  LIG1        0.0332
     53 H          -1.7501    0.7450   -2.0803 H       1  LIG1        0.0341
     54 H          -2.2103   -3.1842   -1.5040 H       1  LIG1        0.0237
     55 H          -0.5619   -2.9388   -2.1017 H       1  LIG1        0.0237
     56 H          -1.8424   -3.3257   -3.2027 H       1  LIG1        0.0237
     57 H          -4.3279   -2.4424   -1.3488 H       1  LIG1        0.0337
     58 H          -5.2045   -0.9672   -1.4959 H       1  LIG1        0.0337
     59 H          -3.2293   -3.5881   -5.3466 H       1  LIG1        0.0342
     60 H          -2.8720   -2.4800   -6.6632 H       1  LIG1        0.0342
     61 H          -4.5589   -3.0578   -6.4136 H       1  LIG1        0.0342
     62 H          -1.2484    0.1241   -4.1377 H       1  LIG1        0.0567
     63 H          -0.7692   -1.5609   -4.4229 H       1  LIG1        0.0567
     64 H          -0.5993    0.8706    0.8774 H       1  LIG1        0.0317
     65 H          -2.2577   -0.9133    2.6874 H       1  LIG1        0.0269
     66 H          -2.5532    0.7925    2.4313 H       1  LIG1        0.0269
     67 H          -1.1830    0.5400    4.4063 H       1  LIG1        0.0274
     68 H          -0.4083    1.4653    3.1651 H       1  LIG1        0.0274
     69 H           2.7682   -1.9297    1.4042 H       1  LIG1        0.0572
     70 H           3.8293   -0.6030    3.3100 H       1  LIG1        0.0314
     71 H           2.9166   -1.8691    4.1598 H       1  LIG1        0.0314
     72 H           1.2546    1.7973    1.4653 H       1  LIG1        0.1032
     73 H           3.8722    4.3029    3.3150 H       1  LIG1        0.1029
     74 H           3.6956    2.1444    5.0278 H       1  LIG1        0.0652
     75 H          -0.9618   -2.1099    4.1240 H       1  LIG1        0.0238
     76 H          -0.0589   -1.3597    5.4348 H       1  LIG1        0.0238
     77 H           0.7177   -2.5493    4.3873 H       1  LIG1        0.0238
     78 H          -1.3885   -2.7911    0.2597 H       1  LIG1        0.0239
     79 H          -1.1494   -2.7584    1.9820 H       1  LIG1        0.0239
     80 H           0.1206   -3.3699    0.9296 H       1  LIG1        0.0239
     81 H           4.1234    0.2402   -2.8218 H       1  LIG1        0.0689
     82 H           3.8306    1.3014    0.0674 H       1  LIG1        0.0626
     83 H           5.9381    2.6463    0.5203 H       1  LIG1        0.0623
     84 H           7.3262    4.5660   -0.1740 H       1  LIG1        0.0618
     85 H           7.1760    5.4491   -2.4885 H       1  LIG1        0.0618
     86 H           5.6182    4.4030   -4.1125 H       1  LIG1        0.0618
     87 H           4.2227    2.5025   -3.4408 H       1  LIG1        0.0623
     88 H          -3.4688    1.6737   -0.9997 H       1  LIG1        0.0236
     89 H          -1.8892    2.2037   -0.4023 H       1  LIG1        0.0236
     90 H          -3.1736    1.8323    0.7299 H       1  LIG1        0.0236
     91 H          -5.3225   -0.0063    3.7422 H       1  LIG1        0.0342
     92 H          -6.4094    0.7994    2.5553 H       1  LIG1        0.0342
     93 H          -4.6811    1.2068    2.6499 H       1  LIG1        0.0342
@<TRIPOS>BOND
     1     1     2    2
     2     2     3    1
     3     4     6    1
     4     6     7    1
     5     7     8    1
     6     8    10    1
     7    10    12    1
     8     4    12    1
     9    13    14    1
    10    14    15    1
    11    14    16    2
    12     8    17    1
    13    17    18    1
    14     7    19    1
    15    18    19    1
    16    19    21    1
    17    21    23    1
    18    23    24    1
    19     6    24    1
    20    24    25    1
    21    25    26    1
    22    26    27    1
    23    27    28    1
    24    23    28    1
    25    28    29    2
    26    29    30    1
    27    30    31    1
    28    27    31    1
    29    33    34   ar
    30    34    35   ar
    31    35    36   ar
    32    36    37   ar
    33    33    37   ar
    34    40    41    1
    35    41    42    1
    36    42    43    2
    37    43    44    1
    38    44    45   ar
    39    45    46   ar
    40    46    47   ar
    41    47    48   ar
    42    48    49   ar
    43    44    49   ar
    44    41    50    2
    45     2    52    1
    46     3     4    1
    47     4     5    1
    48     6    51    1
    49     8     9    1
    50    10    11    1
    51    10    13    1
    52    19    20    1
    53    23    39    1
    54    27    38    1
    55    31    33    1
    56    31    32    1
    57    21    40    1
    58    21    22    1
    59     7    53    1
    60     9    54    1
    61     9    55    1
    62     9    56    1
    63    12    57    1
    64    12    58    1
    65    15    59    1
    66    15    60    1
    67    15    61    1
    68    17    62    1
    69    17    63    1
    70    24    64    1
    71    25    65    1
    72    25    66    1
    73    26    67    1
    74    26    68    1
    75    29    69    1
    76    30    70    1
    77    30    71    1
    78    34    72    1
    79    36    73    1
    80    37    74    1
    81    38    75    1
    82    38    76    1
    83    38    77    1
    84    39    78    1
    85    39    79    1
    86    39    80    1
    87    42    81    1
    88    43    82    1
    89    45    83    1
    90    46    84    1
    91    47    85    1
    92    48    86    1
    93    49    87    1
    94    51    88    1
    95    51    89    1
    96    51    90    1
    97    52    91    1
    98    52    92    1
    99    52    93    1
