@<TRIPOS>MOLECULE
NuBBE_2459
 68 70 0 0 0
SMALL
GASTEIGER

@<TRIPOS>ATOM
      1 C          -2.1486   -3.8364   -4.2701 C.3     1  LIG1        0.0790
      2 O          -1.3844   -2.6901   -4.6274 O.3     1  LIG1       -0.4914
      3 C          -0.7368   -2.1019   -3.5743 C.ar    1  LIG1        0.1625
      4 C          -0.1330   -2.7480   -2.4868 C.ar    1  LIG1        0.1733
      5 O          -0.0190   -4.1597   -2.5219 O.3     1  LIG1       -0.4223
      6 C           0.3868   -4.9631   -1.4456 C.2     1  LIG1        0.3093
      7 C           0.6718   -6.3400   -1.9510 C.3     1  LIG1        0.0336
      8 O           0.4790   -4.6480   -0.2825 O.2     1  LIG1       -0.2507
      9 C           0.4479   -2.0016   -1.4621 C.ar    1  LIG1       -0.0115
     10 C           0.3928   -0.5987   -1.4573 C.ar    1  LIG1       -0.0327
     11 C           0.9783    0.1729   -0.2725 C.3     1  LIG1        0.0160
     12 H           2.0379   -0.1310   -0.3061 H       1  LIG1        0.0401
     13 C           0.5589   -0.2688    1.1448 C.ar    1  LIG1       -0.0359
     14 C           1.4482   -0.0514    2.2106 C.ar    1  LIG1       -0.0543
     15 C           1.1699   -0.5020    3.5098 C.ar    1  LIG1       -0.0160
     16 C          -0.0133   -1.1879    3.8032 C.ar    1  LIG1        0.1615
     17 O          -0.3006   -1.6162    5.0768 O.3     1  LIG1       -0.4915
     18 C           0.2814   -0.8701    6.1519 C.3     1  LIG1        0.0790
     19 C          -0.9089   -1.4363    2.7455 C.ar    1  LIG1        0.1618
     20 O          -2.1273   -2.0675    2.8098 O.3     1  LIG1       -0.4914
     21 C          -2.2353   -3.1840    3.6810 C.3     1  LIG1        0.0790
     22 C          -0.6330   -0.9406    1.4476 C.ar    1  LIG1       -0.0125
     23 C           0.9459    1.7279   -0.4522 C.3     1  LIG1        0.0103
     24 H           0.7933    2.2174    0.5185 H       1  LIG1        0.0346
     25 C           2.3473    2.1904   -0.9359 C.3     1  LIG1        0.0965
     26 O           2.3567    3.6207   -1.0979 O.3     1  LIG1       -0.4645
     27 C           3.2633    4.3225   -0.3657 C.2     1  LIG1        0.3040
     28 C           3.0017    5.7951   -0.4953 C.3     1  LIG1        0.0332
     29 O           4.1229    3.8445    0.3563 O.2     1  LIG1       -0.2512
     30 C          -0.1697    2.2468   -1.4118 C.3     1  LIG1        0.0041
     31 H           0.0202    3.3103   -1.6108 H       1  LIG1        0.0341
     32 C          -1.5909    2.1985   -0.8154 C.3     1  LIG1        0.0959
     33 O          -1.5846    3.0739    0.3249 O.3     1  LIG1       -0.4645
     34 C          -2.4566    4.1192    0.3027 C.2     1  LIG1        0.3040
     35 C          -1.9658    5.2004    1.2241 C.3     1  LIG1        0.0332
     36 O          -3.4443    4.2168   -0.4002 O.2     1  LIG1       -0.2512
     37 C          -0.1152    1.5305   -2.7529 C.3     1  LIG1       -0.0210
     38 C          -0.1355    0.0405   -2.5919 C.ar    1  LIG1       -0.0395
     39 C          -0.6703   -0.7134   -3.6469 C.ar    1  LIG1       -0.0128
     40 H          -2.9020   -4.0082   -5.0438 H       1  LIG1        0.0660
     41 H          -2.6722   -3.7010   -3.3161 H       1  LIG1        0.0660
     42 H          -1.5032   -4.7173   -4.2498 H       1  LIG1        0.0660
     43 H           1.0086   -6.3001   -3.0021 H       1  LIG1        0.0342
     44 H          -0.2105   -6.9675   -1.8682 H       1  LIG1        0.0342
     45 H           1.4992   -6.7547   -1.3702 H       1  LIG1        0.0342
     46 H           0.9529   -2.4988   -0.6400 H       1  LIG1        0.0658
     47 H           2.3924    0.4630    2.0424 H       1  LIG1        0.0622
     48 H           1.9154   -0.3136    4.2762 H       1  LIG1        0.0655
     49 H          -0.2242   -1.1523    7.0821 H       1  LIG1        0.0660
     50 H           0.1389    0.2080    6.0166 H       1  LIG1        0.0660
     51 H           1.3444   -1.1064    6.2816 H       1  LIG1        0.0660
     52 H          -2.2391   -2.8725    4.7260 H       1  LIG1        0.0660
     53 H          -1.4656   -3.9367    3.4799 H       1  LIG1        0.0660
     54 H          -3.2091   -3.6519    3.4932 H       1  LIG1        0.0660
     55 H          -1.3686   -1.1329    0.6688 H       1  LIG1        0.0658
     56 H           3.1101    1.8565   -0.2236 H       1  LIG1        0.0700
     57 H           2.5990    1.7439   -1.9044 H       1  LIG1        0.0700
     58 H           2.6861    6.0476   -1.5112 H       1  LIG1        0.0342
     59 H           3.9195    6.3497   -0.2817 H       1  LIG1        0.0342
     60 H           2.2261    6.0817    0.2193 H       1  LIG1        0.0342
     61 H          -2.3176    2.5246   -1.5710 H       1  LIG1        0.0700
     62 H          -1.8779    1.1941   -0.4928 H       1  LIG1        0.0700
     63 H          -2.6131    5.2829    2.0977 H       1  LIG1        0.0342
     64 H          -1.9441    6.1424    0.6682 H       1  LIG1        0.0342
     65 H          -0.9413    4.9927    1.5497 H       1  LIG1        0.0342
     66 H           0.7938    1.8058   -3.3017 H       1  LIG1        0.0317
     67 H          -0.9596    1.8529   -3.3751 H       1  LIG1        0.0317
     68 H          -1.0696   -0.2034   -4.5228 H       1  LIG1        0.0658
@<TRIPOS>BOND
     1     1     2    1
     2     2     3    1
     3     3     4   ar
     4     4     5    1
     5     5     6    1
     6     6     7    1
     7     6     8    2
     8     4     9   ar
     9     9    10   ar
    10    10    11    1
    11    11    12    1
    12    11    13    1
    13    13    14   ar
    14    14    15   ar
    15    15    16   ar
    16    16    17    1
    17    17    18    1
    18    16    19   ar
    19    19    20    1
    20    20    21    1
    21    19    22   ar
    22    13    22   ar
    23    11    23    1
    24    25    26    1
    25    26    27    1
    26    27    28    1
    27    27    29    2
    28    23    30    1
    29    32    33    1
    30    33    34    1
    31    34    35    1
    32    34    36    2
    33    30    37    1
    34    10    38   ar
    35    37    38    1
    36    38    39   ar
    37     3    39   ar
    38    23    25    1
    39    23    24    1
    40    30    32    1
    41    30    31    1
    42     1    40    1
    43     1    41    1
    44     1    42    1
    45     7    43    1
    46     7    44    1
    47     7    45    1
    48     9    46    1
    49    14    47    1
    50    15    48    1
    51    18    49    1
    52    18    50    1
    53    18    51    1
    54    21    52    1
    55    21    53    1
    56    21    54    1
    57    22    55    1
    58    25    56    1
    59    25    57    1
    60    28    58    1
    61    28    59    1
    62    28    60    1
    63    32    61    1
    64    32    62    1
    65    35    63    1
    66    35    64    1
    67    35    65    1
    68    37    66    1
    69    37    67    1
    70    39    68    1
