REMARK  Name = NuBBE_1032
REMARK  11 active torsions:
REMARK  status: ('A' for Active; 'I' for Inactive)
REMARK    1  A    between atoms: O_1  and  C_2
REMARK    2  A    between atoms: C_2  and  C_3
REMARK    3  A    between atoms: C_3  and  O_4
REMARK    4  A    between atoms: O_4  and  C_5
REMARK    5  A    between atoms: C_5  and  C_6
REMARK    6  A    between atoms: C_6  and  C_7
REMARK    7  A    between atoms: C_7  and  C_8
REMARK    8  A    between atoms: C_10  and  C_12
REMARK    9  A    between atoms: C_12  and  O_13
REMARK   10  A    between atoms: C_14  and  O_16
REMARK   11  A    between atoms: C_17  and  O_19
REMARK                            x       y       z     vdW  Elec       q    Type
REMARK                         _______ _______ _______ _____ _____    ______ ____
ROOT
ATOM      1  C   LIG A   1      -1.468   0.218   0.680  0.00  0.00    +0.221 C 
ATOM      2  O   LIG A   1      -0.338   1.004   1.111  0.00  0.00    -0.336 OA
ATOM      3  C   LIG A   1      -0.540   1.329   2.499  0.00  0.00    +0.178 C 
ATOM      4  C   LIG A   1      -1.258   0.122   3.070  0.00  0.00    +0.179 C 
ATOM      5  C   LIG A   1      -2.248  -0.185   1.954  0.00  0.00    +0.207 C 
ENDROOT
BRANCH   1   6
ATOM      6  O   LIG A   1      -2.279   1.079  -0.117  0.00  0.00    -0.361 OA
ATOM      7  H   LIG A   1      -1.781   1.147  -0.954  0.00  0.00    +0.213 HD
ENDBRANCH   1   6
BRANCH   4   8
ATOM      8  O   LIG A   1      -1.900   0.336   4.316  0.00  0.00    -0.386 OA
ATOM      9  H   LIG A   1      -2.525   1.082   4.225  0.00  0.00    +0.210 HD
ENDBRANCH   4   8
BRANCH   5  10
ATOM     10  O   LIG A   1      -2.658  -1.552   2.019  0.00  0.00    -0.384 OA
ATOM     11  H   LIG A   1      -2.970  -1.705   2.930  0.00  0.00    +0.210 HD
ENDBRANCH   5  10
BRANCH   1  12
ATOM     12  C   LIG A   1      -1.006  -0.985  -0.172  0.00  0.00    +0.227 C 
BRANCH  12  13
ATOM     13  O   LIG A   1      -0.291  -0.524  -1.339  0.00  0.00    -0.374 OA
BRANCH  13  14
ATOM     14  C   LIG A   1       0.204  -1.628  -2.103  0.00  0.00    +0.160 C 
BRANCH  14  15
ATOM     15  C   LIG A   1       0.974  -1.131  -3.325  0.00  0.00    +0.028 C 
BRANCH  15  16
ATOM     16  C   LIG A   1       2.207  -0.318  -2.929  0.00  0.00    -0.001 C 
ATOM     17  C   LIG A   1       2.998   0.129  -4.149  0.00  0.00    +0.004 C 
ENDBRANCH  15  16
ENDBRANCH  14  15
ENDBRANCH  13  14
ENDBRANCH  12  13
ENDBRANCH   1  12
BRANCH   3  18
ATOM     18  C   LIG A   1       0.813   1.609   3.141  0.00  0.00    +0.190 C 
BRANCH  18  19
ATOM     19  O   LIG A   1       1.431   2.712   2.474  0.00  0.00    -0.392 OA
ATOM     20  H   LIG A   1       1.363   2.516   1.521  0.00  0.00    +0.209 HD
ENDBRANCH  18  19
ENDBRANCH   3  18
TORSDOF 10
