REMARK  Name = NuBBE_197
REMARK  12 active torsions:
REMARK  status: ('A' for Active; 'I' for Inactive)
REMARK    1  A    between atoms: O_1  and  C_2
REMARK    2  A    between atoms: C_6  and  C_7
REMARK    3  A    between atoms: C_9  and  C_10
REMARK    4  A    between atoms: C_11  and  O_12
REMARK    5  A    between atoms: O_12  and  C_13
REMARK    6  A    between atoms: C_15  and  O_16
REMARK    7  A    between atoms: C_20  and  C_21
REMARK    8  A    between atoms: C_24  and  O_25
REMARK    9  A    between atoms: O_25  and  C_26
REMARK   10  A    between atoms: C_32  and  O_33
REMARK   11  A    between atoms: C_40  and  O_41
REMARK   12  A    between atoms: O_41  and  C_42
REMARK                            x       y       z     vdW  Elec       q    Type
REMARK                         _______ _______ _______ _____ _____    ______ ____
ROOT
ATOM      1  C   LIG A   1      -1.045  -1.461   0.895  0.00  0.00    +0.018 A 
ATOM      2  C   LIG A   1       0.286  -1.555   0.423  0.00  0.00    +0.024 A 
ATOM      3  C   LIG A   1       1.296  -2.262   1.115  0.00  0.00    +0.031 A 
ATOM      4  C   LIG A   1       0.919  -2.866   2.330  0.00  0.00    +0.125 A 
ATOM      5  C   LIG A   1      -0.396  -2.825   2.792  0.00  0.00    +0.046 A 
ATOM      6  C   LIG A   1      -1.373  -2.137   2.075  0.00  0.00    +0.015 A 
ENDROOT
BRANCH   1  11
ATOM      7  C   LIG A   1      -5.228   1.444  -1.599  0.00  0.00    +0.135 A 
ATOM      8  C   LIG A   1      -4.168   0.753  -1.011  0.00  0.00    +0.105 A 
ATOM      9  C   LIG A   1      -2.791   1.236  -1.141  0.00  0.00    +0.197 A 
ATOM     10  C   LIG A   1      -1.744   0.445  -0.495  0.00  0.00    +0.098 A 
ATOM     11  C   LIG A   1      -2.077  -0.664   0.182  0.00  0.00    +0.139 A 
ATOM     12  O   LIG A   1      -3.388  -1.122   0.321  0.00  0.00    -0.454 OA
ATOM     13  O   LIG A   1      -2.535   2.258  -1.765  0.00  0.00    -0.287 OA
ATOM     14  C   LIG A   1      -4.401  -0.414  -0.289  0.00  0.00    +0.146 A 
ATOM     15  C   LIG A   1      -5.709  -0.899  -0.172  0.00  0.00    +0.092 A 
ATOM     16  C   LIG A   1      -6.772  -0.222  -0.789  0.00  0.00    +0.127 A 
ATOM     17  C   LIG A   1      -6.526   0.963  -1.485  0.00  0.00    +0.092 A 
BRANCH   7  18
ATOM     18  O   LIG A   1      -5.069   2.607  -2.304  0.00  0.00    -0.506 OA
ATOM     19  H   LIG A   1      -4.111   2.834  -2.305  0.00  0.00    +0.292 HD
ENDBRANCH   7  18
BRANCH  16  20
ATOM     20  O   LIG A   1      -8.017  -0.773  -0.627  0.00  0.00    -0.495 OA
ATOM     21  C   LIG A   1      -8.962  -0.454  -1.649  0.00  0.00    +0.277 C 
ENDBRANCH  16  20
ENDBRANCH   1  11
BRANCH   3  22
ATOM     22  C   LIG A   1       2.675  -2.369   0.544  0.00  0.00    +0.070 A 
ATOM     23  C   LIG A   1       3.268  -3.638   0.318  0.00  0.00    +0.135 A 
ATOM     24  C   LIG A   1       4.568  -3.755  -0.184  0.00  0.00    +0.092 A 
ATOM     25  C   LIG A   1       5.317  -2.613  -0.455  0.00  0.00    +0.135 A 
ATOM     26  C   LIG A   1       4.769  -1.347  -0.250  0.00  0.00    +0.106 A 
ATOM     27  C   LIG A   1       3.452  -1.227   0.229  0.00  0.00    +0.154 A 
ATOM     28  O   LIG A   1       2.863   0.006   0.421  0.00  0.00    -0.454 OA
ATOM     29  C   LIG A   1       3.550   1.147   0.049  0.00  0.00    +0.139 A 
ATOM     30  C   LIG A   1       4.815   1.153  -0.379  0.00  0.00    +0.098 A 
ATOM     31  C   LIG A   1       5.545  -0.114  -0.524  0.00  0.00    +0.197 A 
ATOM     32  O   LIG A   1       6.710  -0.079  -0.858  0.00  0.00    -0.287 OA
BRANCH  29  33
ATOM     33  C   LIG A   1       2.780   2.399   0.177  0.00  0.00    +0.018 A 
ATOM     34  C   LIG A   1       1.763   2.536   1.133  0.00  0.00    +0.015 A 
ATOM     35  C   LIG A   1       1.034   3.731   1.241  0.00  0.00    +0.046 A 
ATOM     36  C   LIG A   1       1.304   4.799   0.381  0.00  0.00    +0.120 A 
ATOM     37  C   LIG A   1       2.316   4.661  -0.566  0.00  0.00    +0.046 A 
ATOM     38  C   LIG A   1       3.035   3.477  -0.676  0.00  0.00    +0.015 A 
BRANCH  36  39
ATOM     39  O   LIG A   1       0.542   5.931   0.516  0.00  0.00    -0.495 OA
ATOM     40  C   LIG A   1       0.865   6.977  -0.405  0.00  0.00    +0.277 C 
ENDBRANCH  36  39
ENDBRANCH  29  33
BRANCH  23  41
ATOM     41  O   LIG A   1       2.487  -4.739   0.578  0.00  0.00    -0.494 OA
ATOM     42  C   LIG A   1       3.163  -5.919   1.003  0.00  0.00    +0.277 C 
ENDBRANCH  23  41
BRANCH  25  43
ATOM     43  O   LIG A   1       6.585  -2.760  -0.938  0.00  0.00    -0.506 OA
ATOM     44  H   LIG A   1       6.826  -3.695  -1.024  0.00  0.00    +0.292 HD
ENDBRANCH  25  43
ENDBRANCH   3  22
BRANCH   4  45
ATOM     45  O   LIG A   1       1.794  -3.530   3.149  0.00  0.00    -0.506 OA
ATOM     46  H   LIG A   1       2.646  -3.599   2.692  0.00  0.00    +0.292 HD
ENDBRANCH   4  45
TORSDOF 9
