REMARK  Name = NuBBE_237
REMARK  18 active torsions:
REMARK  status: ('A' for Active; 'I' for Inactive)
REMARK    1  A    between atoms: C_1  and  C_2
REMARK    2  A    between atoms: C_7  and  O_9
REMARK    3  A    between atoms: C_12  and  O_14
REMARK    4  A    between atoms: O_14  and  C_15
REMARK    5  A    between atoms: C_15  and  C_16
REMARK    6  A    between atoms: C_19  and  O_21
REMARK    7  A    between atoms: O_21  and  C_22
REMARK    8  A    between atoms: C_22  and  C_23
REMARK    9  A    between atoms: C_26  and  O_28
REMARK   10  A    between atoms: O_28  and  C_29
REMARK   11  A    between atoms: C_29  and  C_30
REMARK   12  A    between atoms: C_30  and  C_31
REMARK   13  A    between atoms: C_30  and  C_32
REMARK   14  A    between atoms: C_37  and  C_38
REMARK   15  A    between atoms: C_37  and  C_39
REMARK   16  A    between atoms: C_39  and  C_40
REMARK   17  A    between atoms: C_41  and  C_42
REMARK   18  A    between atoms: C_41  and  C_44
REMARK                            x       y       z     vdW  Elec       q    Type
REMARK                         _______ _______ _______ _____ _____    ______ ____
ROOT
ATOM      1  C   LIG A   1       1.454   3.455   1.773  0.00  0.00    +0.008 C 
ATOM      2  C   LIG A   1       0.257   2.541   2.035  0.00  0.00    -0.005 C 
ATOM      3  C   LIG A   1       0.622   1.332   2.902  0.00  0.00    +0.036 C 
ATOM      4  C   LIG A   1       1.445   0.259   2.202  0.00  0.00    +0.131 C 
ATOM      5  C   LIG A   1       1.229   0.093   0.659  0.00  0.00    +0.089 C 
ATOM      6  C   LIG A   1       1.368  -1.384   0.330  0.00  0.00    +0.012 C 
ATOM      7  C   LIG A   1       2.829  -1.744   0.363  0.00  0.00    +0.343 C 
ATOM      8  O   LIG A   1       3.506  -0.527   0.041  0.00  0.00    -0.297 OA
ATOM      9  C   LIG A   1       2.517   0.501  -0.160  0.00  0.00    +0.327 C 
ATOM     10  C   LIG A   1       0.379  -2.200  -0.048  0.00  0.00    +0.023 C 
ATOM     11  C   LIG A   1      -1.046  -1.837  -0.133  0.00  0.00    +0.200 C 
ATOM     12  C   LIG A   1      -1.274  -0.320  -0.229  0.00  0.00    +0.054 C 
ATOM     13  C   LIG A   1      -0.130   0.716   0.133  0.00  0.00    +0.018 C 
ATOM     14  C   LIG A   1      -0.635   2.104   0.808  0.00  0.00    -0.022 C 
ATOM     15  C   LIG A   1      -2.064   2.004   1.435  0.00  0.00    +0.012 C 
ENDROOT
BRANCH   4  16
ATOM     16  O   LIG A   1       2.817   0.514   2.515  0.00  0.00    -0.391 OA
ATOM     17  H   LIG A   1       2.926   0.485   3.482  0.00  0.00    +0.210 HD
ENDBRANCH   4  16
BRANCH   7  18
ATOM     18  O   LIG A   1       3.162  -2.748  -0.595  0.00  0.00    -0.431 OA
BRANCH  18  19
ATOM     19  C   LIG A   1       2.935  -4.025  -0.166  0.00  0.00    +0.306 C 
ATOM     20  C   LIG A   1       3.285  -5.011  -1.243  0.00  0.00    +0.136 C 
ATOM     21  O   LIG A   1       2.493  -4.346   0.911  0.00  0.00    -0.251 OA
ENDBRANCH  18  19
ENDBRANCH   7  18
BRANCH   9  22
ATOM     22  O   LIG A   1       2.242   0.600  -1.569  0.00  0.00    -0.434 OA
BRANCH  22  23
ATOM     23  C   LIG A   1       3.266   1.067  -2.327  0.00  0.00    +0.306 C 
ATOM     24  C   LIG A   1       2.880   1.032  -3.770  0.00  0.00    +0.136 C 
ATOM     25  O   LIG A   1       4.360   1.453  -1.921  0.00  0.00    -0.251 OA
ENDBRANCH  22  23
ENDBRANCH   9  22
BRANCH  11  26
ATOM     26  O   LIG A   1      -1.670  -2.451   1.020  0.00  0.00    -0.457 OA
BRANCH  26  27
ATOM     27  C   LIG A   1      -2.067  -3.748   0.831  0.00  0.00    +0.310 C 
ATOM     28  O   LIG A   1      -2.255  -4.281  -0.264  0.00  0.00    -0.251 OA
BRANCH  27  29
ATOM     29  C   LIG A   1      -2.221  -4.483   2.161  0.00  0.00    +0.092 C 
ATOM     30  C   LIG A   1      -3.662  -4.383   2.637  0.00  0.00    +0.019 C 
ATOM     31  C   LIG A   1      -1.798  -5.956   2.040  0.00  0.00    +0.019 C 
ENDBRANCH  27  29
ENDBRANCH  26  27
ENDBRANCH  11  26
BRANCH  14  32
ATOM     32  C   LIG A   1      -0.695   3.263  -0.296  0.00  0.00    +0.034 C 
BRANCH  32  33
ATOM     33  C   LIG A   1      -1.640   3.044  -1.469  0.00  0.00    -0.023 C 
ATOM     34  C   LIG A   1      -1.979   3.875  -2.483  0.00  0.00    -0.055 C 
ATOM     35  C   LIG A   1      -2.943   3.400  -3.552  0.00  0.00    +0.043 C 
BRANCH  34  36
ATOM     36  C   LIG A   1      -1.439   5.215  -2.674  0.00  0.00    -0.005 C 
ATOM     37  C   LIG A   1      -2.041   6.193  -3.373  0.00  0.00    +0.008 C 
ENDBRANCH  34  36
ENDBRANCH  32  33
ENDBRANCH  14  32
TORSDOF 11
