REMARK  Name = NuBBE_1621
REMARK  7 active torsions:
REMARK  status: ('A' for Active; 'I' for Inactive)
REMARK    1  A    between atoms: O_1  and  C_2
REMARK    2  A    between atoms: O_1  and  C_7
REMARK    3  A    between atoms: C_2  and  C_3
REMARK    4  A    between atoms: C_4  and  C_5
REMARK    5  A    between atoms: C_4  and  C_6
REMARK    6  A    between atoms: C_10  and  O_16
REMARK    7  A    between atoms: O_16  and  C_17
REMARK                            x       y       z     vdW  Elec       q    Type
REMARK                         _______ _______ _______ _____ _____    ______ ____
ROOT
ATOM      1  C   LIG A   1       0.219  -0.225  -0.057  0.00  0.00    +0.207 A 
ATOM      2  C   LIG A   1       1.061  -1.335  -0.194  0.00  0.00    +0.188 A 
ATOM      3  C   LIG A   1       2.456  -1.232  -0.211  0.00  0.00    +0.064 A 
ATOM      4  C   LIG A   1       3.070   0.046  -0.097  0.00  0.00    +0.142 A 
ATOM      5  C   LIG A   1       2.247   1.197   0.015  0.00  0.00    +0.066 A 
ATOM      6  C   LIG A   1       0.866   1.011   0.067  0.00  0.00    +0.183 A 
ATOM      7  O   LIG A   1       0.240   2.213   0.232  0.00  0.00    -0.459 OA
ATOM      8  C   LIG A   1       1.177   3.178   0.206  0.00  0.00    +0.196 A 
ATOM      9  C   LIG A   1       2.421   2.617   0.065  0.00  0.00    +0.053 A 
ATOM     10  C   LIG A   1       3.230  -2.458  -0.307  0.00  0.00    +0.022 A 
ATOM     11  C   LIG A   1       2.622  -3.653  -0.433  0.00  0.00    +0.093 A 
ATOM     12  C   LIG A   1       1.154  -3.787  -0.485  0.00  0.00    +0.337 A 
ATOM     13  O   LIG A   1       0.628  -4.886  -0.643  0.00  0.00    -0.245 OA
ATOM     14  O   LIG A   1       0.439  -2.610  -0.352  0.00  0.00    -0.418 OA
ENDROOT
BRANCH   4  15
ATOM     15  O   LIG A   1       4.457   0.065  -0.187  0.00  0.00    -0.494 OA
ATOM     16  C   LIG A   1       5.103   1.083   0.567  0.00  0.00    +0.277 C 
ENDBRANCH   4  15
BRANCH   1  17
ATOM     17  O   LIG A   1      -1.149  -0.429  -0.063  0.00  0.00    -0.481 OA
BRANCH  17  18
ATOM     18  C   LIG A   1      -1.916   0.740  -0.355  0.00  0.00    +0.257 C 
BRANCH  18  19
ATOM     19  C   LIG A   1      -3.274   0.318  -0.807  0.00  0.00    +0.012 C 
ATOM     20  C   LIG A   1      -4.376   0.202  -0.045  0.00  0.00    -0.076 C 
ATOM     21  C   LIG A   1      -4.405   0.409   1.444  0.00  0.00    +0.038 C 
ATOM     22  C   LIG A   1      -5.686  -0.194  -0.661  0.00  0.00    +0.038 C 
ENDBRANCH  18  19
ENDBRANCH  17  18
ENDBRANCH   1  17
TORSDOF 4
