@<TRIPOS>MOLECULE
NuBBE_1205
 34 36 0 0 0
SMALL
GASTEIGER

@<TRIPOS>ATOM
      1 O          -5.0780   -2.2239    0.2145 O.3     1  LIG1       -0.5065
      2 C          -3.7232   -2.3743    0.2570 C.ar    1  LIG1        0.1239
      3 C          -2.8695   -1.2730    0.2213 C.ar    1  LIG1        0.0231
      4 C          -1.4888   -1.4785    0.2730 C.ar    1  LIG1        0.1462
      5 O          -0.6878   -0.3615    0.2396 O.2     1  LIG1       -0.4544
      6 C           0.6903   -0.5281    0.3117 C.ar    1  LIG1        0.1393
      7 C           1.4670    0.7347    0.2790 C.ar    1  LIG1        0.0211
      8 C           0.9887    1.8437   -0.4471 C.ar    1  LIG1       -0.0057
      9 C           1.7125    3.0396   -0.4912 C.ar    1  LIG1        0.1619
     10 O           1.3558    4.1784   -1.1676 O.3     1  LIG1       -0.4914
     11 C           0.1285    4.1335   -1.8862 C.3     1  LIG1        0.0790
     12 C           2.9219    3.1234    0.2046 C.ar    1  LIG1        0.1585
     13 C           3.4094    2.0534    0.9385 C.ar    1  LIG1       -0.0159
     14 C           2.6797    0.8650    0.9800 C.ar    1  LIG1       -0.0474
     15 O           3.6579    4.2761    0.1801 O.3     1  LIG1       -0.5033
     16 C           1.2934   -1.7242    0.3826 C.ar    1  LIG1        0.0288
     17 C           0.4760   -2.9441    0.4132 C.ar    1  LIG1        0.1966
     18 O           0.9851   -4.0555    0.4865 O.2     1  LIG1       -0.2869
     19 C          -0.9789   -2.7731    0.3569 C.ar    1  LIG1        0.1055
     20 C          -1.8456   -3.8700    0.3885 C.ar    1  LIG1        0.1347
     21 O          -1.4078   -5.1641    0.4690 O.3     1  LIG1       -0.5058
     22 C          -3.2216   -3.6705    0.3388 C.ar    1  LIG1        0.0223
     23 H          -5.2972   -1.2784    0.1808 H       1  LIG1        0.2921
     24 H          -3.2599   -0.2625    0.1570 H       1  LIG1        0.0691
     25 H           0.0491    1.7483   -0.9820 H       1  LIG1        0.0662
     26 H          -0.0044    5.0991   -2.3832 H       1  LIG1        0.0660
     27 H          -0.7181    3.9874   -1.2073 H       1  LIG1        0.0660
     28 H           0.1532    3.3611   -2.6620 H       1  LIG1        0.0660
     29 H           4.3481    2.1443    1.4771 H       1  LIG1        0.0655
     30 H           3.0738    0.0468    1.5785 H       1  LIG1        0.0626
     31 H           3.1477    4.8923   -0.3804 H       1  LIG1        0.2923
     32 H           2.3654   -1.8682    0.4154 H       1  LIG1        0.0693
     33 H          -0.4244   -5.1569    0.4976 H       1  LIG1        0.2922
     34 H          -3.8981   -4.5204    0.3658 H       1  LIG1        0.0691
@<TRIPOS>BOND
     1     1     2    1
     2     2     3   ar
     3     3     4   ar
     4     4     5   ar
     5     5     6   ar
     6     6     7    1
     7     7     8   ar
     8     8     9   ar
     9     9    10    1
    10    10    11    1
    11     9    12   ar
    12    12    13   ar
    13    13    14   ar
    14     7    14   ar
    15    12    15    1
    16     6    16   ar
    17    16    17   ar
    18    17    18    2
    19     4    19   ar
    20    17    19   ar
    21    19    20   ar
    22    20    21    1
    23    20    22   ar
    24     2    22   ar
    25     1    23    1
    26     3    24    1
    27     8    25    1
    28    11    26    1
    29    11    27    1
    30    11    28    1
    31    13    29    1
    32    14    30    1
    33    15    31    1
    34    16    32    1
    35    21    33    1
    36    22    34    1
