REMARK  Name = NuBBE_1829
REMARK  5 active torsions:
REMARK  status: ('A' for Active; 'I' for Inactive)
REMARK    1  A    between atoms: C_2  and  O_3
REMARK    2  A    between atoms: C_2  and  C_11
REMARK    3  A    between atoms: O_3  and  C_4
REMARK    4  A    between atoms: C_4  and  C_5
REMARK    5  A    between atoms: C_16  and  O_17
REMARK                            x       y       z     vdW  Elec       q    Type
REMARK                         _______ _______ _______ _____ _____    ______ ____
ROOT
ATOM      1  O   LIG A   1      -1.927  -0.517   0.410  0.00  0.00    -0.245 OA
ATOM      2  C   LIG A   1      -0.759  -0.640   0.736  0.00  0.00    +0.343 C 
ENDROOT
BRANCH   2   3
ATOM      3  C   LIG A   1      -0.024  -1.925   0.635  0.00  0.00    +0.100 A 
ATOM      4  C   LIG A   1      -0.367  -2.784  -0.421  0.00  0.00    +0.019 A 
ATOM      5  C   LIG A   1       0.259  -4.025  -0.554  0.00  0.00    +0.001 A 
ATOM      6  C   LIG A   1       1.226  -4.418   0.370  0.00  0.00    +0.004 A 
ATOM      7  C   LIG A   1       1.573  -3.572   1.425  0.00  0.00    +0.046 A 
ATOM      8  C   LIG A   1       0.947  -2.330   1.560  0.00  0.00    +0.131 A 
BRANCH   8   9
ATOM      9  O   LIG A   1       1.271  -1.541   2.628  0.00  0.00    -0.506 OA
ATOM     10  H   LIG A   1       1.984  -1.958   3.137  0.00  0.00    +0.292 HD
ENDBRANCH   8   9
ENDBRANCH   2   3
BRANCH   2  11
ATOM     11  O   LIG A   1       0.072   0.342   1.164  0.00  0.00    -0.456 OA
BRANCH  11  12
ATOM     12  C   LIG A   1      -0.523   1.635   1.302  0.00  0.00    +0.268 C 
BRANCH  12  13
ATOM     13  C   LIG A   1      -0.488   2.371  -0.013  0.00  0.00    -0.010 A 
ATOM     14  C   LIG A   1       0.728   2.626  -0.663  0.00  0.00    +0.007 A 
ATOM     15  C   LIG A   1       0.743   3.271  -1.901  0.00  0.00    +0.000 A 
ATOM     16  C   LIG A   1      -0.453   3.673  -2.493  0.00  0.00    +0.000 A 
ATOM     17  C   LIG A   1      -1.665   3.438  -1.845  0.00  0.00    +0.000 A 
ATOM     18  C   LIG A   1      -1.682   2.788  -0.612  0.00  0.00    +0.007 A 
ENDBRANCH  12  13
ENDBRANCH  11  12
ENDBRANCH   2  11
TORSDOF 5
