REMARK  Name = NuBBE_2521
REMARK  9 active torsions:
REMARK  status: ('A' for Active; 'I' for Inactive)
REMARK    1  A    between atoms: C_1  and  C_2
REMARK    2  A    between atoms: C_1  and  C_4
REMARK    3  A    between atoms: C_5  and  C_7
REMARK    4  A    between atoms: C_8  and  C_20
REMARK    5  A    between atoms: C_16  and  O_18
REMARK    6  A    between atoms: O_18  and  C_19
REMARK    7  A    between atoms: C_22  and  O_23
REMARK    8  A    between atoms: O_23  and  C_24
REMARK    9  A    between atoms: C_25  and  O_28
REMARK                            x       y       z     vdW  Elec       q    Type
REMARK                         _______ _______ _______ _____ _____    ______ ____
ROOT
ATOM      1  C   LIG A   1      -1.765   1.472  -0.326  0.00  0.00    +0.058 C 
ATOM      2  C   LIG A   1      -1.384  -0.044  -0.246  0.00  0.00    +0.012 C 
ATOM      3  C   LIG A   1      -2.463  -1.019   0.231  0.00  0.00    +0.009 C 
ATOM      4  C   LIG A   1      -0.146  -0.110   0.715  0.00  0.00    +0.041 C 
ATOM      5  C   LIG A   1       0.409   1.320   0.759  0.00  0.00    +0.138 C 
ATOM      6  C   LIG A   1      -0.900   2.038   0.784  0.00  0.00    +0.155 C 
ATOM      7  O   LIG A   1      -1.156   3.010   1.492  0.00  0.00    -0.296 OA
ATOM      8  C   LIG A   1       1.136   1.736  -0.505  0.00  0.00    +0.208 C 
ATOM      9  O   LIG A   1       2.364   1.688  -0.550  0.00  0.00    -0.288 OA
ATOM     10  C   LIG A   1       0.274   2.193  -1.680  0.00  0.00    +0.160 C 
ATOM     11  C   LIG A   1      -1.067   2.079  -1.549  0.00  0.00    +0.037 C 
ENDROOT
BRANCH   4  12
ATOM     12  C   LIG A   1       0.836  -1.253   0.517  0.00  0.00    -0.039 A 
ATOM     13  C   LIG A   1       1.928  -1.388   1.399  0.00  0.00    +0.053 A 
ATOM     14  C   LIG A   1       2.717  -2.544   1.396  0.00  0.00    +0.162 A 
ATOM     15  C   LIG A   1       2.430  -3.558   0.478  0.00  0.00    +0.159 A 
ATOM     16  C   LIG A   1       1.401  -3.429  -0.436  0.00  0.00    +0.049 A 
ATOM     17  C   LIG A   1       0.610  -2.282  -0.415  0.00  0.00    +0.008 A 
BRANCH  14  18
ATOM     18  O   LIG A   1       3.757  -2.819   2.247  0.00  0.00    -0.491 OA
ATOM     19  C   LIG A   1       4.072  -1.819   3.208  0.00  0.00    +0.277 C 
ENDBRANCH  14  18
BRANCH  15  20
ATOM     20  O   LIG A   1       3.149  -4.721   0.477  0.00  0.00    -0.503 OA
ATOM     21  H   LIG A   1       3.789  -4.621   1.207  0.00  0.00    +0.292 HD
ENDBRANCH  15  20
ENDBRANCH   4  12
BRANCH  10  22
ATOM     22  O   LIG A   1       0.773   2.701  -2.867  0.00  0.00    -0.492 OA
ATOM     23  C   LIG A   1       2.183   2.870  -2.965  0.00  0.00    +0.277 C 
ENDBRANCH  10  22
BRANCH   1  24
ATOM     24  C   LIG A   1      -3.234   1.896  -0.142  0.00  0.00    +0.045 C 
BRANCH  24  25
ATOM     25  C   LIG A   1      -4.199   1.365  -1.171  0.00  0.00    -0.033 C 
ATOM     26  C   LIG A   1      -5.482   1.076  -0.911  0.00  0.00    +0.004 C 
ENDBRANCH  24  25
ENDBRANCH   1  24
TORSDOF 6
