REMARK  Name = NuBBE_1507
REMARK  5 active torsions:
REMARK  status: ('A' for Active; 'I' for Inactive)
REMARK    1  A    between atoms: O_1  and  C_2
REMARK    2  A    between atoms: C_13  and  C_16
REMARK    3  A    between atoms: C_17  and  C_22
REMARK    4  A    between atoms: C_22  and  C_23
REMARK    5  A    between atoms: C_29  and  O_31
REMARK                            x       y       z     vdW  Elec       q    Type
REMARK                         _______ _______ _______ _____ _____    ______ ____
ROOT
ATOM      1  C   LIG A   1      -2.602   0.050  -3.519  0.00  0.00    +0.194 C 
ATOM      2  C   LIG A   1      -2.326   0.639  -2.144  0.00  0.00    +0.077 C 
ATOM      3  C   LIG A   1      -0.901   0.111  -1.923  0.00  0.00    +0.005 C 
ATOM      4  C   LIG A   1      -0.333   0.465  -3.312  0.00  0.00    +0.171 C 
ATOM      5  O   LIG A   1      -1.388   0.234  -4.258  0.00  0.00    -0.346 OA
ATOM      6  C   LIG A   1      -0.173   0.851  -0.775  0.00  0.00    +0.001 C 
ATOM      7  C   LIG A   1      -0.786   0.493   0.597  0.00  0.00    -0.003 C 
ATOM      8  C   LIG A   1      -0.079   1.257   1.764  0.00  0.00    +0.006 C 
ATOM      9  C   LIG A   1       1.475   1.300   1.718  0.00  0.00    -0.019 C 
ATOM     10  C   LIG A   1       2.020   1.510   0.294  0.00  0.00    +0.008 C 
ATOM     11  C   LIG A   1       1.354   0.669  -0.785  0.00  0.00    +0.005 C 
ATOM     12  C   LIG A   1       1.998   2.488   2.573  0.00  0.00    +0.012 C 
ATOM     13  C   LIG A   1       1.873  -0.065   2.349  0.00  0.00    +0.061 C 
ATOM     14  C   LIG A   1       0.794  -0.202   3.420  0.00  0.00    +0.137 C 
ATOM     15  O   LIG A   1       0.855  -0.960   4.380  0.00  0.00    -0.297 OA
ATOM     16  C   LIG A   1      -0.393   0.701   3.160  0.00  0.00    +0.079 C 
ATOM     17  C   LIG A   1      -1.050  -1.022   0.774  0.00  0.00    +0.004 C 
ATOM     18  C   LIG A   1      -0.549  -1.925  -0.346  0.00  0.00    +0.004 C 
ATOM     19  C   LIG A   1      -0.919  -1.450  -1.759  0.00  0.00    +0.001 C 
ATOM     20  C   LIG A   1      -2.263  -2.090  -2.175  0.00  0.00    +0.041 C 
ATOM     21  C   LIG A   1      -2.895  -1.467  -3.422  0.00  0.00    +0.174 C 
ENDROOT
BRANCH   1  22
ATOM     22  O   LIG A   1      -3.663   0.700  -4.195  0.00  0.00    -0.363 OA
ATOM     23  H   LIG A   1      -3.380   1.626  -4.279  0.00  0.00    +0.213 HD
ENDBRANCH   1  22
BRANCH  13  24
ATOM     24  C   LIG A   1       3.296  -0.151   2.908  0.00  0.00    +0.008 C 
ATOM     25  C   LIG A   1       3.747  -1.591   3.125  0.00  0.00    +0.004 C 
ENDBRANCH  13  24
BRANCH  21  26
ATOM     26  O   LIG A   1      -4.309  -1.706  -3.357  0.00  0.00    -0.387 OA
ATOM     27  H   LIG A   1      -4.700  -1.011  -3.927  0.00  0.00    +0.210 HD
ENDBRANCH  21  26
TORSDOF 3
