REMARK  Name = NuBBE_160
REMARK  7 active torsions:
REMARK  status: ('A' for Active; 'I' for Inactive)
REMARK    1  A    between atoms: O_1  and  C_2
REMARK    2  A    between atoms: C_4  and  O_5
REMARK    3  A    between atoms: C_8  and  O_9
REMARK    4  A    between atoms: C_10  and  C_11
REMARK    5  A    between atoms: C_13  and  O_14
REMARK    6  A    between atoms: C_15  and  O_16
REMARK    7  A    between atoms: C_17  and  O_18
REMARK                            x       y       z     vdW  Elec       q    Type
REMARK                         _______ _______ _______ _____ _____    ______ ____
ROOT
ATOM      1  C   LIG A   1      -3.781  -2.113  -0.254  0.00  0.00    +0.124 A 
ATOM      2  C   LIG A   1      -3.252  -3.392  -0.113  0.00  0.00    +0.091 A 
ATOM      3  C   LIG A   1      -1.870  -3.547   0.039  0.00  0.00    +0.135 A 
ATOM      4  C   LIG A   1      -1.025  -2.428   0.049  0.00  0.00    +0.109 A 
ATOM      5  C   LIG A   1       0.441  -2.523   0.208  0.00  0.00    +0.238 A 
ATOM      6  C   LIG A   1       1.204  -1.249   0.177  0.00  0.00    +0.208 A 
ATOM      7  C   LIG A   1       0.541  -0.091   0.021  0.00  0.00    +0.181 A 
ATOM      8  O   LIG A   1      -0.837  -0.001  -0.098  0.00  0.00    -0.451 OA
ATOM      9  O   LIG A   1       1.073  -3.562   0.367  0.00  0.00    -0.283 OA
ATOM     10  C   LIG A   1      -1.579  -1.155  -0.095  0.00  0.00    +0.146 A 
ATOM     11  C   LIG A   1      -2.957  -0.995  -0.246  0.00  0.00    +0.092 A 
ENDROOT
BRANCH   7  12
ATOM     12  C   LIG A   1       1.211   1.226  -0.015  0.00  0.00    +0.028 A 
ATOM     13  C   LIG A   1       0.731   2.271   0.799  0.00  0.00    +0.061 A 
ATOM     14  C   LIG A   1       1.337   3.524   0.751  0.00  0.00    +0.163 A 
ATOM     15  C   LIG A   1       2.409   3.750  -0.103  0.00  0.00    +0.201 A 
ATOM     16  C   LIG A   1       2.882   2.728  -0.913  0.00  0.00    +0.163 A 
ATOM     17  C   LIG A   1       2.293   1.470  -0.878  0.00  0.00    +0.061 A 
BRANCH  14  18
ATOM     18  O   LIG A   1       0.910   4.567   1.525  0.00  0.00    -0.503 OA
ATOM     19  H   LIG A   1       0.167   4.256   2.071  0.00  0.00    +0.292 HD
ENDBRANCH  14  18
BRANCH  15  20
ATOM     20  O   LIG A   1       3.009   4.979  -0.158  0.00  0.00    -0.501 OA
ATOM     21  H   LIG A   1       2.511   5.516   0.491  0.00  0.00    +0.292 HD
ENDBRANCH  15  20
BRANCH  16  22
ATOM     22  O   LIG A   1       3.931   2.957  -1.757  0.00  0.00    -0.503 OA
ATOM     23  H   LIG A   1       4.176   3.890  -1.597  0.00  0.00    +0.292 HD
ENDBRANCH  16  22
ENDBRANCH   7  12
BRANCH   1  24
ATOM     24  O   LIG A   1      -5.120  -1.908  -0.403  0.00  0.00    -0.506 OA
ATOM     25  H   LIG A   1      -5.582  -2.763  -0.408  0.00  0.00    +0.292 HD
ENDBRANCH   1  24
BRANCH   3  26
ATOM     26  O   LIG A   1      -1.360  -4.806   0.176  0.00  0.00    -0.506 OA
ATOM     27  H   LIG A   1      -2.064  -5.472   0.137  0.00  0.00    +0.292 HD
ENDBRANCH   3  26
BRANCH   6  28
ATOM     28  O   LIG A   1       2.575  -1.342   0.334  0.00  0.00    -0.501 OA
ATOM     29  H   LIG A   1       2.748  -2.304   0.432  0.00  0.00    +0.292 HD
ENDBRANCH   6  28
TORSDOF 7
