@<TRIPOS>MOLECULE
NuBBE_1105
 50 54 0 0 0
SMALL
GASTEIGER

@<TRIPOS>ATOM
      1 O           0.4534   -4.3378   -2.2630 O.2     1  LIG1       -0.2668
      2 C          -0.5713   -3.7546   -1.9587 C.ar    1  LIG1        0.2643
      3 C          -1.8884   -4.2885   -2.4198 C.ar    1  LIG1        0.0630
      4 C          -3.0511   -3.6097   -2.0583 C.ar    1  LIG1        0.0556
      5 C          -4.3094   -4.0327   -2.4742 C.ar    1  LIG1       -0.0375
      6 C          -4.4013   -5.1757   -3.2604 C.ar    1  LIG1       -0.0598
      7 C          -3.2426   -5.8697   -3.6265 C.ar    1  LIG1       -0.0609
      8 C          -1.9820   -5.4278   -3.2126 C.ar    1  LIG1       -0.0474
      9 N          -2.9284   -2.4061   -1.3777 N.ar    1  LIG1       -0.3070
     10 C          -1.7228   -1.7836   -1.4739 C.ar    1  LIG1        0.3298
     11 N          -0.6212   -2.5551   -1.2524 N.ar    1  LIG1       -0.2602
     12 C           0.6419   -1.9070   -0.8646 C.3     1  LIG1        0.0350
     13 C           0.6209   -1.1087    0.4698 C.3     1  LIG1       -0.0074
     14 C          -0.2612    0.1096    0.5739 C.ar    1  LIG1       -0.0200
     15 C          -1.6400    0.0440    0.7157 C.ar    1  LIG1        0.0060
     16 N          -2.1487    1.2910    0.5342 N.ar    1  LIG1       -0.3603
     17 C          -1.1626    2.1938    0.8074 C.ar    1  LIG1        0.0475
     18 C           0.0635    1.5067    0.7670 C.ar    1  LIG1        0.0135
     19 C           1.2302    2.2766    0.9973 C.ar    1  LIG1        0.0259
     20 C           1.0893    3.6119    1.4119 C.ar    1  LIG1        0.1295
     21 C          -0.1538    4.2359    1.4548 C.ar    1  LIG1       -0.0173
     22 C          -1.3056    3.5466    1.1052 C.ar    1  LIG1       -0.0343
     23 O           2.1522    4.3850    1.7991 O.3     1  LIG1       -0.4816
     24 C           3.3710    3.6973    2.1523 C.3     1  LIG1        0.1235
     25 C           3.3877    3.4976    3.6728 C.3     1  LIG1       -0.0215
     26 C           4.4987    4.6510    1.7456 C.3     1  LIG1       -0.0215
     27 C           3.5711    2.3782    1.4430 C.2     1  LIG1       -0.0409
     28 C           2.5628    1.7094    0.8751 C.2     1  LIG1       -0.0507
     29 O          -1.7153   -0.5899   -1.8199 O.2     1  LIG1       -0.2465
     30 H          -5.2045   -3.4709   -2.2207 H       1  LIG1        0.0638
     31 H          -5.3763   -5.5222   -3.5934 H       1  LIG1        0.0618
     32 H          -3.3226   -6.7643   -4.2383 H       1  LIG1        0.0618
     33 H          -1.0835   -5.9621   -3.5079 H       1  LIG1        0.0626
     34 H          -3.7351   -1.8016   -1.3126 H       1  LIG1        0.1704
     35 H           0.9847   -1.2885   -1.7024 H       1  LIG1        0.0497
     36 H           1.3944   -2.6971   -0.7343 H       1  LIG1        0.0497
     37 H           1.6545   -0.8482    0.7070 H       1  LIG1        0.0331
     38 H           0.3083   -1.7847    1.2732 H       1  LIG1        0.0331
     39 H          -2.3159   -0.7948    0.7331 H       1  LIG1        0.0810
     40 H          -3.1249    1.5118    0.3936 H       1  LIG1        0.1653
     41 H          -0.2320    5.2692    1.7762 H       1  LIG1        0.0655
     42 H          -2.2841    4.0132    1.1441 H       1  LIG1        0.0639
     43 H           3.2869    4.4584    4.1911 H       1  LIG1        0.0271
     44 H           4.3130    3.0185    4.0113 H       1  LIG1        0.0271
     45 H           2.5428    2.8814    4.0031 H       1  LIG1        0.0271
     46 H           4.3742    5.6278    2.2271 H       1  LIG1        0.0271
     47 H           4.4808    4.8353    0.6645 H       1  LIG1        0.0271
     48 H           5.4848    4.2568    2.0129 H       1  LIG1        0.0271
     49 H           4.5772    1.9722    1.3891 H       1  LIG1        0.0611
     50 H           2.7404    0.8018    0.3201 H       1  LIG1        0.0623
@<TRIPOS>BOND
     1     1     2    2
     2     2     3   ar
     3     3     4   ar
     4     4     5   ar
     5     5     6   ar
     6     6     7   ar
     7     7     8   ar
     8     3     8   ar
     9     4     9   ar
    10     9    10   ar
    11    10    11   ar
    12     2    11   ar
    13    11    12    1
    14    12    13    1
    15    13    14    1
    16    14    15   ar
    17    15    16   ar
    18    16    17   ar
    19    17    18   ar
    20    14    18   ar
    21    18    19   ar
    22    19    20   ar
    23    20    21   ar
    24    21    22   ar
    25    17    22   ar
    26    20    23    1
    27    23    24    1
    28    24    25    1
    29    24    26    1
    30    24    27    1
    31    27    28    2
    32    19    28    1
    33    10    29    2
    34     5    30    1
    35     6    31    1
    36     7    32    1
    37     8    33    1
    38     9    34    1
    39    12    35    1
    40    12    36    1
    41    13    37    1
    42    13    38    1
    43    15    39    1
    44    16    40    1
    45    21    41    1
    46    22    42    1
    47    25    43    1
    48    25    44    1
    49    25    45    1
    50    26    46    1
    51    26    47    1
    52    26    48    1
    53    27    49    1
    54    28    50    1
