REMARK  Name = NuBBE_96
REMARK  15 active torsions:
REMARK  status: ('A' for Active; 'I' for Inactive)
REMARK    1  A    between atoms: C_2  and  C_3
REMARK    2  A    between atoms: C_4  and  O_33
REMARK    3  A    between atoms: C_8  and  C_29
REMARK    4  A    between atoms: C_9  and  C_10
REMARK    5  A    between atoms: C_10  and  C_11
REMARK    6  A    between atoms: CA_16  and  C_19
REMARK    7  A    between atoms: C_19  and  O_20
REMARK    8  A    between atoms: C_29  and  O_30
REMARK    9  A    between atoms: O_30  and  C_31
REMARK   10  A    between atoms: O_33  and  C_34
REMARK   11  A    between atoms: C_37  and  C_45
REMARK   12  A    between atoms: C_39  and  O_44
REMARK   13  A    between atoms: C_41  and  O_43
REMARK   14  A    between atoms: C_45  and  O_46
REMARK   15  A    between atoms: C_47  and  O_49
REMARK                            x       y       z     vdW  Elec       q    Type
REMARK                         _______ _______ _______ _____ _____    ______ ____
ROOT
ATOM      1  C   LIG A   1       1.073  -0.248   1.794  0.00  0.00    +0.088 C 
ATOM      2  C   LIG A   1       2.283  -0.811   0.977  0.00  0.00    +0.316 C 
ATOM      3  O   LIG A   1       2.136  -2.215   0.738  0.00  0.00    -0.470 OA
ATOM      4  C   LIG A   1       0.889  -2.670   0.460  0.00  0.00    +0.201 C 
ATOM      5  C   LIG A   1      -0.287  -1.970   0.586  0.00  0.00    +0.075 C 
ATOM      6  C   LIG A   1      -0.307  -0.534   1.107  0.00  0.00    +0.043 C 
ENDROOT
BRANCH   1   8
ATOM      7  C   LIG A   1       0.517   2.059   2.839  0.00  0.00    +0.004 C 
ATOM      8  C   LIG A   1       1.361   1.085   2.470  0.00  0.00    -0.025 C 
ENDBRANCH   1   8
BRANCH   5   9
ATOM      9  C   LIG A   1      -1.530  -2.768   0.533  0.00  0.00    +0.338 C 
ATOM     10  O   LIG A   1      -2.559  -2.422   1.098  0.00  0.00    -0.245 OA
BRANCH   9  11
ATOM     11  O   LIG A   1      -1.315  -3.956  -0.092  0.00  0.00    -0.465 OA
ATOM     12  C   LIG A   1      -2.375  -4.928  -0.111  0.00  0.00    +0.280 C 
ENDBRANCH   9  11
ENDBRANCH   5   9
BRANCH   6  13
ATOM     13  C   LIG A   1      -0.802   0.564   0.105  0.00  0.00    +0.034 C 
BRANCH  13  14
ATOM     14  C   LIG A   1      -2.245   0.480  -0.494  0.00  0.00    +0.102 C 
ATOM     15  C   LIG A   1      -3.376   0.636   0.490  0.00  0.00    +0.037 A 
ATOM     16  C   LIG A   1      -4.596   1.249   0.243  0.00  0.00    -0.016 A 
ATOM     17  C   LIG A   1      -4.928   1.844  -1.079  0.00  0.00    +0.067 C 
ATOM     18  CA  LIG A   1      -3.750   1.695  -2.075  0.00  0.00    +0.168 C 
ATOM     19  N   LIG A   1      -2.390   1.613  -1.450  0.00  0.00    -0.296 NA
ATOM     20  C   LIG A   1      -5.327   1.303   1.462  0.00  0.00    +0.003 A 
ATOM     21  C   LIG A   1      -6.555   1.863   1.859  0.00  0.00    +0.010 A 
ATOM     22  C   LIG A   1      -6.911   1.831   3.214  0.00  0.00    +0.001 A 
ATOM     23  C   LIG A   1      -6.082   1.225   4.159  0.00  0.00    +0.002 A 
ATOM     24  C   LIG A   1      -4.886   0.616   3.777  0.00  0.00    +0.026 A 
ATOM     25  C   LIG A   1      -4.539   0.683   2.425  0.00  0.00    +0.047 A 
ATOM     26  N   LIG A   1      -3.430   0.192   1.782  0.00  0.00    -0.356 N 
ATOM     27  H   LIG A   1      -1.673   1.579  -2.172  0.00  0.00    +0.123 HD
ATOM     28  H   LIG A   1      -2.768  -0.409   2.244  0.00  0.00    +0.166 HD
BRANCH  18  29
ATOM     29  C   LIG A   1      -3.816   2.893  -3.028  0.00  0.00    +0.322 C 
ATOM     30  OXT LIG A   1      -3.237   3.964  -2.935  0.00  0.00    -0.249 OA
BRANCH  29  31
ATOM     31  O   LIG A   1      -4.635   2.674  -4.082  0.00  0.00    -0.479 OA
ATOM     32  H   LIG A   1      -4.546   3.499  -4.607  0.00  0.00    +0.295 HD
ENDBRANCH  29  31
ENDBRANCH  18  29
ENDBRANCH  13  14
ENDBRANCH   6  13
BRANCH   2  33
ATOM     33  O   LIG A   1       2.553  -0.134  -0.250  0.00  0.00    -0.309 OA
BRANCH  33  34
ATOM     34  C   LIG A   1       3.723  -0.679  -0.906  0.00  0.00    +0.286 C 
ATOM     35  O   LIG A   1       4.881  -0.555  -0.067  0.00  0.00    -0.340 OA
ATOM     36  C   LIG A   1       6.095  -0.960  -0.730  0.00  0.00    +0.178 C 
ATOM     37  C   LIG A   1       6.379   0.056  -1.835  0.00  0.00    +0.177 C 
ATOM     38  C   LIG A   1       5.275  -0.085  -2.878  0.00  0.00    +0.179 C 
ATOM     39  C   LIG A   1       3.877   0.053  -2.266  0.00  0.00    +0.201 C 
BRANCH  38  40
ATOM     40  O   LIG A   1       5.478   0.907  -3.898  0.00  0.00    -0.386 OA
ATOM     41  H   LIG A   1       4.658   0.921  -4.430  0.00  0.00    +0.210 HD
ENDBRANCH  38  40
BRANCH  37  42
ATOM     42  O   LIG A   1       7.633  -0.180  -2.475  0.00  0.00    -0.387 OA
ATOM     43  H   LIG A   1       7.660   0.464  -3.212  0.00  0.00    +0.210 HD
ENDBRANCH  37  42
BRANCH  39  44
ATOM     44  O   LIG A   1       2.928  -0.425  -3.247  0.00  0.00    -0.384 OA
ATOM     45  H   LIG A   1       2.874  -1.396  -3.180  0.00  0.00    +0.210 HD
ENDBRANCH  39  44
BRANCH  36  46
ATOM     46  C   LIG A   1       7.233  -1.057   0.294  0.00  0.00    +0.190 C 
BRANCH  46  47
ATOM     47  O   LIG A   1       7.442   0.184   0.961  0.00  0.00    -0.392 OA
ATOM     48  H   LIG A   1       6.562   0.492   1.240  0.00  0.00    +0.209 HD
ENDBRANCH  46  47
ENDBRANCH  36  46
ENDBRANCH  33  34
ENDBRANCH   2  33
TORSDOF 14
