REMARK  Name = NuBBE_444
REMARK  24 active torsions:
REMARK  status: ('A' for Active; 'I' for Inactive)
REMARK    1  A    between atoms: C_4  and  O_18
REMARK    2  A    between atoms: C_7  and  O_14
REMARK    3  A    between atoms: C_9  and  C_11
REMARK    4  A    between atoms: C_11  and  O_12
REMARK    5  A    between atoms: O_14  and  C_15
REMARK    6  A    between atoms: C_15  and  C_16
REMARK    7  A    between atoms: O_18  and  C_19
REMARK    8  A    between atoms: C_22  and  C_36
REMARK    9  A    between atoms: C_24  and  O_32
REMARK   10  A    between atoms: C_26  and  O_28
REMARK   11  A    between atoms: O_28  and  C_29
REMARK   12  A    between atoms: C_29  and  C_30
REMARK   13  A    between atoms: O_32  and  C_33
REMARK   14  A    between atoms: C_33  and  C_34
REMARK   15  A    between atoms: C_36  and  O_37
REMARK   16  A    between atoms: O_37  and  C_38
REMARK   17  A    between atoms: C_38  and  C_39
REMARK   18  A    between atoms: C_41  and  O_43
REMARK   19  A    between atoms: O_43  and  C_44
REMARK   20  A    between atoms: C_44  and  C_45
REMARK   21  A    between atoms: C_50  and  C_52
REMARK   22  A    between atoms: C_52  and  O_53
REMARK   23  A    between atoms: O_53  and  C_54
REMARK   24  A    between atoms: C_54  and  C_55
REMARK                            x       y       z     vdW  Elec       q    Type
REMARK                         _______ _______ _______ _____ _____    ______ ____
ROOT
ATOM      1  O   LIG A   1       0.248  -0.069   0.790  0.00  0.00    -0.319 OA
ENDROOT
BRANCH   1   4
ATOM      2  C   LIG A   1      -3.516  -0.011   0.699  0.00  0.00    +0.040 C 
ATOM      3  C   LIG A   1      -2.115  -0.350   1.238  0.00  0.00    +0.063 C 
ATOM      4  C   LIG A   1      -1.044   0.373   0.384  0.00  0.00    +0.262 C 
ATOM      5  O   LIG A   1      -1.219   1.758   0.659  0.00  0.00    -0.311 OA
ATOM      6  C   LIG A   1      -2.438   2.285   0.125  0.00  0.00    +0.327 C 
ATOM      7  C   LIG A   1      -3.711   1.455   0.334  0.00  0.00    +0.173 C 
ATOM      8  C   LIG A   1      -3.717  -1.117  -0.305  0.00  0.00    -0.026 C 
ATOM      9  C   LIG A   1      -2.953  -2.172   0.003  0.00  0.00    -0.024 C 
ATOM     10  C   LIG A   1      -2.073  -1.891   1.191  0.00  0.00    +0.057 C 
BRANCH   7  11
ATOM     11  C   LIG A   1      -4.640   1.642  -0.835  0.00  0.00    +0.315 C 
ATOM     12  O   LIG A   1      -4.413   1.366  -2.002  0.00  0.00    -0.251 OA
BRANCH  11  13
ATOM     13  O   LIG A   1      -5.840   2.137  -0.470  0.00  0.00    -0.480 OA
ATOM     14  H   LIG A   1      -6.373   2.164  -1.292  0.00  0.00    +0.295 HD
ENDBRANCH  11  13
ENDBRANCH   7  11
BRANCH   6  15
ATOM     15  O   LIG A   1      -2.591   3.627   0.641  0.00  0.00    -0.434 OA
BRANCH  15  16
ATOM     16  C   LIG A   1      -2.639   3.739   1.999  0.00  0.00    +0.306 C 
ATOM     17  C   LIG A   1      -1.664   4.768   2.455  0.00  0.00    +0.136 C 
ATOM     18  O   LIG A   1      -3.310   3.051   2.761  0.00  0.00    -0.251 OA
ENDBRANCH  15  16
ENDBRANCH   6  15
BRANCH  10  19
ATOM     19  C   LIG A   1      -2.601  -2.563   2.484  0.00  0.00    +0.240 C 
BRANCH  19  20
ATOM     20  O   LIG A   1      -3.862  -2.068   2.988  0.00  0.00    -0.464 OA
BRANCH  20  21
ATOM     21  C   LIG A   1      -4.876  -2.973   3.093  0.00  0.00    +0.304 C 
ATOM     22  C   LIG A   1      -5.912  -2.520   4.086  0.00  0.00    +0.136 C 
ATOM     23  O   LIG A   1      -4.909  -4.070   2.549  0.00  0.00    -0.251 OA
ENDBRANCH  20  21
ENDBRANCH  19  20
ENDBRANCH  10  19
ENDBRANCH   1   4
BRANCH   1  24
ATOM     24  C   LIG A   1       1.360   0.581   0.148  0.00  0.00    +0.298 C 
ATOM     25  O   LIG A   1       1.355   0.340  -1.265  0.00  0.00    -0.337 OA
ATOM     26  C   LIG A   1       2.589   0.650  -1.961  0.00  0.00    +0.203 C 
ATOM     27  C   LIG A   1       3.774  -0.230  -1.447  0.00  0.00    +0.253 C 
ATOM     28  C   LIG A   1       3.448  -0.905  -0.086  0.00  0.00    +0.265 C 
ATOM     29  C   LIG A   1       2.632   0.023   0.851  0.00  0.00    +0.276 C 
BRANCH  27  30
ATOM     30  O   LIG A   1       5.091   0.415  -1.289  0.00  0.00    -0.455 OA
BRANCH  30  31
ATOM     31  C   LIG A   1       5.572   1.223  -2.258  0.00  0.00    +0.304 C 
ATOM     32  C   LIG A   1       7.066   1.130  -2.416  0.00  0.00    +0.136 C 
ATOM     33  O   LIG A   1       4.878   1.910  -2.989  0.00  0.00    -0.251 OA
ENDBRANCH  30  31
ENDBRANCH  27  30
BRANCH  28  34
ATOM     34  O   LIG A   1       2.694  -2.135  -0.287  0.00  0.00    -0.454 OA
BRANCH  34  35
ATOM     35  C   LIG A   1       3.361  -3.217  -0.779  0.00  0.00    +0.304 C 
ATOM     36  C   LIG A   1       2.404  -4.346  -1.044  0.00  0.00    +0.136 C 
ATOM     37  O   LIG A   1       4.555  -3.253  -1.047  0.00  0.00    -0.251 OA
ENDBRANCH  34  35
ENDBRANCH  28  34
BRANCH  26  38
ATOM     38  C   LIG A   1       2.308   0.425  -3.492  0.00  0.00    +0.267 C 
BRANCH  38  39
ATOM     39  O   LIG A   1       1.800  -0.912  -3.701  0.00  0.00    -0.462 OA
BRANCH  39  40
ATOM     40  C   LIG A   1       0.705  -1.007  -4.511  0.00  0.00    +0.304 C 
ATOM     41  C   LIG A   1      -0.245  -2.016  -3.937  0.00  0.00    +0.136 C 
ATOM     42  O   LIG A   1       0.491  -0.344  -5.516  0.00  0.00    -0.251 OA
ENDBRANCH  39  40
ENDBRANCH  38  39
ENDBRANCH  26  38
BRANCH  29  43
ATOM     43  O   LIG A   1       3.458   1.141   1.272  0.00  0.00    -0.453 OA
BRANCH  43  44
ATOM     44  C   LIG A   1       2.982   1.861   2.342  0.00  0.00    +0.304 C 
ATOM     45  C   LIG A   1       3.564   3.246   2.290  0.00  0.00    +0.136 C 
ATOM     46  O   LIG A   1       2.123   1.507   3.112  0.00  0.00    -0.251 OA
ENDBRANCH  43  44
ENDBRANCH  29  43
ENDBRANCH   1  24
TORSDOF 18
