REMARK  Name = NuBBE_1623
REMARK  5 active torsions:
REMARK  status: ('A' for Active; 'I' for Inactive)
REMARK    1  A    between atoms: C_1  and  O_2
REMARK    2  A    between atoms: O_2  and  C_3
REMARK    3  A    between atoms: C_4  and  O_5
REMARK    4  A    between atoms: C_6  and  O_11
REMARK    5  A    between atoms: O_11  and  C_12
REMARK                            x       y       z     vdW  Elec       q    Type
REMARK                         _______ _______ _______ _____ _____    ______ ____
ROOT
ATOM      1  C   LIG A   1      -0.208   0.570   0.820  0.00  0.00    +0.208 A 
ATOM      2  C   LIG A   1      -0.588  -0.750   1.130  0.00  0.00    +0.205 A 
ATOM      3  C   LIG A   1      -0.297  -1.812   0.267  0.00  0.00    +0.166 A 
ATOM      4  C   LIG A   1       0.462  -1.560  -0.880  0.00  0.00    +0.061 A 
ATOM      5  C   LIG A   1       0.894  -0.266  -1.183  0.00  0.00    +0.025 A 
ATOM      6  C   LIG A   1       1.744  -0.011  -2.338  0.00  0.00    +0.019 A 
ATOM      7  C   LIG A   1       2.167   1.230  -2.592  0.00  0.00    +0.092 A 
ATOM      8  C   LIG A   1       0.539   0.792  -0.341  0.00  0.00    +0.184 A 
ATOM      9  O   LIG A   1       0.996   2.092  -0.646  0.00  0.00    -0.418 OA
ATOM     10  C   LIG A   1       1.787   2.370  -1.749  0.00  0.00    +0.337 A 
ATOM     11  O   LIG A   1       2.160   3.510  -2.019  0.00  0.00    -0.245 OA
ENDROOT
BRANCH   1  13
ATOM     12  C   LIG A   1      -0.831   2.819   1.299  0.00  0.00    +0.277 C 
ATOM     13  O   LIG A   1      -0.555   1.502   1.769  0.00  0.00    -0.488 OA
ENDBRANCH   1  13
BRANCH   2  14
ATOM     14  O   LIG A   1      -1.206  -0.974   2.336  0.00  0.00    -0.501 OA
ATOM     15  H   LIG A   1      -1.098  -0.144   2.840  0.00  0.00    +0.292 HD
ENDBRANCH   2  14
BRANCH   3  16
ATOM     16  O   LIG A   1      -0.610  -3.134   0.440  0.00  0.00    -0.491 OA
ATOM     17  C   LIG A   1      -1.810  -3.413   1.153  0.00  0.00    +0.277 C 
ENDBRANCH   3  16
TORSDOF 3
