REMARK  Name = NuBBE_1339
REMARK  4 active torsions:
REMARK  status: ('A' for Active; 'I' for Inactive)
REMARK    1  A    between atoms: C_6  and  C_7
REMARK    2  A    between atoms: C_10  and  C_11
REMARK    3  A    between atoms: C_11  and  C_12
REMARK    4  A    between atoms: C_11  and  C_13
REMARK                            x       y       z     vdW  Elec       q    Type
REMARK                         _______ _______ _______ _____ _____    ______ ____
ROOT
ATOM      1  C   LIG A   1      -3.614   0.633  -0.339  0.00  0.00    +0.013 C 
ATOM      2  C   LIG A   1      -2.292   0.639  -0.097  0.00  0.00    -0.047 C 
ATOM      3  C   LIG A   1      -1.429  -0.559  -0.241  0.00  0.00    -0.019 A 
ATOM      4  C   LIG A   1      -1.963  -1.856  -0.144  0.00  0.00    +0.009 A 
ATOM      5  C   LIG A   1      -1.166  -2.991  -0.313  0.00  0.00    +0.004 A 
ATOM      6  C   LIG A   1       0.192  -2.860  -0.591  0.00  0.00    -0.050 A 
ATOM      7  C   LIG A   1       1.065  -4.065  -0.776  0.00  0.00    +0.044 C 
ATOM      8  C   LIG A   1       0.743  -1.576  -0.661  0.00  0.00    +0.007 A 
ATOM      9  C   LIG A   1      -0.043  -0.419  -0.466  0.00  0.00    -0.036 A 
ATOM     10  C   LIG A   1       0.647   0.944  -0.529  0.00  0.00    +0.023 C 
ATOM     11  C   LIG A   1      -0.356   2.110  -0.622  0.00  0.00    +0.013 C 
ATOM     12  C   LIG A   1      -1.586   1.920   0.255  0.00  0.00    +0.036 C 
ENDROOT
BRANCH  10  13
ATOM     13  C   LIG A   1       1.745   1.112   0.572  0.00  0.00    -0.010 C 
ATOM     14  C   LIG A   1       2.692   2.278   0.258  0.00  0.00    +0.008 C 
ATOM     15  C   LIG A   1       1.207   1.259   1.996  0.00  0.00    +0.008 C 
ENDBRANCH  10  13
TORSDOF 1
