REMARK  Name = NuBBE_550
REMARK  5 active torsions:
REMARK  status: ('A' for Active; 'I' for Inactive)
REMARK    1  A    between atoms: C_1  and  O_2
REMARK    2  A    between atoms: O_2  and  C_3
REMARK    3  A    between atoms: C_6  and  C_7
REMARK    4  A    between atoms: C_7  and  C_8
REMARK    5  A    between atoms: C_7  and  O_21
REMARK                            x       y       z     vdW  Elec       q    Type
REMARK                         _______ _______ _______ _____ _____    ______ ____
ROOT
ATOM      1  C   LIG A   1      -1.740   1.191  -1.032  0.00  0.00    +0.134 C 
ATOM      2  C   LIG A   1      -1.484   0.985   0.462  0.00  0.00    -0.014 A 
ATOM      3  C   LIG A   1      -1.218  -0.302   0.965  0.00  0.00    +0.055 A 
ATOM      4  C   LIG A   1      -0.884  -0.428   2.296  0.00  0.00    +0.167 A 
ATOM      5  C   LIG A   1      -0.825   0.657   3.132  0.00  0.00    +0.167 A 
ATOM      6  C   LIG A   1      -1.135   1.929   2.698  0.00  0.00    +0.058 A 
ATOM      7  C   LIG A   1      -1.489   2.096   1.351  0.00  0.00    -0.015 A 
ATOM      8  C   LIG A   1      -1.926   3.412   0.871  0.00  0.00    +0.023 C 
ATOM      9  C   LIG A   1      -2.405   3.518  -0.382  0.00  0.00    +0.068 C 
ATOM     10  N   LIG A   1      -2.446   2.471  -1.260  0.00  0.00    -0.340 N 
ATOM     11  O   LIG A   1      -0.453   0.316   4.396  0.00  0.00    -0.453 OA
ATOM     12  C   LIG A   1      -0.260  -1.107   4.247  0.00  0.00    +0.466 C 
ATOM     13  O   LIG A   1      -0.571  -1.592   2.926  0.00  0.00    -0.453 OA
ATOM     14  H   LIG A   1      -2.692   2.691  -2.223  0.00  0.00    +0.146 HD
ENDROOT
BRANCH   1  15
ATOM     15  C   LIG A   1      -0.436   1.175  -1.914  0.00  0.00    +0.169 C 
BRANCH  15  19
ATOM     16  C   LIG A   1       1.862  -2.492  -1.668  0.00  0.00    +0.120 A 
ATOM     17  C   LIG A   1       2.381  -1.296  -1.178  0.00  0.00    +0.046 A 
ATOM     18  C   LIG A   1       1.646  -0.117  -1.265  0.00  0.00    +0.010 A 
ATOM     19  C   LIG A   1       0.371  -0.105  -1.842  0.00  0.00    -0.017 A 
ATOM     20  C   LIG A   1      -0.153  -1.314  -2.327  0.00  0.00    +0.010 A 
ATOM     21  C   LIG A   1       0.584  -2.500  -2.231  0.00  0.00    +0.046 A 
BRANCH  16  23
ATOM     22  C   LIG A   1       3.839  -3.651  -1.104  0.00  0.00    +0.277 C 
ATOM     23  O   LIG A   1       2.522  -3.693  -1.649  0.00  0.00    -0.495 OA
ENDBRANCH  16  23
ENDBRANCH  15  19
BRANCH  15  24
ATOM     24  O   LIG A   1       0.405   2.312  -1.645  0.00  0.00    -0.385 OA
ATOM     25  H   LIG A   1      -0.203   3.028  -1.388  0.00  0.00    +0.210 HD
ENDBRANCH  15  24
ENDBRANCH   1  15
TORSDOF 4
