@<TRIPOS>MOLECULE
NuBBE_1859
 47 49 0 0 0
SMALL
GASTEIGER

@<TRIPOS>ATOM
      1 O          -3.7718    3.6173    2.9766 O.3     1  LIG1       -0.5068
      2 C          -2.5501    3.1675    2.5696 C.ar    1  LIG1        0.1169
      3 C          -2.1687    3.2181    1.2322 C.ar    1  LIG1       -0.0199
      4 C          -0.9040    2.7511    0.8625 C.ar    1  LIG1       -0.0551
      5 C          -0.0215    2.2410    1.8292 C.ar    1  LIG1       -0.0471
      6 C          -0.4311    2.1891    3.1666 C.ar    1  LIG1       -0.0551
      7 C          -1.6940    2.6546    3.5343 C.ar    1  LIG1       -0.0199
      8 C           1.3460    1.7448    1.4272 C.3     1  LIG1       -0.0253
      9 C           1.3359    0.2674    1.0419 C.3     1  LIG1       -0.0226
     10 C           2.7153   -0.2879    0.6420 C.3     1  LIG1        0.0598
     11 H           3.3343   -0.2463    1.5475 H       1  LIG1        0.0596
     12 O           2.6427   -1.6820    0.3063 O.3     1  LIG1       -0.3688
     13 C           2.1652   -2.0358   -1.0010 C.3     1  LIG1        0.0840
     14 H           2.5272   -3.0597   -1.1641 H       1  LIG1        0.0646
     15 C           2.8220   -1.2034   -2.1167 C.3     1  LIG1       -0.0223
     16 C           2.8625    0.2875   -1.8074 C.3     1  LIG1       -0.0481
     17 C           3.4696    0.4985   -0.4333 C.3     1  LIG1       -0.0265
     18 C           0.6495   -2.1720   -1.0402 C.ar    1  LIG1       -0.0187
     19 C           0.0165   -3.1373   -0.2417 C.ar    1  LIG1       -0.0527
     20 C          -1.3740   -3.3048   -0.2787 C.ar    1  LIG1       -0.0196
     21 C          -2.1604   -2.4992   -1.1063 C.ar    1  LIG1        0.1201
     22 O          -3.5071   -2.7484   -1.0753 O.3     1  LIG1       -0.4951
     23 C          -4.3080   -1.9411   -1.9330 C.3     1  LIG1        0.0788
     24 C          -1.5442   -1.5311   -1.8871 C.ar    1  LIG1       -0.0196
     25 C          -0.1576   -1.3787   -1.8678 C.ar    1  LIG1       -0.0527
     26 H          -4.2557    3.9387    2.2003 H       1  LIG1        0.2921
     27 H          -2.8316    3.6143    0.4718 H       1  LIG1        0.0654
     28 H          -0.6092    2.7892   -0.1843 H       1  LIG1        0.0621
     29 H           0.2285    1.7883    3.9294 H       1  LIG1        0.0621
     30 H          -2.0082    2.6174    4.5746 H       1  LIG1        0.0654
     31 H           2.0587    1.9218    2.2453 H       1  LIG1        0.0314
     32 H           1.6891    2.3610    0.5879 H       1  LIG1        0.0314
     33 H           0.6100    0.1235    0.2400 H       1  LIG1        0.0293
     34 H           0.9576   -0.3358    1.8792 H       1  LIG1        0.0293
     35 H           2.3504   -1.3855   -3.0894 H       1  LIG1        0.0293
     36 H           3.8620   -1.5401   -2.2183 H       1  LIG1        0.0293
     37 H           1.8637    0.7331   -1.8446 H       1  LIG1        0.0267
     38 H           3.4625    0.8035   -2.5653 H       1  LIG1        0.0267
     39 H           3.5236    1.5655   -0.2000 H       1  LIG1        0.0290
     40 H           4.5072    0.1410   -0.4639 H       1  LIG1        0.0290
     41 H           0.6083   -3.7722    0.4158 H       1  LIG1        0.0622
     42 H          -1.8429   -4.0640    0.3391 H       1  LIG1        0.0654
     43 H          -5.3461   -2.2767   -1.8460 H       1  LIG1        0.0660
     44 H          -4.0108   -2.0582   -2.9806 H       1  LIG1        0.0660
     45 H          -4.2690   -0.8904   -1.6273 H       1  LIG1        0.0660
     46 H          -2.1080   -0.8699   -2.5381 H       1  LIG1        0.0654
     47 H           0.2655   -0.6139   -2.5091 H       1  LIG1        0.0622
@<TRIPOS>BOND
     1     1     2    1
     2     2     3   ar
     3     3     4   ar
     4     4     5   ar
     5     5     6   ar
     6     6     7   ar
     7     2     7   ar
     8     5     8    1
     9     8     9    1
    10     9    10    1
    11    10    11    1
    12    10    12    1
    13    12    13    1
    14    13    15    1
    15    15    16    1
    16    16    17    1
    17    10    17    1
    18    18    19   ar
    19    19    20   ar
    20    20    21   ar
    21    21    22    1
    22    22    23    1
    23    21    24   ar
    24    24    25   ar
    25    18    25   ar
    26    13    18    1
    27    13    14    1
    28     1    26    1
    29     3    27    1
    30     4    28    1
    31     6    29    1
    32     7    30    1
    33     8    31    1
    34     8    32    1
    35     9    33    1
    36     9    34    1
    37    15    35    1
    38    15    36    1
    39    16    37    1
    40    16    38    1
    41    17    39    1
    42    17    40    1
    43    19    41    1
    44    20    42    1
    45    23    43    1
    46    23    44    1
    47    23    45    1
    48    24    46    1
    49    25    47    1
