@<TRIPOS>MOLECULE
NuBBE_1210
 82 86 0 0 0
SMALL
GASTEIGER

@<TRIPOS>ATOM
      1 O          -4.3362    1.5814   -1.0688 O.3     1  LIG1       -0.3912
      2 C          -3.4542    2.0813   -0.0637 C.3     1  LIG1        0.0606
      3 H          -3.9992    2.8800    0.4566 H       1  LIG1        0.0599
      4 C          -3.1470    0.9693    0.9258 C.3     1  LIG1       -0.0258
      5 C          -2.3562    1.5539    2.0768 C.3     1  LIG1       -0.0442
      6 C          -1.0190    2.1230    1.6178 C.3     1  LIG1       -0.0193
      7 C          -0.1209    2.5493    2.7665 C.3     1  LIG1       -0.0401
      8 C           0.3011    1.3768    1.9040 C.3     1  LIG1       -0.0194
      9 C           0.1905    0.0053    2.5219 C.3     1  LIG1       -0.0460
     10 C           1.5217   -0.6097    2.9093 C.3     1  LIG1       -0.0463
     11 C           2.5972   -0.6150    1.8202 C.3     1  LIG1       -0.0233
     12 C           2.7615    0.8449    1.2402 C.3     1  LIG1       -0.0231
     13 C           3.6334    0.5832   -0.0043 C.3     1  LIG1       -0.0466
     14 C           3.2400   -0.7923   -0.5411 C.3     1  LIG1       -0.0489
     15 C           2.4549   -1.5607    0.5591 C.3     1  LIG1       -0.0322
     16 H           3.0332   -2.4734    0.7682 H       1  LIG1        0.0309
     17 C           1.0940   -2.1265    0.0230 C.3     1  LIG1       -0.0371
     18 H           0.4587   -1.2852   -0.2797 H       1  LIG1        0.0304
     19 C           0.3276   -2.9964    1.0365 C.3     1  LIG1       -0.0619
     20 C           1.3396   -3.0284   -1.2358 C.3     1  LIG1       -0.0318
     21 C           0.0842   -3.6071   -1.8272 C.2     1  LIG1       -0.0850
     22 C          -0.5618   -3.0413   -2.8723 C.2     1  LIG1       -0.0573
     23 C          -1.8521   -3.5026   -3.5219 C.3     1  LIG1        0.0786
     24 C          -2.7234   -2.2935   -3.8713 C.3     1  LIG1       -0.0327
     25 O          -1.4948   -4.1367   -4.7505 O.3     1  LIG1       -0.3851
     26 C          -2.6775   -4.4979   -2.6958 C.3     1  LIG1       -0.0327
     27 C           3.5278    1.7850    2.2014 C.3     1  LIG1       -0.0588
     28 C           3.8967   -1.1149    2.5426 C.3     1  LIG1       -0.0588
     29 C           1.3774    1.5009    0.8218 C.3     1  LIG1       -0.0289
     30 C           1.5120    2.9751    0.3848 C.3     1  LIG1       -0.0489
     31 C           0.2213    3.5896   -0.1559 C.3     1  LIG1       -0.0488
     32 C          -1.1327    3.1099    0.4322 C.3     1  LIG1       -0.0273
     33 C          -2.1597    2.6696   -0.6949 C.3     1  LIG1       -0.0056
     34 C          -1.5515    1.6521   -1.6922 C.3     1  LIG1       -0.0572
     35 C          -2.5845    3.9224   -1.5072 C.3     1  LIG1       -0.0572
     36 H          -5.1418    1.2659   -0.6250 H       1  LIG1        0.2098
     37 H          -2.6023    0.1491    0.4428 H       1  LIG1        0.0290
     38 H          -4.0800    0.5281    1.2964 H       1  LIG1        0.0290
     39 H          -2.2466    0.7832    2.8442 H       1  LIG1        0.0272
     40 H          -2.9341    2.3573    2.5514 H       1  LIG1        0.0272
     41 H          -0.4530    2.3525    3.7834 H       1  LIG1        0.0276
     42 H           0.3814    3.5069    2.7131 H       1  LIG1        0.0276
     43 H          -0.3756   -0.6148    1.8285 H       1  LIG1        0.0271
     44 H          -0.3977    0.0409    3.4473 H       1  LIG1        0.0271
     45 H           1.3802   -1.6164    3.3169 H       1  LIG1        0.0271
     46 H           1.8962   -0.0299    3.7655 H       1  LIG1        0.0271
     47 H           4.7006    0.5799    0.2497 H       1  LIG1        0.0271
     48 H           3.5138    1.3420   -0.7837 H       1  LIG1        0.0271
     49 H           4.1459   -1.3495   -0.8131 H       1  LIG1        0.0268
     50 H           2.6605   -0.6537   -1.4577 H       1  LIG1        0.0268
     51 H           0.8348   -3.9503    1.2069 H       1  LIG1        0.0233
     52 H          -0.6846   -3.2047    0.6707 H       1  LIG1        0.0233
     53 H           0.1838   -2.5480    2.0108 H       1  LIG1        0.0233
     54 H           1.9852   -3.8757   -0.9506 H       1  LIG1        0.0310
     55 H           1.8859   -2.4972   -2.0158 H       1  LIG1        0.0310
     56 H          -0.2916   -4.5156   -1.3864 H       1  LIG1        0.0570
     57 H          -0.1377   -2.1442   -3.3074 H       1  LIG1        0.0597
     58 H          -2.1804   -1.5864   -4.5100 H       1  LIG1        0.0260
     59 H          -3.0590   -1.7614   -2.9753 H       1  LIG1        0.0260
     60 H          -3.6059   -2.6012   -4.4453 H       1  LIG1        0.0260
     61 H          -0.7819   -4.7661   -4.5475 H       1  LIG1        0.2106
     62 H          -2.9779   -4.0695   -1.7327 H       1  LIG1        0.0260
     63 H          -2.1258   -5.4266   -2.5100 H       1  LIG1        0.0260
     64 H          -3.5845   -4.7922   -3.2359 H       1  LIG1        0.0260
     65 H           4.5019    1.3790    2.4917 H       1  LIG1        0.0235
     66 H           2.9591    1.9750    3.1167 H       1  LIG1        0.0235
     67 H           3.7560    2.7476    1.7340 H       1  LIG1        0.0235
     68 H           4.1099   -0.5492    3.4554 H       1  LIG1        0.0235
     69 H           4.7806   -1.0592    1.8986 H       1  LIG1        0.0235
     70 H           3.7852   -2.1627    2.8493 H       1  LIG1        0.0235
     71 H           1.0044    0.9456   -0.0473 H       1  LIG1        0.0312
     72 H           2.2865    3.0843   -0.3819 H       1  LIG1        0.0268
     73 H           1.8489    3.5994    1.2196 H       1  LIG1        0.0268
     74 H           0.2463    3.4808   -1.2426 H       1  LIG1        0.0268
     75 H           0.2848    4.6776   -0.0115 H       1  LIG1        0.0268
     76 H          -1.5825    4.0037    0.8935 H       1  LIG1        0.0312
     77 H          -1.1017    0.7989   -1.1783 H       1  LIG1        0.0236
     78 H          -0.7845    2.1011   -2.3303 H       1  LIG1        0.0236
     79 H          -2.3082    1.2626   -2.3826 H       1  LIG1        0.0236
     80 H          -1.7303    4.4153   -1.9814 H       1  LIG1        0.0236
     81 H          -3.0716    4.6614   -0.8593 H       1  LIG1        0.0236
     82 H          -3.2947    3.6651   -2.3010 H       1  LIG1        0.0236
@<TRIPOS>BOND
     1     1     2    1
     2     2     3    1
     3     2     4    1
     4     4     5    1
     5     5     6    1
     6     6     7    1
     7     7     8    1
     8     8     9    1
     9     9    10    1
    10    10    11    1
    11    11    12    1
    12    12    13    1
    13    13    14    1
    14    14    15    1
    15    17    20    1
    16    20    21    1
    17    21    22    2
    18    22    23    1
    19    23    24    1
    20    23    25    1
    21    23    26    1
    22    12    27    1
    23    15    11    1
    24    11    28    1
    25     6     8    1
    26     8    29    1
    27    12    29    1
    28    29    30    1
    29    30    31    1
    30    31    32    1
    31     6    32    1
    32    32    33    1
    33    33    34    1
    34     2    33    1
    35    33    35    1
    36    15    17    1
    37    15    16    1
    38    17    19    1
    39    17    18    1
    40     1    36    1
    41     4    37    1
    42     4    38    1
    43     5    39    1
    44     5    40    1
    45     7    41    1
    46     7    42    1
    47     9    43    1
    48     9    44    1
    49    10    45    1
    50    10    46    1
    51    13    47    1
    52    13    48    1
    53    14    49    1
    54    14    50    1
    55    19    51    1
    56    19    52    1
    57    19    53    1
    58    20    54    1
    59    20    55    1
    60    21    56    1
    61    22    57    1
    62    24    58    1
    63    24    59    1
    64    24    60    1
    65    25    61    1
    66    26    62    1
    67    26    63    1
    68    26    64    1
    69    27    65    1
    70    27    66    1
    71    27    67    1
    72    28    68    1
    73    28    69    1
    74    28    70    1
    75    29    71    1
    76    30    72    1
    77    30    73    1
    78    31    74    1
    79    31    75    1
    80    32    76    1
    81    34    77    1
    82    34    78    1
    83    34    79    1
    84    35    80    1
    85    35    81    1
    86    35    82    1
