@<TRIPOS>MOLECULE
NuBBE_637
 89 91 0 0 0
SMALL
GASTEIGER

@<TRIPOS>ATOM
      1 O          -0.1909    2.4169    3.6430 O.3     1  LIG1       -0.3877
      2 C           0.3486    1.7635    2.5046 C.3     1  LIG1        0.0741
      3 H          -0.4672    1.5886    1.7976 H       1  LIG1        0.0638
      4 C           1.3918    2.6328    1.9027 C.2     1  LIG1       -0.0511
      5 C           2.3609    2.0797    1.1585 C.2     1  LIG1       -0.0009
      6 C           3.6405    2.7555    0.7293 C.3     1  LIG1        0.1859
      7 H           3.4811    3.5168   -0.0405 H       1  LIG1        0.0962
      8 O           4.2246    3.3092    1.9059 O.3     1  LIG1       -0.3505
      9 C           5.4490    3.9762    1.6474 C.3     1  LIG1        0.0398
     10 O           4.4370    1.6822    0.2120 O.3     1  LIG1       -0.3076
     11 C           3.9706    0.5476    0.9448 C.3     1  LIG1        0.2196
     12 H           4.1778    0.7287    2.0163 H       1  LIG1        0.1068
     13 O           4.6668   -0.6527    0.6486 O.3     1  LIG1       -0.4341
     14 C           5.9092   -0.5980    1.2510 C.2     1  LIG1        0.3061
     15 C           6.3039   -1.9455    1.7708 C.3     1  LIG1        0.0333
     16 O           6.5431    0.3994    1.5115 O.2     1  LIG1       -0.2511
     17 C           2.4198    0.5758    0.7945 C.3     1  LIG1        0.0915
     18 C           1.7582    0.5299   -0.6060 C.3     1  LIG1        0.1077
     19 H           0.8701    1.1712   -0.5178 H       1  LIG1        0.0641
     20 O           2.5237    1.2044   -1.6136 O.3     1  LIG1       -0.3870
     21 C           1.2068   -0.7917   -1.1702 C.3     1  LIG1        0.1332
     22 H           1.7769   -1.1045   -2.0531 H       1  LIG1        0.0763
     23 O          -0.1578   -0.5209   -1.6496 O.3     1  LIG1       -0.4553
     24 C          -0.2626    0.0859   -2.8555 C.2     1  LIG1        0.3323
     25 C          -1.6657    0.3983   -3.1373 C.2     1  LIG1        0.0225
     26 C          -1.9641    1.3248   -4.0666 C.2     1  LIG1       -0.0553
     27 C          -3.2946    1.6830   -4.4808 C.2     1  LIG1       -0.0655
     28 C          -4.3626    1.7156   -3.6735 C.2     1  LIG1       -0.0840
     29 C          -5.7044    2.1683   -4.1458 C.3     1  LIG1       -0.0345
     30 C          -6.5430    0.9957   -4.6515 C.3     1  LIG1       -0.0496
     31 C          -7.9146    1.4501   -5.1542 C.3     1  LIG1       -0.0530
     32 C          -8.7443    2.1111   -4.0528 C.3     1  LIG1       -0.0559
     33 C         -10.0998    2.5722   -4.5521 C.3     1  LIG1       -0.0653
     34 O           0.6628    0.3183   -3.6387 O.2     1  LIG1       -0.2456
     35 C           1.1159   -1.9772   -0.1921 C.3     1  LIG1        0.0015
     36 H           0.2506   -2.5751   -0.5229 H       1  LIG1        0.0340
     37 C           2.2953   -2.9432   -0.4115 C.3     1  LIG1       -0.0585
     38 C           0.8367   -1.5887    1.3166 C.3     1  LIG1       -0.0218
     39 C          -0.6915   -1.3262    1.4223 C.3     1  LIG1       -0.0589
     40 C           1.1459   -2.8606    2.2087 C.3     1  LIG1       -0.0430
     41 C           1.0197   -2.7420    3.7357 C.3     1  LIG1       -0.0277
     42 C           1.4559   -4.0141    4.4422 C.2     1  LIG1       -0.0550
     43 C           2.8467   -4.1855    4.8353 C.2     1  LIG1       -0.0662
     44 C           3.9031   -3.6243    4.2372 C.2     1  LIG1       -0.0985
     45 C           0.5578   -4.9565    4.7712 C.2     1  LIG1       -0.0955
     46 C           1.7113   -0.3621    1.8407 C.3     1  LIG1       -0.0149
     47 H           2.5492   -0.8545    2.3553 H       1  LIG1        0.0318
     48 C           1.0126    0.4630    2.9688 C.3     1  LIG1       -0.0188
     49 H          -0.6627    3.2045    3.3229 H       1  LIG1        0.2102
     50 H           1.4437    3.6839    2.1697 H       1  LIG1        0.0599
     51 H           5.8639    4.3048    2.6054 H       1  LIG1        0.0525
     52 H           5.2735    4.8587    1.0265 H       1  LIG1        0.0525
     53 H           6.1762    3.3125    1.1712 H       1  LIG1        0.0525
     54 H           6.2700   -2.7195    1.0038 H       1  LIG1        0.0342
     55 H           5.6459   -2.1869    2.6066 H       1  LIG1        0.0342
     56 H           7.3225   -1.8812    2.1710 H       1  LIG1        0.0342
     57 H           3.3746    0.7482   -1.7405 H       1  LIG1        0.2100
     58 H          -2.4235   -0.1469   -2.5907 H       1  LIG1        0.0689
     59 H          -1.1681    1.8440   -4.6012 H       1  LIG1        0.0620
     60 H          -3.4019    1.9842   -5.5229 H       1  LIG1        0.0615
     61 H          -4.2869    1.4395   -2.6249 H       1  LIG1        0.0572
     62 H          -5.6003    2.9214   -4.9366 H       1  LIG1        0.0307
     63 H          -6.1878    2.6686   -3.3008 H       1  LIG1        0.0307
     64 H          -6.6650    0.2463   -3.8593 H       1  LIG1        0.0268
     65 H          -6.0164    0.4955   -5.4756 H       1  LIG1        0.0268
     66 H          -8.4510    0.5776   -5.5464 H       1  LIG1        0.0265
     67 H          -7.7809    2.1443   -5.9931 H       1  LIG1        0.0265
     68 H          -8.2269    2.9886   -3.6531 H       1  LIG1        0.0263
     69 H          -8.8776    1.4069   -3.2237 H       1  LIG1        0.0263
     70 H          -9.9904    3.3163   -5.3476 H       1  LIG1        0.0230
     71 H         -10.6567    3.0352   -3.7312 H       1  LIG1        0.0230
     72 H         -10.6851    1.7323   -4.9352 H       1  LIG1        0.0230
     73 H           2.5510   -3.0443   -1.4710 H       1  LIG1        0.0234
     74 H           2.0186   -3.9540   -0.0828 H       1  LIG1        0.0234
     75 H           3.1906   -2.6397    0.1309 H       1  LIG1        0.0234
     76 H          -1.2625   -2.1548    0.9843 H       1  LIG1        0.0235
     77 H          -0.9851   -0.4152    0.8965 H       1  LIG1        0.0235
     78 H          -1.0450   -1.2519    2.4538 H       1  LIG1        0.0235
     79 H           2.1760   -3.1669    2.0128 H       1  LIG1        0.0274
     80 H           0.5180   -3.6952    1.8680 H       1  LIG1        0.0274
     81 H          -0.0161   -2.5103    4.0078 H       1  LIG1        0.0313
     82 H           1.6233   -1.9145    4.1238 H       1  LIG1        0.0313
     83 H           3.0374   -4.8424    5.6831 H       1  LIG1        0.0614
     84 H           3.8016   -2.9917    3.3668 H       1  LIG1        0.0535
     85 H           4.9110   -3.8134    4.5920 H       1  LIG1        0.0535
     86 H          -0.4892   -4.8546    4.5039 H       1  LIG1        0.0537
     87 H           0.8443   -5.8683    5.2866 H       1  LIG1        0.0537
     88 H           1.7808    0.7197    3.7154 H       1  LIG1        0.0296
     89 H           0.2952   -0.1230    3.5472 H       1  LIG1        0.0296
@<TRIPOS>BOND
     1     2     4    1
     2     4     5    2
     3     5     6    1
     4     6     7    1
     5     6     8    1
     6     8     9    1
     7     6    10    1
     8    10    11    1
     9    11    12    1
    10    11    13    1
    11    13    14    1
    12    14    15    1
    13    14    16    2
    14     5    17    1
    15    11    17    1
    16    17    18    1
    17    18    21    1
    18    21    22    1
    19    21    23    1
    20    23    24    1
    21    24    25    1
    22    25    26    2
    23    26    27    1
    24    27    28    2
    25    28    29    1
    26    29    30    1
    27    30    31    1
    28    31    32    1
    29    32    33    1
    30    24    34    2
    31    21    35    1
    32    35    36    1
    33    35    37    1
    34    35    38    1
    35    38    39    1
    36    38    40    1
    37    40    41    1
    38    41    42    1
    39    42    43    1
    40    43    44    2
    41    42    45    2
    42    17    46    1
    43    38    46    1
    44    46    47    1
    45    46    48    1
    46     2    48    1
    47     2     3    1
    48     2     1    1
    49    18    20    1
    50    18    19    1
    51     1    49    1
    52     4    50    1
    53     9    51    1
    54     9    52    1
    55     9    53    1
    56    15    54    1
    57    15    55    1
    58    15    56    1
    59    20    57    1
    60    25    58    1
    61    26    59    1
    62    27    60    1
    63    28    61    1
    64    29    62    1
    65    29    63    1
    66    30    64    1
    67    30    65    1
    68    31    66    1
    69    31    67    1
    70    32    68    1
    71    32    69    1
    72    33    70    1
    73    33    71    1
    74    33    72    1
    75    37    73    1
    76    37    74    1
    77    37    75    1
    78    39    76    1
    79    39    77    1
    80    39    78    1
    81    40    79    1
    82    40    80    1
    83    41    81    1
    84    41    82    1
    85    43    83    1
    86    44    84    1
    87    44    85    1
    88    45    86    1
    89    45    87    1
    90    48    88    1
    91    48    89    1
