REMARK  Name = NuBBE_1131
REMARK  13 active torsions:
REMARK  status: ('A' for Active; 'I' for Inactive)
REMARK    1  A    between atoms: C_1  and  C_2
REMARK    2  A    between atoms: C_3  and  C_25
REMARK    3  A    between atoms: C_7  and  C_24
REMARK    4  A    between atoms: C_12  and  C_13
REMARK    5  A    between atoms: C_12  and  C_23
REMARK    6  A    between atoms: C_25  and  C_27
REMARK    7  A    between atoms: C_25  and  C_28
REMARK    8  A    between atoms: C_28  and  C_29
REMARK    9  A    between atoms: C_29  and  C_30
REMARK   10  A    between atoms: C_30  and  C_31
REMARK   11  A    between atoms: C_31  and  C_32
REMARK   12  A    between atoms: C_31  and  C_33
REMARK   13  A    between atoms: C_33  and  O_34
REMARK                            x       y       z     vdW  Elec       q    Type
REMARK                         _______ _______ _______ _____ _____    ______ ____
ROOT
ATOM      1  C   LIG A   1      -3.461   1.098  -0.834  0.00  0.00    +0.012 C 
ATOM      2  C   LIG A   1      -2.042   0.478  -0.662  0.00  0.00    -0.023 C 
ATOM      3  C   LIG A   1      -1.172   1.609   0.093  0.00  0.00    -0.002 C 
ATOM      4  C   LIG A   1      -0.132   2.073  -0.948  0.00  0.00    +0.005 C 
ATOM      5  C   LIG A   1      -0.691   1.662  -2.302  0.00  0.00    +0.008 C 
ATOM      6  C   LIG A   1      -1.326   0.271  -2.070  0.00  0.00    -0.023 C 
ATOM      7  C   LIG A   1      -0.188  -0.819  -1.979  0.00  0.00    +0.002 C 
ATOM      8  C   LIG A   1       0.466  -1.186  -3.321  0.00  0.00    +0.005 C 
ATOM      9  C   LIG A   1       1.690  -2.069  -3.074  0.00  0.00    +0.005 C 
ATOM     10  C   LIG A   1       1.273  -3.454  -2.557  0.00  0.00    +0.009 C 
ATOM     11  C   LIG A   1       2.458  -4.397  -2.181  0.00  0.00    +0.027 C 
ATOM     12  C   LIG A   1       3.353  -4.638  -3.410  0.00  0.00    +0.019 C 
ATOM     13  C   LIG A   1       1.867  -5.742  -1.717  0.00  0.00    +0.139 C 
ATOM     14  C   LIG A   1       0.699  -5.737  -0.754  0.00  0.00    +0.075 C 
ATOM     15  C   LIG A   1      -0.383  -4.769  -1.209  0.00  0.00    +0.015 C 
ATOM     16  C   LIG A   1       0.221  -3.400  -1.442  0.00  0.00    -0.019 C 
ATOM     17  C   LIG A   1       0.448  -2.560  -0.212  0.00  0.00    +0.015 C 
ATOM     18  C   LIG A   1      -0.586  -2.098  -1.226  0.00  0.00    -0.019 C 
ATOM     19  C   LIG A   1      -2.017  -2.116  -0.750  0.00  0.00    +0.008 C 
ATOM     20  C   LIG A   1      -2.254  -0.864   0.087  0.00  0.00    +0.008 C 
ATOM     21  O   LIG A   1       2.401  -6.829  -2.019  0.00  0.00    -0.297 OA
ATOM     22  C   LIG A   1       3.353  -3.869  -1.044  0.00  0.00    +0.019 C 
ATOM     23  C   LIG A   1      -2.275  -0.004  -3.263  0.00  0.00    +0.012 C 
ENDROOT
BRANCH   3  24
ATOM     24  C   LIG A   1      -0.533   1.368   1.505  0.00  0.00    -0.010 C 
ATOM     25  C   LIG A   1      -1.581   1.025   2.580  0.00  0.00    +0.008 C 
BRANCH  24  26
ATOM     26  C   LIG A   1       0.335   2.569   2.037  0.00  0.00    +0.008 C 
BRANCH  26  27
ATOM     27  C   LIG A   1      -0.411   3.905   2.247  0.00  0.00    +0.031 C 
BRANCH  27  28
ATOM     28  C   LIG A   1       0.430   5.046   2.817  0.00  0.00    -0.072 C 
ATOM     29  C   LIG A   1       1.042   5.915   1.988  0.00  0.00    +0.008 C 
BRANCH  28  30
ATOM     30  C   LIG A   1       0.506   5.278   4.332  0.00  0.00    +0.037 C 
ATOM     31  C   LIG A   1      -0.864   5.533   4.977  0.00  0.00    +0.014 C 
BRANCH  30  32
ATOM     32  C   LIG A   1       1.246   4.155   5.071  0.00  0.00    +0.163 C 
BRANCH  32  33
ATOM     33  O   LIG A   1       1.325   4.442   6.465  0.00  0.00    -0.394 OA
ATOM     34  H   LIG A   1       1.537   3.606   6.915  0.00  0.00    +0.209 HD
ENDBRANCH  32  33
ENDBRANCH  30  32
ENDBRANCH  28  30
ENDBRANCH  27  28
ENDBRANCH  26  27
ENDBRANCH  24  26
ENDBRANCH   3  24
TORSDOF 7
