REMARK  Name = NuBBE_239
REMARK  20 active torsions:
REMARK  status: ('A' for Active; 'I' for Inactive)
REMARK    1  A    between atoms: C_1  and  C_2
REMARK    2  A    between atoms: C_7  and  O_9
REMARK    3  A    between atoms: C_12  and  O_14
REMARK    4  A    between atoms: O_14  and  C_15
REMARK    5  A    between atoms: C_15  and  C_16
REMARK    6  A    between atoms: C_19  and  O_21
REMARK    7  A    between atoms: O_21  and  C_22
REMARK    8  A    between atoms: C_22  and  C_23
REMARK    9  A    between atoms: C_26  and  O_28
REMARK   10  A    between atoms: O_28  and  C_29
REMARK   11  A    between atoms: C_29  and  C_30
REMARK   12  A    between atoms: C_30  and  C_31
REMARK   13  A    between atoms: C_31  and  C_32
REMARK   14  A    between atoms: C_32  and  C_33
REMARK   15  A    between atoms: C_33  and  C_34
REMARK   16  A    between atoms: C_39  and  C_40
REMARK   17  A    between atoms: C_39  and  C_41
REMARK   18  A    between atoms: C_41  and  C_42
REMARK   19  A    between atoms: C_43  and  C_44
REMARK   20  A    between atoms: C_43  and  C_46
REMARK                            x       y       z     vdW  Elec       q    Type
REMARK                         _______ _______ _______ _____ _____    ______ ____
ROOT
ATOM      1  C   LIG A   1       0.130   2.530   3.310  0.00  0.00    +0.008 C 
ATOM      2  C   LIG A   1       0.308   1.669   2.055  0.00  0.00    -0.005 C 
ATOM      3  C   LIG A   1       1.452   0.658   2.234  0.00  0.00    +0.036 C 
ATOM      4  C   LIG A   1       1.744  -0.270   1.035  0.00  0.00    +0.131 C 
ATOM      5  C   LIG A   1       1.296   0.166  -0.413  0.00  0.00    +0.089 C 
ATOM      6  C   LIG A   1       0.798  -1.107  -1.071  0.00  0.00    +0.012 C 
ATOM      7  C   LIG A   1       1.996  -1.878  -1.546  0.00  0.00    +0.343 C 
ATOM      8  O   LIG A   1       3.012  -0.883  -1.780  0.00  0.00    -0.297 OA
ATOM      9  C   LIG A   1       2.459   0.405  -1.444  0.00  0.00    +0.327 C 
ATOM     10  C   LIG A   1      -0.486  -1.452  -1.202  0.00  0.00    +0.023 C 
ATOM     11  C   LIG A   1      -1.639  -0.668  -0.715  0.00  0.00    +0.200 C 
ATOM     12  C   LIG A   1      -1.286   0.801  -0.425  0.00  0.00    +0.054 C 
ATOM     13  C   LIG A   1       0.223   1.304  -0.412  0.00  0.00    +0.018 C 
ATOM     14  C   LIG A   1       0.475   2.426   0.705  0.00  0.00    -0.022 C 
ATOM     15  C   LIG A   1      -0.588   3.544   0.483  0.00  0.00    +0.012 C 
ENDROOT
BRANCH   4  16
ATOM     16  O   LIG A   1       3.109  -0.711   1.090  0.00  0.00    -0.391 OA
ATOM     17  H   LIG A   1       3.708   0.043   1.231  0.00  0.00    +0.210 HD
ENDBRANCH   4  16
BRANCH   7  18
ATOM     18  O   LIG A   1       1.761  -2.646  -2.728  0.00  0.00    -0.431 OA
BRANCH  18  19
ATOM     19  C   LIG A   1       1.177  -3.858  -2.502  0.00  0.00    +0.306 C 
ATOM     20  C   LIG A   1       1.444  -4.779  -3.649  0.00  0.00    +0.136 C 
ATOM     21  O   LIG A   1       0.595  -4.212  -1.493  0.00  0.00    -0.251 OA
ENDBRANCH  18  19
ENDBRANCH   7  18
BRANCH   9  22
ATOM     22  O   LIG A   1       1.946   0.963  -2.676  0.00  0.00    -0.434 OA
BRANCH  22  23
ATOM     23  C   LIG A   1       2.788   1.703  -3.443  0.00  0.00    +0.306 C 
ATOM     24  C   LIG A   1       2.239   1.813  -4.842  0.00  0.00    +0.136 C 
ATOM     25  O   LIG A   1       3.833   2.212  -3.074  0.00  0.00    -0.251 OA
ENDBRANCH  22  23
ENDBRANCH   9  22
BRANCH  11  26
ATOM     26  O   LIG A   1      -2.240  -1.347   0.426  0.00  0.00    -0.457 OA
BRANCH  26  27
ATOM     27  C   LIG A   1      -3.116  -2.351   0.106  0.00  0.00    +0.308 C 
ATOM     28  O   LIG A   1      -3.395  -2.642  -1.065  0.00  0.00    -0.251 OA
BRANCH  27  29
ATOM     29  C   LIG A   1      -3.773  -3.015   1.285  0.00  0.00    +0.120 C 
BRANCH  29  30
ATOM     30  C   LIG A   1      -4.213  -4.483   1.037  0.00  0.00    +0.011 C 
BRANCH  30  31
ATOM     31  C   LIG A   1      -5.272  -4.735  -0.059  0.00  0.00    +0.000 C 
BRANCH  31  32
ATOM     32  C   LIG A   1      -6.612  -4.079   0.272  0.00  0.00    -0.003 C 
ATOM     33  C   LIG A   1      -7.684  -4.276  -0.789  0.00  0.00    +0.004 C 
ENDBRANCH  31  32
ENDBRANCH  30  31
ENDBRANCH  29  30
ENDBRANCH  27  29
ENDBRANCH  26  27
ENDBRANCH  11  26
BRANCH  14  34
ATOM     34  C   LIG A   1       1.910   3.105   0.562  0.00  0.00    +0.034 C 
BRANCH  34  35
ATOM     35  C   LIG A   1       2.270   4.202   1.550  0.00  0.00    -0.023 C 
ATOM     36  C   LIG A   1       3.472   4.558   2.052  0.00  0.00    -0.055 C 
ATOM     37  C   LIG A   1       3.574   5.747   2.984  0.00  0.00    +0.043 C 
BRANCH  36  38
ATOM     38  C   LIG A   1       4.729   3.931   1.686  0.00  0.00    -0.005 C 
ATOM     39  C   LIG A   1       5.598   3.412   2.565  0.00  0.00    +0.008 C 
ENDBRANCH  36  38
ENDBRANCH  34  35
ENDBRANCH  14  34
TORSDOF 14
