REMARK  Name = NuBBE_1649
REMARK  19 active torsions:
REMARK  status: ('A' for Active; 'I' for Inactive)
REMARK    1  A    between atoms: C_1  and  C_2
REMARK    2  A    between atoms: C_1  and  C_17
REMARK    3  A    between atoms: C_2  and  C_3
REMARK    4  A    between atoms: C_3  and  C_4
REMARK    5  A    between atoms: C_4  and  C_5
REMARK    6  A    between atoms: C_5  and  C_6
REMARK    7  A    between atoms: C_6  and  C_7
REMARK    8  A    between atoms: C_8  and  C_9
REMARK    9  A    between atoms: C_9  and  C_10
REMARK   10  A    between atoms: C_10  and  C_11
REMARK   11  A    between atoms: C_11  and  C_12
REMARK   12  A    between atoms: C_12  and  C_13
REMARK   13  A    between atoms: C_13  and  C_14
REMARK   14  A    between atoms: C_14  and  C_15
REMARK   15  A    between atoms: C_15  and  C_16
REMARK   16  A    between atoms: C_17  and  C_18
REMARK   17  A    between atoms: C_18  and  O_20
REMARK   18  A    between atoms: O_20  and  C_21
REMARK   19  A    between atoms: C_21  and  C_22
REMARK                            x       y       z     vdW  Elec       q    Type
REMARK                         _______ _______ _______ _____ _____    ______ ____
ROOT
ATOM      1  C   LIG A   1      -1.211   1.095  -1.386  0.00  0.00    +0.004 C 
ENDROOT
BRANCH   1   2
ATOM      2  C   LIG A   1      -2.424   0.714  -0.552  0.00  0.00    +0.027 C 
BRANCH   2   3
ATOM      3  C   LIG A   1      -2.425   1.209   0.863  0.00  0.00    -0.031 C 
ATOM      4  C   LIG A   1      -2.338   0.531   2.016  0.00  0.00    -0.031 C 
BRANCH   4   5
ATOM      5  C   LIG A   1      -2.148  -0.944   2.149  0.00  0.00    +0.027 C 
BRANCH   5   6
ATOM      6  C   LIG A   1      -2.230  -1.442   3.602  0.00  0.00    +0.004 C 
BRANCH   6   7
ATOM      7  C   LIG A   1      -2.014  -2.973   3.705  0.00  0.00    +0.000 C 
BRANCH   7   8
ATOM      8  C   LIG A   1      -0.620  -3.404   3.169  0.00  0.00    +0.000 C 
BRANCH   8   9
ATOM      9  C   LIG A   1      -0.267  -4.903   3.239  0.00  0.00    -0.000 C 
BRANCH   9  10
ATOM     10  C   LIG A   1       1.123  -5.314   2.660  0.00  0.00    -0.000 C 
BRANCH  10  11
ATOM     11  C   LIG A   1       1.274  -5.347   1.127  0.00  0.00    -0.003 C 
ATOM     12  C   LIG A   1       2.672  -5.783   0.662  0.00  0.00    +0.004 C 
ENDBRANCH  10  11
ENDBRANCH   9  10
ENDBRANCH   8   9
ENDBRANCH   7   8
ENDBRANCH   6   7
ENDBRANCH   5   6
ENDBRANCH   4   5
ENDBRANCH   2   3
ENDBRANCH   1   2
BRANCH   1  13
ATOM     13  C   LIG A   1      -0.970   2.590  -1.576  0.00  0.00    +0.000 C 
BRANCH  13  14
ATOM     14  C   LIG A   1      -0.588   3.511  -0.440  0.00  0.00    +0.000 C 
BRANCH  14  15
ATOM     15  C   LIG A   1      -0.429   4.985  -0.825  0.00  0.00    +0.000 C 
BRANCH  15  16
ATOM     16  C   LIG A   1       0.737   5.456  -1.707  0.00  0.00    +0.011 C 
BRANCH  16  17
ATOM     17  C   LIG A   1       0.893   5.074  -3.188  0.00  0.00    +0.120 C 
BRANCH  17  18
ATOM     18  C   LIG A   1       1.161   3.692  -3.711  0.00  0.00    +0.307 C 
ATOM     19  O   LIG A   1       0.248   2.860  -3.979  0.00  0.00    -0.251 OA
BRANCH  18  20
ATOM     20  O   LIG A   1       2.449   3.452  -4.018  0.00  0.00    -0.465 OA
BRANCH  20  21
ATOM     21  C   LIG A   1       2.709   2.111  -4.474  0.00  0.00    +0.228 C 
ATOM     22  C   LIG A   1       3.267   1.343  -3.299  0.00  0.00    +0.048 C 
ENDBRANCH  20  21
ENDBRANCH  18  20
ENDBRANCH  17  18
ENDBRANCH  16  17
ENDBRANCH  15  16
ENDBRANCH  14  15
ENDBRANCH  13  14
ENDBRANCH   1  13
TORSDOF 17
