@<TRIPOS>MOLECULE
NuBBE_1599
 36 39 0 0 0
SMALL
GASTEIGER

@<TRIPOS>ATOM
      1 C          -1.7524    1.3162   -1.0902 C.3     1  LIG1       -0.0064
      2 C          -2.3089   -0.1094   -1.2179 C.3     1  LIG1       -0.0222
      3 C          -2.0487   -0.9858   -0.0128 C.ar    1  LIG1       -0.0433
      4 C          -2.9551   -1.0212    1.0585 C.ar    1  LIG1       -0.0130
      5 C          -2.6304   -1.7921    2.1565 C.ar    1  LIG1        0.1665
      6 C          -1.4534   -2.4997    2.2255 C.ar    1  LIG1        0.1662
      7 C          -0.5427   -2.4942    1.1936 C.ar    1  LIG1       -0.0159
      8 C          -0.8544   -1.7415    0.0587 C.ar    1  LIG1       -0.0549
      9 O          -1.3179   -3.1729    3.3989 O.3     1  LIG1       -0.4526
     10 C          -2.5587   -2.8325    4.0498 C.3     1  LIG1        0.2332
     11 O          -3.3900   -1.9427    3.2751 O.3     1  LIG1       -0.4526
     12 C          -0.2526    1.4055   -0.9346 C.ar    1  LIG1        0.0423
     13 N           0.4921    1.4845   -2.0647 N.ar    1  LIG1       -0.2516
     14 C           1.8322    1.5751   -1.9544 C.ar    1  LIG1        0.0713
     15 C           2.4872    1.5808   -0.7022 C.ar    1  LIG1        0.0004
     16 C           1.7005    1.4944    0.4469 C.ar    1  LIG1       -0.0509
     17 C           0.3198    1.4054    0.3353 C.ar    1  LIG1       -0.0398
     18 C           3.8891    1.6668   -0.6264 C.ar    1  LIG1       -0.0526
     19 C           4.6523    1.7497   -1.7868 C.ar    1  LIG1       -0.0611
     20 C           4.0164    1.7498   -3.0218 C.ar    1  LIG1       -0.0597
     21 C           2.6210    1.6640   -3.0933 C.ar    1  LIG1       -0.0357
     22 H          -2.2351    1.8400   -0.2566 H       1  LIG1        0.0331
     23 H          -2.0300    1.8736   -1.9953 H       1  LIG1        0.0331
     24 H          -1.9141   -0.5988   -2.1170 H       1  LIG1        0.0317
     25 H          -3.3949   -0.0443   -1.3713 H       1  LIG1        0.0317
     26 H          -3.8848   -0.4627    1.0382 H       1  LIG1        0.0658
     27 H           0.3854   -3.0496    1.2612 H       1  LIG1        0.0655
     28 H          -0.1478   -1.7189   -0.7705 H       1  LIG1        0.0621
     29 H          -2.3311   -2.3514    5.0078 H       1  LIG1        0.1166
     30 H          -3.1155   -3.7567    4.2440 H       1  LIG1        0.1166
     31 H           2.1567    1.4926    1.4355 H       1  LIG1        0.0625
     32 H          -0.2949    1.3171    1.2245 H       1  LIG1        0.0636
     33 H           4.3904    1.6660    0.3388 H       1  LIG1        0.0624
     34 H           5.7347    1.8127   -1.7279 H       1  LIG1        0.0618
     35 H           4.6019    1.8152   -3.9388 H       1  LIG1        0.0618
     36 H           2.1336    1.6648   -4.0665 H       1  LIG1        0.0639
@<TRIPOS>BOND
     1     1     2    1
     2     2     3    1
     3     3     4   ar
     4     4     5   ar
     5     5     6   ar
     6     6     7   ar
     7     7     8   ar
     8     3     8   ar
     9     6     9    1
    10     9    10    1
    11    10    11    1
    12     5    11    1
    13     1    12    1
    14    12    13   ar
    15    13    14   ar
    16    14    15   ar
    17    15    16   ar
    18    16    17   ar
    19    12    17   ar
    20    15    18   ar
    21    18    19   ar
    22    19    20   ar
    23    20    21   ar
    24    14    21   ar
    25     1    22    1
    26     1    23    1
    27     2    24    1
    28     2    25    1
    29     4    26    1
    30     7    27    1
    31     8    28    1
    32    10    29    1
    33    10    30    1
    34    16    31    1
    35    17    32    1
    36    18    33    1
    37    19    34    1
    38    20    35    1
    39    21    36    1
