@<TRIPOS>MOLECULE
NuBBE_164
 43 46 0 0 0
SMALL
GASTEIGER

@<TRIPOS>ATOM
      1 C          -2.1459    1.6228    4.1667 C.3     1  LIG1        0.0790
      2 O          -2.2262    2.1266    2.8397 O.3     1  LIG1       -0.4914
      3 C          -1.5467    1.4329    1.8719 C.ar    1  LIG1        0.1618
      4 C          -1.1281    2.2411    0.8100 C.ar    1  LIG1       -0.0128
      5 C          -0.4336    1.6986   -0.2752 C.ar    1  LIG1       -0.0372
      6 C          -0.1367    0.3234   -0.3199 C.ar    1  LIG1       -0.0158
      7 C          -0.5971   -0.4853    0.7344 C.ar    1  LIG1       -0.0108
      8 C          -1.2847    0.0554    1.8352 C.ar    1  LIG1        0.1618
      9 O          -1.7722   -0.7315    2.8464 O.3     1  LIG1       -0.4914
     10 C          -1.0247   -1.9061    3.1466 C.3     1  LIG1        0.0790
     11 C           0.7031   -0.1954   -1.5053 C.3     1  LIG1        0.0755
     12 C           2.2174    0.0559   -1.2695 C.3     1  LIG1        0.0036
     13 C           2.8585   -0.9488   -0.2894 C.3     1  LIG1        0.0760
     14 H           3.9284   -1.0001   -0.5242 H       1  LIG1        0.0638
     15 C           2.3082   -2.3441   -0.3602 C.2     1  LIG1       -0.0555
     16 C           1.2488   -2.6844   -1.1089 C.2     1  LIG1       -0.0583
     17 C           0.5290   -1.6696   -1.8263 C.2     1  LIG1       -0.0256
     18 C          -0.2400   -1.8472   -2.9023 C.2     1  LIG1       -0.0648
     19 C          -0.6234   -0.5245   -3.4675 C.3     1  LIG1        0.0188
     20 N           0.2752    0.4375   -2.7952 N.3     1  LIG1       -0.2850
     21 C          -0.3004    1.7850   -2.7337 C.3     1  LIG1        0.0043
     22 C          -0.0156    2.5548   -1.4408 C.3     1  LIG1       -0.0144
     23 O           2.7841   -0.5149    1.0632 O.3     1  LIG1       -0.3877
     24 H          -1.1380    1.2745    4.4174 H       1  LIG1        0.0660
     25 H          -2.8952    0.8430    4.3299 H       1  LIG1        0.0660
     26 H          -2.3839    2.4474    4.8463 H       1  LIG1        0.0660
     27 H          -1.3581    3.3043    0.8355 H       1  LIG1        0.0658
     28 H          -0.4293   -1.5554    0.6885 H       1  LIG1        0.0659
     29 H          -1.3401   -2.2567    4.1340 H       1  LIG1        0.0660
     30 H           0.0508   -1.7014    3.1936 H       1  LIG1        0.0660
     31 H          -1.2443   -2.7003    2.4268 H       1  LIG1        0.0660
     32 H           2.4106    1.0774   -0.9231 H       1  LIG1        0.0318
     33 H           2.7429   -0.0515   -2.2305 H       1  LIG1        0.0318
     34 H           2.8497   -3.1106    0.1877 H       1  LIG1        0.0598
     35 H           0.9387   -3.7206   -1.2016 H       1  LIG1        0.0619
     36 H          -0.4955   -2.7919   -3.3572 H       1  LIG1        0.0588
     37 H          -1.6852   -0.3494   -3.2577 H       1  LIG1        0.0470
     38 H          -0.4586   -0.4935   -4.5487 H       1  LIG1        0.0470
     39 H          -1.3922    1.7478   -2.8525 H       1  LIG1        0.0430
     40 H           0.0765    2.3624   -3.5859 H       1  LIG1        0.0430
     41 H          -0.5814    3.4939   -1.4534 H       1  LIG1        0.0326
     42 H           1.0445    2.8153   -1.3541 H       1  LIG1        0.0326
     43 H           1.9105   -0.1169    1.2094 H       1  LIG1        0.2102
@<TRIPOS>BOND
     1     1     2    1
     2     3     4   ar
     3     4     5   ar
     4     5     6   ar
     5     6     7   ar
     6     7     8   ar
     7     3     8   ar
     8     9    10    1
     9     6    11    1
    10    11    12    1
    11    12    13    1
    12    13    15    1
    13    15    16    2
    14    16    17    1
    15    11    17    1
    16    17    18    2
    17    18    19    1
    18    19    20    1
    19    11    20    1
    20    20    21    1
    21    21    22    1
    22     5    22    1
    23     2     3    1
    24     8     9    1
    25    13    23    1
    26    13    14    1
    27     1    24    1
    28     1    25    1
    29     1    26    1
    30     4    27    1
    31     7    28    1
    32    10    29    1
    33    10    30    1
    34    10    31    1
    35    12    32    1
    36    12    33    1
    37    15    34    1
    38    16    35    1
    39    18    36    1
    40    19    37    1
    41    19    38    1
    42    21    39    1
    43    21    40    1
    44    22    41    1
    45    22    42    1
    46    23    43    1
