@<TRIPOS>MOLECULE
NuBBE_1397
 73 74 0 0 0
SMALL
GASTEIGER

@<TRIPOS>ATOM
      1 O           0.5268    2.0794    7.7478 O.2     1  LIG1       -0.2872
      2 C           1.3079    2.2229    6.7995 C.ar    1  LIG1        0.1897
      3 C           2.7491    2.4819    7.0080 C.ar    1  LIG1        0.0450
      4 C           3.5410    2.7202    5.8694 C.ar    1  LIG1        0.0503
      5 N           2.9892    2.6596    4.5691 N.ar    1  LIG1       -0.3577
      6 H           3.5500    3.0172    3.8061 H       1  LIG1        0.1656
      7 C           1.6633    2.3256    4.3285 C.ar    1  LIG1        0.0200
      8 C           0.8283    2.1246    5.3792 C.ar    1  LIG1        0.0049
      9 C           1.1365    2.1603    2.8442 C.3     1  LIG1       -0.0124
     10 C           2.1540    2.2937    1.6621 C.3     1  LIG1       -0.0477
     11 C           1.7204    2.4001    0.1609 C.3     1  LIG1       -0.0527
     12 C           1.0066    1.2896   -0.6373 C.3     1  LIG1       -0.0530
     13 C           1.6733   -0.0817   -0.8105 C.3     1  LIG1       -0.0531
     14 C           3.0162   -0.1607   -1.5590 C.3     1  LIG1       -0.0531
     15 C           3.1160    0.3627   -3.0092 C.3     1  LIG1       -0.0531
     16 C           2.4099   -0.4010   -4.1608 C.3     1  LIG1       -0.0531
     17 C           0.8850   -0.4839   -4.0358 C.3     1  LIG1       -0.0531
     18 C           0.1403   -1.2401   -5.1427 C.3     1  LIG1       -0.0531
     19 C          -1.3963   -1.2659   -4.9218 C.3     1  LIG1       -0.0530
     20 C          -1.8792   -1.9712   -3.6289 C.3     1  LIG1       -0.0505
     21 C          -3.4239   -1.9702   -3.5030 C.3     1  LIG1       -0.0240
     22 C          -4.0294   -2.6181   -2.2120 C.3     1  LIG1        0.0656
     23 C          -5.6048   -2.5449   -2.2257 C.3     1  LIG1       -0.0180
     24 C          -6.2857   -3.1791   -0.9950 C.3     1  LIG1       -0.0601
     25 C          -6.1402   -1.1102   -2.3566 C.3     1  LIG1       -0.0601
     26 C          -3.5485   -4.0713   -2.0584 C.3     1  LIG1       -0.0358
     27 O          -3.5387   -1.8740   -1.0902 O.3     1  LIG1       -0.3886
     28 C           4.9235    2.8915    6.0560 C.ar    1  LIG1       -0.0377
     29 C           5.4951    2.8363    7.3390 C.ar    1  LIG1       -0.0598
     30 C           4.6917    2.6208    8.4567 C.ar    1  LIG1       -0.0610
     31 C           3.3139    2.4542    8.2925 C.ar    1  LIG1       -0.0490
     32 H          -0.2218    1.8758    5.2636 H       1  LIG1        0.0673
     33 H           0.3159    2.8762    2.6992 H       1  LIG1        0.0328
     34 H           0.6996    1.1556    2.7846 H       1  LIG1        0.0328
     35 H           2.8883    1.4868    1.7424 H       1  LIG1        0.0269
     36 H           2.6959    3.2330    1.8386 H       1  LIG1        0.0269
     37 H           2.6425    2.6143   -0.3995 H       1  LIG1        0.0265
     38 H           1.1091    3.3063    0.0446 H       1  LIG1        0.0265
     39 H           0.8335    1.6849   -1.6514 H       1  LIG1        0.0265
     40 H           0.0038    1.1367   -0.2224 H       1  LIG1        0.0265
     41 H           0.9560   -0.7256   -1.3206 H       1  LIG1        0.0265
     42 H           1.7843   -0.5517    0.1715 H       1  LIG1        0.0265
     43 H           3.3581   -1.2051   -1.5483 H       1  LIG1        0.0265
     44 H           3.7520    0.3910   -0.9587 H       1  LIG1        0.0265
     45 H           4.1895    0.3549   -3.2585 H       1  LIG1        0.0265
     46 H           2.8202    1.4160   -3.0355 H       1  LIG1        0.0265
     47 H           2.8397   -1.4059   -4.2539 H       1  LIG1        0.0265
     48 H           2.6586    0.1223   -5.0958 H       1  LIG1        0.0265
     49 H           0.4802    0.5300   -3.9473 H       1  LIG1        0.0265
     50 H           0.6629   -1.0351   -3.1325 H       1  LIG1        0.0265
     51 H           0.5105   -2.2708   -5.1974 H       1  LIG1        0.0265
     52 H           0.3494   -0.7747   -6.1143 H       1  LIG1        0.0265
     53 H          -1.8504   -1.7720   -5.7834 H       1  LIG1        0.0265
     54 H          -1.7714   -0.2348   -4.9336 H       1  LIG1        0.0265
     55 H          -1.4596   -1.4644   -2.7542 H       1  LIG1        0.0266
     56 H          -1.5062   -3.0003   -3.6311 H       1  LIG1        0.0266
     57 H          -3.8541   -2.4650   -4.3824 H       1  LIG1        0.0293
     58 H          -3.7255   -0.9172   -3.5404 H       1  LIG1        0.0293
     59 H          -5.9596   -3.1016   -3.1036 H       1  LIG1        0.0323
     60 H          -5.7941   -2.9032   -0.0574 H       1  LIG1        0.0233
     61 H          -6.2977   -4.2712   -1.0715 H       1  LIG1        0.0233
     62 H          -7.3348   -2.8671   -0.9154 H       1  LIG1        0.0233
     63 H          -5.8023   -0.4772   -1.5302 H       1  LIG1        0.0233
     64 H          -7.2368   -1.1044   -2.3554 H       1  LIG1        0.0233
     65 H          -5.8351   -0.6503   -3.2998 H       1  LIG1        0.0233
     66 H          -3.7041   -4.6468   -2.9757 H       1  LIG1        0.0257
     67 H          -4.0671   -4.5884   -1.2439 H       1  LIG1        0.0257
     68 H          -2.4877   -4.1099   -1.7871 H       1  LIG1        0.0257
     69 H          -3.6232   -2.4280   -0.2951 H       1  LIG1        0.2102
     70 H           5.5816    3.0444    5.2032 H       1  LIG1        0.0638
     71 H           6.5730    2.9336    7.4602 H       1  LIG1        0.0618
     72 H           5.1415    2.5633    9.4480 H       1  LIG1        0.0618
     73 H           2.6937    2.2771    9.1683 H       1  LIG1        0.0625
@<TRIPOS>BOND
     1     1     2    2
     2     2     3   ar
     3     3     4   ar
     4     4     5   ar
     5     5     6    1
     6     5     7   ar
     7     7     8   ar
     8     2     8   ar
     9     7     9    1
    10     9    10    1
    11    10    11    1
    12    11    12    1
    13    12    13    1
    14    13    14    1
    15    14    15    1
    16    15    16    1
    17    16    17    1
    18    17    18    1
    19    18    19    1
    20    19    20    1
    21    20    21    1
    22    21    22    1
    23    22    23    1
    24    23    24    1
    25    23    25    1
    26    22    26    1
    27    22    27    1
    28     4    28   ar
    29    28    29   ar
    30    29    30   ar
    31    30    31   ar
    32     3    31   ar
    33     8    32    1
    34     9    33    1
    35     9    34    1
    36    10    35    1
    37    10    36    1
    38    11    37    1
    39    11    38    1
    40    12    39    1
    41    12    40    1
    42    13    41    1
    43    13    42    1
    44    14    43    1
    45    14    44    1
    46    15    45    1
    47    15    46    1
    48    16    47    1
    49    16    48    1
    50    17    49    1
    51    17    50    1
    52    18    51    1
    53    18    52    1
    54    19    53    1
    55    19    54    1
    56    20    55    1
    57    20    56    1
    58    21    57    1
    59    21    58    1
    60    23    59    1
    61    24    60    1
    62    24    61    1
    63    24    62    1
    64    25    63    1
    65    25    64    1
    66    25    65    1
    67    26    66    1
    68    26    67    1
    69    26    68    1
    70    27    69    1
    71    28    70    1
    72    29    71    1
    73    30    72    1
    74    31    73    1
