REMARK  Name = NuBBE_1468
REMARK  11 active torsions:
REMARK  status: ('A' for Active; 'I' for Inactive)
REMARK    1  A    between atoms: C_3  and  C_37
REMARK    2  A    between atoms: C_3  and  C_38
REMARK    3  A    between atoms: C_4  and  C_6
REMARK    4  A    between atoms: C_6  and  C_7
REMARK    5  A    between atoms: C_7  and  O_8
REMARK    6  A    between atoms: O_8  and  C_9
REMARK    7  A    between atoms: C_11  and  C_12
REMARK    8  A    between atoms: C_14  and  C_15
REMARK    9  A    between atoms: C_20  and  O_22
REMARK   10  A    between atoms: C_23  and  C_24
REMARK   11  A    between atoms: C_29  and  C_31
REMARK                            x       y       z     vdW  Elec       q    Type
REMARK                         _______ _______ _______ _____ _____    ______ ____
ROOT
ATOM      1  O   LIG A   1      -1.754  -2.902  -2.712  0.00  0.00    -0.292 OA
ATOM      2  C   LIG A   1      -1.187  -1.957  -2.167  0.00  0.00    +0.165 C 
ATOM      3  C   LIG A   1      -1.852  -0.579  -1.992  0.00  0.00    +0.032 C 
ATOM      4  C   LIG A   1      -0.788   0.564  -2.215  0.00  0.00    +0.030 C 
ATOM      5  C   LIG A   1       0.657   0.291  -1.554  0.00  0.00    +0.054 C 
ATOM      6  C   LIG A   1       1.820   0.685  -2.507  0.00  0.00    +0.024 C 
ATOM      7  C   LIG A   1       0.905   0.814  -0.119  0.00  0.00    -0.011 C 
ATOM      8  C   LIG A   1       2.074  -0.006   0.452  0.00  0.00    +0.152 C 
ATOM      9  C   LIG A   1       3.449   0.624   0.094  0.00  0.00    +0.066 C 
ATOM     10  O   LIG A   1       1.921  -1.301  -0.205  0.00  0.00    -0.480 OA
ATOM     11  C   LIG A   1       0.907  -1.160  -1.191  0.00  0.00    +0.113 C 
ATOM     12  C   LIG A   1       0.124  -2.195  -1.513  0.00  0.00    +0.088 C 
ATOM     13  C   LIG A   1       0.008   1.453   0.662  0.00  0.00    +0.009 C 
ATOM     14  C   LIG A   1      -0.097   1.196   2.155  0.00  0.00    +0.151 C 
ATOM     15  C   LIG A   1       0.597  -0.127   2.638  0.00  0.00    +0.064 C 
ATOM     16  C   LIG A   1      -0.164  -1.399   2.191  0.00  0.00    +0.023 C 
ATOM     17  C   LIG A   1       1.994  -0.122   2.008  0.00  0.00    -0.004 C 
ATOM     18  C   LIG A   1       3.062   0.033   2.823  0.00  0.00    +0.096 C 
ATOM     19  C   LIG A   1       2.974   0.397   4.255  0.00  0.00    +0.333 C 
ATOM     20  O   LIG A   1       1.729   0.591   4.739  0.00  0.00    -0.452 OA
ATOM     21  C   LIG A   1       0.727  -0.270   4.192  0.00  0.00    +0.223 C 
ATOM     22  O   LIG A   1       3.989   0.648   4.892  0.00  0.00    -0.246 OA
ATOM     23  C   LIG A   1      -2.464  -0.506  -0.577  0.00  0.00    +0.019 C 
ATOM     24  C   LIG A   1      -3.088  -0.477  -2.923  0.00  0.00    +0.019 C 
ENDROOT
BRANCH  21  25
ATOM     25  C   LIG A   1      -0.559  -0.160   4.971  0.00  0.00    +0.031 A 
ATOM     26  C   LIG A   1      -1.213  -1.197   5.613  0.00  0.00    +0.202 A 
ATOM     27  O   LIG A   1      -2.353  -0.766   6.205  0.00  0.00    -0.471 OA
ATOM     28  C   LIG A   1      -2.432   0.568   5.978  0.00  0.00    +0.195 A 
ATOM     29  C   LIG A   1      -1.349   0.994   5.245  0.00  0.00    +0.048 A 
ENDBRANCH  21  25
BRANCH  14  30
ATOM     30  O   LIG A   1       0.386   2.360   2.808  0.00  0.00    -0.387 OA
ATOM     31  H   LIG A   1       1.268   2.567   2.457  0.00  0.00    +0.210 HD
ENDBRANCH  14  30
BRANCH   4  32
ATOM     32  C   LIG A   1      -0.771   1.069  -3.688  0.00  0.00    +0.126 C 
BRANCH  32  33
ATOM     33  C   LIG A   1      -0.462   0.059  -4.775  0.00  0.00    +0.307 C 
ATOM     34  O   LIG A   1       0.283  -0.923  -4.649  0.00  0.00    -0.251 OA
BRANCH  33  35
ATOM     35  O   LIG A   1      -1.013   0.489  -5.938  0.00  0.00    -0.468 OA
ATOM     36  C   LIG A   1      -0.381  -0.003  -7.122  0.00  0.00    +0.280 C 
ENDBRANCH  33  35
ENDBRANCH  32  33
ENDBRANCH   4  32
TORSDOF 5
