REMARK  Name = NuBBE_472
REMARK  6 active torsions:
REMARK  status: ('A' for Active; 'I' for Inactive)
REMARK    1  A    between atoms: C_2  and  O_3
REMARK    2  A    between atoms: C_2  and  C_5
REMARK    3  A    between atoms: O_3  and  C_4
REMARK    4  A    between atoms: C_8  and  O_10
REMARK    5  A    between atoms: C_16  and  O_18
REMARK    6  A    between atoms: C_19  and  C_21
REMARK                            x       y       z     vdW  Elec       q    Type
REMARK                         _______ _______ _______ _____ _____    ______ ____
ROOT
ATOM      1  C   LIG A   1      -0.202   1.088   1.003  0.00  0.00    +0.074 C 
ATOM      2  C   LIG A   1      -0.186   2.207   0.265  0.00  0.00    +0.201 C 
ATOM      3  O   LIG A   1       0.429   2.337  -0.956  0.00  0.00    -0.470 OA
ATOM      4  C   LIG A   1       1.429   1.343  -1.187  0.00  0.00    +0.308 C 
ATOM      5  C   LIG A   1       0.916  -0.074  -0.937  0.00  0.00    +0.071 C 
ATOM      6  C   LIG A   1       0.392  -0.209   0.509  0.00  0.00    +0.041 C 
ATOM      7  C   LIG A   1      -0.647  -1.354   0.454  0.00  0.00    +0.040 C 
ATOM      8  C   LIG A   1      -0.753  -1.770  -1.013  0.00  0.00    +0.118 C 
ATOM      9  C   LIG A   1      -0.284  -0.535  -1.790  0.00  0.00    +0.024 C 
ATOM     10  C   LIG A   1       0.049  -0.819  -3.247  0.00  0.00    +0.010 C 
ENDROOT
BRANCH   1  12
ATOM     11  O   LIG A   1      -1.521   2.085   2.742  0.00  0.00    -0.245 OA
ATOM     12  C   LIG A   1      -0.799   1.183   2.358  0.00  0.00    +0.338 C 
BRANCH  12  13
ATOM     13  O   LIG A   1      -0.342   0.148   3.107  0.00  0.00    -0.465 OA
ATOM     14  C   LIG A   1      -0.681   0.234   4.488  0.00  0.00    +0.280 C 
ENDBRANCH  12  13
ENDBRANCH   1  12
BRANCH   4  15
ATOM     15  O   LIG A   1       1.902   1.464  -2.518  0.00  0.00    -0.357 OA
ATOM     16  H   LIG A   1       2.304   2.348  -2.561  0.00  0.00    +0.213 HD
ENDBRANCH   4  15
BRANCH   8  17
ATOM     17  O   LIG A   1       0.113  -2.882  -1.220  0.00  0.00    -0.392 OA
ATOM     18  H   LIG A   1      -0.030  -3.200  -2.128  0.00  0.00    +0.210 HD
ENDBRANCH   8  17
TORSDOF 4
