REMARK  Name = NuBBE_2158
REMARK  12 active torsions:
REMARK  status: ('A' for Active; 'I' for Inactive)
REMARK    1  A    between atoms: C_1  and  C_2
REMARK    2  A    between atoms: C_2  and  C_4
REMARK    3  A    between atoms: C_2  and  C_7
REMARK    4  A    between atoms: C_4  and  C_5
REMARK    5  A    between atoms: C_4  and  C_6
REMARK    6  A    between atoms: C_7  and  C_8
REMARK    7  A    between atoms: C_8  and  C_9
REMARK    8  A    between atoms: C_9  and  C_11
REMARK    9  A    between atoms: C_9  and  C_12
REMARK   10  A    between atoms: C_24  and  O_26
REMARK   11  A    between atoms: C_29  and  C_30
REMARK   12  A    between atoms: C_35  and  C_36
REMARK                            x       y       z     vdW  Elec       q    Type
REMARK                         _______ _______ _______ _____ _____    ______ ____
ROOT
ATOM      1  C   LIG A   1      -0.498   0.531   1.527  0.00  0.00    -0.002 C 
ATOM      2  C   LIG A   1       0.554   1.614   1.777  0.00  0.00    +0.004 C 
ATOM      3  C   LIG A   1       1.683   1.169   0.864  0.00  0.00    +0.004 C 
ATOM      4  C   LIG A   1       1.800  -0.336   1.143  0.00  0.00    -0.001 C 
ATOM      5  C   LIG A   1       2.560  -1.077   0.028  0.00  0.00    +0.000 C 
ATOM      6  C   LIG A   1       3.382  -2.258   0.595  0.00  0.00    +0.031 C 
ATOM      7  C   LIG A   1       3.944  -3.157  -0.466  0.00  0.00    -0.027 C 
ATOM      8  C   LIG A   1       3.562  -3.125  -1.766  0.00  0.00    -0.065 C 
ATOM      9  C   LIG A   1       4.350  -3.844  -2.825  0.00  0.00    +0.062 C 
ATOM     10  C   LIG A   1       5.053  -2.807  -3.715  0.00  0.00    +0.119 C 
ATOM     11  C   LIG A   1       4.115  -1.697  -4.212  0.00  0.00    +0.032 C 
ATOM     12  C   LIG A   1       3.209  -1.117  -3.112  0.00  0.00    +0.013 C 
ATOM     13  C   LIG A   1       2.462  -2.208  -2.284  0.00  0.00    -0.008 C 
ATOM     14  C   LIG A   1       1.485  -2.956  -3.229  0.00  0.00    +0.016 C 
ATOM     15  C   LIG A   1       1.635  -1.560  -1.107  0.00  0.00    +0.003 C 
ATOM     16  C   LIG A   1       0.581  -2.501  -0.487  0.00  0.00    +0.005 C 
ATOM     17  C   LIG A   1      -0.329  -1.769   0.485  0.00  0.00    +0.007 C 
ATOM     18  C   LIG A   1       0.341  -0.811   1.501  0.00  0.00    -0.026 C 
ATOM     19  C   LIG A   1       0.445  -1.516   2.872  0.00  0.00    +0.012 C 
ENDROOT
BRANCH   1  20
ATOM     20  C   LIG A   1      -1.764   0.671   2.417  0.00  0.00    -0.010 C 
ATOM     21  C   LIG A   1      -2.775  -0.469   2.240  0.00  0.00    +0.008 C 
BRANCH  20  22
ATOM     22  C   LIG A   1      -2.498   2.034   2.198  0.00  0.00    +0.004 C 
BRANCH  22  23
ATOM     23  C   LIG A   1      -3.066   2.273   0.782  0.00  0.00    +0.004 C 
BRANCH  23  25
ATOM     24  C   LIG A   1      -2.758   4.781   0.696  0.00  0.00    +0.007 C 
ATOM     25  C   LIG A   1      -3.776   3.639   0.556  0.00  0.00    -0.011 C 
BRANCH  25  26
ATOM     26  C   LIG A   1      -5.053   3.865   1.420  0.00  0.00    -0.014 C 
ATOM     27  C   LIG A   1      -5.700   5.233   1.143  0.00  0.00    +0.007 C 
ATOM     28  C   LIG A   1      -6.121   2.790   1.182  0.00  0.00    +0.007 C 
ENDBRANCH  25  26
ENDBRANCH  23  25
ENDBRANCH  22  23
ENDBRANCH  20  22
ENDBRANCH   1  20
BRANCH  10  29
ATOM     29  O   LIG A   1       5.629  -3.450  -4.852  0.00  0.00    -0.392 OA
ATOM     30  H   LIG A   1       6.215  -4.152  -4.524  0.00  0.00    +0.210 HD
ENDBRANCH  10  29
TORSDOF 6
