REMARK  Name = NuBBE_212
REMARK  14 active torsions:
REMARK  status: ('A' for Active; 'I' for Inactive)
REMARK    1  A    between atoms: C_1  and  O_2
REMARK    2  A    between atoms: O_2  and  C_3
REMARK    3  A    between atoms: C_4  and  O_15
REMARK    4  A    between atoms: C_5  and  O_6
REMARK    5  A    between atoms: O_6  and  C_7
REMARK    6  A    between atoms: C_9  and  C_10
REMARK    7  A    between atoms: C_11  and  C_12
REMARK    8  A    between atoms: C_12  and  O_13
REMARK    9  A    between atoms: O_15  and  C_16
REMARK   10  A    between atoms: C_19  and  C_27
REMARK   11  A    between atoms: C_21  and  O_26
REMARK   12  A    between atoms: C_23  and  O_25
REMARK   13  A    between atoms: C_27  and  O_28
REMARK   14  A    between atoms: C_29  and  O_31
REMARK                            x       y       z     vdW  Elec       q    Type
REMARK                         _______ _______ _______ _____ _____    ______ ____
ROOT
ATOM      1  O   LIG A   1      -0.275   0.566  -1.040  0.00  0.00    -0.454 OA
ENDROOT
BRANCH   1   3
ATOM      2  C   LIG A   1      -0.022  -1.760  -0.619  0.00  0.00    +0.166 A 
ATOM      3  C   LIG A   1       0.235  -0.427  -0.239  0.00  0.00    +0.207 A 
ATOM      4  C   LIG A   1       0.928  -0.192   0.969  0.00  0.00    +0.166 A 
ATOM      5  C   LIG A   1       1.468  -1.263   1.686  0.00  0.00    +0.057 A 
ATOM      6  C   LIG A   1       1.283  -2.578   1.264  0.00  0.00    -0.018 A 
ATOM      7  C   LIG A   1       0.516  -2.818   0.126  0.00  0.00    +0.057 A 
BRANCH   2   9
ATOM      8  C   LIG A   1      -1.854  -1.436  -2.114  0.00  0.00    +0.277 C 
ATOM      9  O   LIG A   1      -0.704  -2.183  -1.734  0.00  0.00    -0.491 OA
ENDBRANCH   2   9
BRANCH   4  10
ATOM     10  O   LIG A   1       0.991   1.093   1.439  0.00  0.00    -0.491 OA
ATOM     11  C   LIG A   1       1.707   1.329   2.646  0.00  0.00    +0.277 C 
ENDBRANCH   4  10
BRANCH   6  12
ATOM     12  C   LIG A   1       1.993  -3.614   2.009  0.00  0.00    +0.006 C 
ATOM     13  C   LIG A   1       1.535  -4.873   2.214  0.00  0.00    +0.001 C 
BRANCH  13  14
ATOM     14  C   LIG A   1       2.344  -5.915   2.902  0.00  0.00    +0.183 C 
BRANCH  14  15
ATOM     15  O   LIG A   1       2.057  -5.898   4.290  0.00  0.00    -0.391 OA
ATOM     16  H   LIG A   1       2.203  -4.986   4.594  0.00  0.00    +0.210 HD
ENDBRANCH  14  15
ENDBRANCH  13  14
ENDBRANCH   6  12
ENDBRANCH   1   3
BRANCH   1  17
ATOM     17  C   LIG A   1       0.450   1.804  -1.166  0.00  0.00    +0.340 C 
ATOM     18  O   LIG A   1      -0.039   2.803  -0.254  0.00  0.00    -0.331 OA
ATOM     19  C   LIG A   1      -1.409   3.198  -0.415  0.00  0.00    +0.179 C 
ATOM     20  C   LIG A   1      -1.973   2.922  -1.819  0.00  0.00    +0.177 C 
ATOM     21  C   LIG A   1      -0.861   3.247  -2.817  0.00  0.00    +0.180 C 
ATOM     22  C   LIG A   1       0.329   2.300  -2.633  0.00  0.00    +0.214 C 
BRANCH  21  23
ATOM     23  O   LIG A   1      -1.318   3.137  -4.175  0.00  0.00    -0.386 OA
ATOM     24  H   LIG A   1      -2.286   3.281  -4.143  0.00  0.00    +0.210 HD
ENDBRANCH  21  23
BRANCH  20  25
ATOM     25  O   LIG A   1      -3.107   3.749  -2.110  0.00  0.00    -0.387 OA
ATOM     26  H   LIG A   1      -3.839   3.453  -1.539  0.00  0.00    +0.210 HD
ENDBRANCH  20  25
BRANCH  22  27
ATOM     27  O   LIG A   1       1.515   3.001  -3.059  0.00  0.00    -0.383 OA
ATOM     28  H   LIG A   1       1.297   3.384  -3.931  0.00  0.00    +0.210 HD
ENDBRANCH  22  27
BRANCH  19  29
ATOM     29  C   LIG A   1      -2.280   2.645   0.723  0.00  0.00    +0.190 C 
BRANCH  29  30
ATOM     30  O   LIG A   1      -2.325   1.228   0.745  0.00  0.00    -0.392 OA
ATOM     31  H   LIG A   1      -1.418   0.949   0.977  0.00  0.00    +0.209 HD
ENDBRANCH  29  30
ENDBRANCH  19  29
ENDBRANCH   1  17
TORSDOF 12
