REMARK  Name = NuBBE_1353
REMARK  10 active torsions:
REMARK  status: ('A' for Active; 'I' for Inactive)
REMARK    1  A    between atoms: C_1  and  C_2
REMARK    2  A    between atoms: C_2  and  C_36
REMARK    3  A    between atoms: C_3  and  O_4
REMARK    4  A    between atoms: C_7  and  C_34
REMARK    5  A    between atoms: C_11  and  C_33
REMARK    6  A    between atoms: C_16  and  C_32
REMARK    7  A    between atoms: C_18  and  O_31
REMARK    8  A    between atoms: C_20  and  C_30
REMARK    9  A    between atoms: C_22  and  C_29
REMARK   10  A    between atoms: C_24  and  C_28
REMARK                            x       y       z     vdW  Elec       q    Type
REMARK                         _______ _______ _______ _____ _____    ______ ____
ROOT
ATOM      1  C   LIG A   1      -3.978  -2.610  -1.367  0.00  0.00    +0.014 C 
ATOM      2  C   LIG A   1      -2.899  -2.310  -0.253  0.00  0.00    -0.006 C 
ATOM      3  C   LIG A   1      -2.888  -3.568   0.646  0.00  0.00    +0.120 C 
ATOM      4  C   LIG A   1      -1.649  -3.702   1.532  0.00  0.00    +0.032 C 
ATOM      5  C   LIG A   1      -0.278  -3.603   0.725  0.00  0.00    +0.010 C 
ATOM      6  C   LIG A   1      -0.118  -2.139   0.105  0.00  0.00    -0.025 C 
ATOM      7  C   LIG A   1      -1.450  -2.150  -0.829  0.00  0.00    +0.003 C 
ATOM      8  C   LIG A   1      -1.463  -1.142  -1.934  0.00  0.00    +0.005 C 
ATOM      9  C   LIG A   1      -0.194  -1.238  -2.667  0.00  0.00    +0.008 C 
ATOM     10  C   LIG A   1       1.127  -0.583  -2.168  0.00  0.00    -0.019 C 
ATOM     11  C   LIG A   1       1.345  -1.688  -0.849  0.00  0.00    +0.006 C 
ATOM     12  C   LIG A   1       2.550  -1.274   0.059  0.00  0.00    +0.031 C 
ATOM     13  C   LIG A   1       2.760   0.233   0.263  0.00  0.00    -0.026 C 
ATOM     14  C   LIG A   1       2.007   1.148  -0.249  0.00  0.00    -0.063 C 
ATOM     15  C   LIG A   1       1.712   0.949  -1.754  0.00  0.00    -0.003 C 
ATOM     16  C   LIG A   1       0.855   2.123  -2.231  0.00  0.00    +0.043 C 
ATOM     17  C   LIG A   1      -0.352   2.222  -1.316  0.00  0.00    +0.122 C 
ATOM     18  C   LIG A   1      -0.025   2.582   0.198  0.00  0.00    +0.001 C 
ATOM     19  C   LIG A   1       1.529   2.542   0.411  0.00  0.00    +0.027 C 
ATOM     20  C   LIG A   1       1.968   2.798   1.910  0.00  0.00    -0.003 C 
ATOM     21  C   LIG A   1       1.426   1.771   2.911  0.00  0.00    -0.011 C 
ATOM     22  C   LIG A   1      -0.053   1.434   2.596  0.00  0.00    +0.004 C 
ATOM     23  C   LIG A   1      -0.589   1.492   1.131  0.00  0.00    +0.010 C 
ATOM     24  C   LIG A   1       2.493   0.733   3.306  0.00  0.00    +0.008 C 
ATOM     25  C   LIG A   1       1.569   4.166   2.520  0.00  0.00    +0.008 C 
ATOM     26  C   LIG A   1      -0.800   3.860   0.542  0.00  0.00    +0.014 C 
ATOM     27  C   LIG A   1       3.187   1.171  -2.379  0.00  0.00    +0.016 C 
ATOM     28  C   LIG A   1       1.634  -0.608  -3.702  0.00  0.00    +0.012 C 
ATOM     29  C   LIG A   1      -0.048  -1.423   1.482  0.00  0.00    +0.012 C 
ATOM     30  C   LIG A   1      -3.375  -0.986   0.375  0.00  0.00    +0.014 C 
ENDROOT
BRANCH   3  31
ATOM     31  O   LIG A   1      -4.068  -3.652   1.442  0.00  0.00    -0.391 OA
ATOM     32  H   LIG A   1      -4.837  -3.495   0.867  0.00  0.00    +0.210 HD
ENDBRANCH   3  31
BRANCH  17  33
ATOM     33  O   LIG A   1      -1.322   3.050  -1.940  0.00  0.00    -0.391 OA
ATOM     34  H   LIG A   1      -2.155   2.545  -1.947  0.00  0.00    +0.210 HD
ENDBRANCH  17  33
TORSDOF 2
