@<TRIPOS>MOLECULE
NuBBE_2326
 65 68 0 0 0
SMALL
GASTEIGER

@<TRIPOS>ATOM
      1 C          -0.3789   -4.1218   -4.2782 C.3     1  LIG1       -0.0394
      2 C          -0.2019   -3.3620   -2.9925 C.2     1  LIG1       -0.0462
      3 C          -0.8303   -2.0387   -2.8102 C.2     1  LIG1       -0.0278
      4 C          -2.0820   -1.7409   -3.2201 C.2     1  LIG1        0.0266
      5 C          -3.0850   -2.6457   -3.7946 C.2     1  LIG1        0.3298
      6 O          -3.2758   -3.7461   -3.0530 O.3     1  LIG1       -0.4775
      7 O          -3.7828   -2.3865   -4.7579 O.2     1  LIG1       -0.2458
      8 C           0.6543   -3.7993   -2.0526 C.2     1  LIG1       -0.0585
      9 C           0.9116   -3.0393   -0.8521 C.2     1  LIG1       -0.0609
     10 C           0.6846   -1.7062   -0.7848 C.2     1  LIG1       -0.0529
     11 C           0.1249   -1.0210   -2.0717 C.3     1  LIG1        0.0152
     12 C          -0.5528    0.3146   -1.6858 C.3     1  LIG1       -0.0393
     13 C          -1.3216    0.1805   -0.3796 C.3     1  LIG1       -0.0455
     14 C          -0.3759    0.0693    0.8742 C.3     1  LIG1       -0.0196
     15 C           0.8970   -0.8606    0.5192 C.3     1  LIG1       -0.0043
     16 C           2.1586    0.0220    0.3019 C.3     1  LIG1       -0.0429
     17 C           2.5460    0.8615    1.5191 C.3     1  LIG1       -0.0462
     18 C           1.3873    1.7094    2.1077 C.3     1  LIG1       -0.0220
     19 C           1.2378    1.3744    3.6128 C.3     1  LIG1       -0.0589
     20 C           0.0709    1.5514    1.2719 C.3     1  LIG1       -0.0284
     21 C          -1.0530    2.4309    1.8812 C.3     1  LIG1       -0.0399
     22 C          -0.6736    3.9194    1.8835 C.3     1  LIG1        0.0150
     23 H          -0.6041    4.2724    0.8465 H       1  LIG1        0.0375
     24 C          -1.7421    4.7420    2.5987 C.3     1  LIG1       -0.0557
     25 H           0.2984    2.0360    0.3114 H       1  LIG1        0.0312
     26 C           1.8062    3.2049    2.0333 C.3     1  LIG1        0.0118
     27 C           0.7015    4.1315    2.5022 C.2     1  LIG1        0.1367
     28 O           0.9515    5.0751    3.2521 O.2     1  LIG1       -0.2971
     29 C           1.2366   -1.8202    1.7050 C.3     1  LIG1       -0.0553
     30 C          -1.2845   -0.5475    1.9698 C.3     1  LIG1       -0.0585
     31 C           1.2714   -0.6693   -3.0592 C.3     1  LIG1       -0.0518
     32 H          -0.4197   -3.4411   -5.1354 H       1  LIG1        0.0278
     33 H          -1.2858   -4.7311   -4.2648 H       1  LIG1        0.0278
     34 H           0.4624   -4.8015   -4.4573 H       1  LIG1        0.0278
     35 H          -2.4911   -0.7434   -3.1341 H       1  LIG1        0.0692
     36 H          -4.0040   -4.2176   -3.5050 H       1  LIG1        0.2954
     37 H           1.1723   -4.7483   -2.1575 H       1  LIG1        0.0620
     38 H           1.3018   -3.6241   -0.0270 H       1  LIG1        0.0618
     39 H          -1.2151    0.6787   -2.4776 H       1  LIG1        0.0277
     40 H           0.1874    1.1165   -1.5980 H       1  LIG1        0.0277
     41 H          -1.9772   -0.6986   -0.4370 H       1  LIG1        0.0271
     42 H          -2.0007    1.0331   -0.2892 H       1  LIG1        0.0271
     43 H           2.0259    0.7059   -0.5406 H       1  LIG1        0.0274
     44 H           3.0167   -0.6089    0.0316 H       1  LIG1        0.0274
     45 H           3.3833    1.5064    1.2209 H       1  LIG1        0.0271
     46 H           2.9732    0.2035    2.2860 H       1  LIG1        0.0271
     47 H           0.9192    0.3491    3.7894 H       1  LIG1        0.0235
     48 H           0.5213    2.0234    4.1249 H       1  LIG1        0.0235
     49 H           2.1959    1.5026    4.1318 H       1  LIG1        0.0235
     50 H          -1.2881    2.0991    2.8988 H       1  LIG1        0.0275
     51 H          -1.9822    2.3285    1.3125 H       1  LIG1        0.0275
     52 H          -1.8140    4.4663    3.6566 H       1  LIG1        0.0236
     53 H          -2.7241    4.5928    2.1379 H       1  LIG1        0.0236
     54 H          -1.5095    5.8114    2.5511 H       1  LIG1        0.0236
     55 H           2.0578    3.4931    1.0050 H       1  LIG1        0.0347
     56 H           2.6951    3.3866    2.6503 H       1  LIG1        0.0347
     57 H           2.1965   -2.3279    1.5463 H       1  LIG1        0.0238
     58 H           0.4724   -2.5935    1.8427 H       1  LIG1        0.0238
     59 H           1.3316   -1.3049    2.6589 H       1  LIG1        0.0238
     60 H          -1.5683   -1.5748    1.7135 H       1  LIG1        0.0235
     61 H          -2.2220    0.0099    2.0772 H       1  LIG1        0.0235
     62 H          -0.8130   -0.5662    2.9530 H       1  LIG1        0.0235
     63 H           1.8703   -1.5412   -3.3448 H       1  LIG1        0.0241
     64 H           1.9698    0.0596   -2.6369 H       1  LIG1        0.0241
     65 H           0.8681   -0.2335   -3.9816 H       1  LIG1        0.0241
@<TRIPOS>BOND
     1     2     3    1
     2     4     5    1
     3     5     6    1
     4     5     7    2
     5     2     8    2
     6     8     9    1
     7     9    10    2
     8    10    11    1
     9     3    11    1
    10    11    12    1
    11    12    13    1
    12    13    14    1
    13    14    15    1
    14    10    15    1
    15    15    16    1
    16    16    17    1
    17    17    18    1
    18    18    20    1
    19    14    20    1
    20    20    21    1
    21    21    22    1
    22    18    26    1
    23    26    27    1
    24    22    27    1
    25     1     2    1
    26     3     4    2
    27    11    31    1
    28    14    30    1
    29    15    29    1
    30    18    19    1
    31    20    25    1
    32    22    23    1
    33    22    24    1
    34    27    28    2
    35     1    32    1
    36     1    33    1
    37     1    34    1
    38     4    35    1
    39     6    36    1
    40     8    37    1
    41     9    38    1
    42    12    39    1
    43    12    40    1
    44    13    41    1
    45    13    42    1
    46    16    43    1
    47    16    44    1
    48    17    45    1
    49    17    46    1
    50    19    47    1
    51    19    48    1
    52    19    49    1
    53    21    50    1
    54    21    51    1
    55    24    52    1
    56    24    53    1
    57    24    54    1
    58    26    55    1
    59    26    56    1
    60    29    57    1
    61    29    58    1
    62    29    59    1
    63    30    60    1
    64    30    61    1
    65    30    62    1
    66    31    63    1
    67    31    64    1
    68    31    65    1
