REMARK  Name = NuBBE_583
REMARK  6 active torsions:
REMARK  status: ('A' for Active; 'I' for Inactive)
REMARK    1  A    between atoms: O_1  and  C_2
REMARK    2  A    between atoms: C_5  and  C_7
REMARK    3  A    between atoms: C_7  and  C_8
REMARK    4  A    between atoms: C_17  and  C_22
REMARK    5  A    between atoms: C_19  and  O_21
REMARK    6  A    between atoms: C_23  and  C_24
REMARK                            x       y       z     vdW  Elec       q    Type
REMARK                         _______ _______ _______ _____ _____    ______ ____
ROOT
ATOM      1  C   LIG A   1       0.985  -0.370   3.160  0.00  0.00    +0.148 C 
ATOM      2  C   LIG A   1       0.561  -1.685   2.526  0.00  0.00    +0.065 C 
ATOM      3  C   LIG A   1      -0.322  -1.497   1.289  0.00  0.00    +0.125 C 
ATOM      4  O   LIG A   1       0.325  -0.635   0.361  0.00  0.00    -0.366 OA
ATOM      5  C   LIG A   1       0.650   0.671   0.854  0.00  0.00    +0.172 C 
ATOM      6  C   LIG A   1       1.532   0.619   2.122  0.00  0.00    +0.175 C 
ENDROOT
BRANCH   1   7
ATOM      7  O   LIG A   1      -0.121   0.232   3.845  0.00  0.00    -0.389 OA
ATOM      8  H   LIG A   1      -0.334  -0.340   4.606  0.00  0.00    +0.210 HD
ENDBRANCH   1   7
BRANCH   6   9
ATOM      9  O   LIG A   1       1.615   1.915   2.739  0.00  0.00    -0.386 OA
ATOM     10  H   LIG A   1       0.801   1.987   3.282  0.00  0.00    +0.210 HD
ENDBRANCH   6   9
BRANCH   5  11
ATOM     11  C   LIG A   1       1.353   1.429  -0.253  0.00  0.00    +0.007 C 
ATOM     12  C   LIG A   1       1.659   0.940  -1.469  0.00  0.00    +0.006 C 
BRANCH  12  13
ATOM     13  C   LIG A   1       2.313   1.694  -2.546  0.00  0.00    -0.025 A 
ATOM     14  C   LIG A   1       3.053   0.994  -3.510  0.00  0.00    +0.008 A 
ATOM     15  C   LIG A   1       3.666   1.671  -4.568  0.00  0.00    +0.001 A 
ATOM     16  C   LIG A   1       3.538   3.053  -4.679  0.00  0.00    +0.000 A 
ATOM     17  C   LIG A   1       2.785   3.757  -3.742  0.00  0.00    +0.001 A 
ATOM     18  C   LIG A   1       2.170   3.080  -2.686  0.00  0.00    +0.008 A 
ENDBRANCH  12  13
ENDBRANCH   5  11
BRANCH   3  19
ATOM     19  C   LIG A   1      -1.776  -1.077   1.564  0.00  0.00    +0.076 C 
BRANCH  19  20
ATOM     20  C   LIG A   1      -2.635  -0.890   0.293  0.00  0.00    +0.183 C 
ATOM     21  O   LIG A   1      -3.976  -0.485   0.696  0.00  0.00    -0.458 OA
ATOM     22  C   LIG A   1      -4.922  -1.399   1.025  0.00  0.00    +0.332 C 
ATOM     23  C   LIG A   1      -4.629  -2.809   0.695  0.00  0.00    +0.087 C 
ATOM     24  C   LIG A   1      -3.612  -3.141  -0.108  0.00  0.00    -0.016 C 
ATOM     25  C   LIG A   1      -2.704  -2.090  -0.654  0.00  0.00    +0.072 C 
ATOM     26  O   LIG A   1      -5.982  -1.093   1.552  0.00  0.00    -0.246 OA
ENDBRANCH  19  20
ENDBRANCH   3  19
TORSDOF 6
