@<TRIPOS>MOLECULE
NuBBE_2388
 54 55 0 0 0
SMALL
GASTEIGER

@<TRIPOS>ATOM
      1 C          -1.5587   -0.5481   -0.7428 C.3     1  LIG1       -0.0587
      2 C          -0.6330   -0.5499    0.4969 C.3     1  LIG1       -0.0217
      3 C          -1.4018   -0.1967    1.8427 C.3     1  LIG1       -0.0193
      4 H          -0.6462   -0.3326    2.6363 H       1  LIG1        0.0317
      5 C          -2.5543   -1.1993    2.2307 C.3     1  LIG1        0.0681
      6 C          -3.7896   -1.0887    1.3112 C.2     1  LIG1        0.3110
      7 O          -4.3898   -0.0383    1.1196 O.2     1  LIG1       -0.2504
      8 O          -4.2385   -2.2260    0.7426 O.3     1  LIG1       -0.4802
      9 C          -3.1282   -0.8712    3.6352 C.3     1  LIG1       -0.0491
     10 C          -1.9129   -2.6053    2.3374 C.3     1  LIG1       -0.0372
     11 C          -1.0940   -3.0241    1.1167 C.3     1  LIG1       -0.0515
     12 C          -0.0545   -1.9826    0.6939 C.3     1  LIG1       -0.0468
     13 C          -1.7758    1.2947    1.9550 C.3     1  LIG1       -0.0450
     14 C          -0.5401    2.1722    1.7922 C.3     1  LIG1       -0.0314
     15 C           0.0304    1.9202    0.4238 C.2     1  LIG1       -0.0730
     16 C          -0.0356    2.8881   -0.5058 C.2     1  LIG1       -0.0992
     17 C           0.5563    0.4948    0.2422 C.3     1  LIG1       -0.0142
     18 H           1.2958    0.3348    1.0414 H       1  LIG1        0.0351
     19 C           1.3236    0.2560   -1.0943 C.3     1  LIG1       -0.0423
     20 C           2.6395    1.0488   -1.2314 C.3     1  LIG1       -0.0309
     21 C           3.3261    0.8299   -2.5696 C.2     1  LIG1       -0.0659
     22 C           3.5548    1.8716   -3.4151 C.2     1  LIG1        0.0213
     23 C           4.2376    1.7753   -4.7111 C.2     1  LIG1        0.3295
     24 O           4.4435    0.7460   -5.3417 O.2     1  LIG1       -0.2458
     25 O           4.6389    2.9918   -5.1469 O.3     1  LIG1       -0.4775
     26 C           3.7926   -0.5708   -2.8688 C.3     1  LIG1       -0.0433
     27 H          -2.3588   -1.2834   -0.6818 H       1  LIG1        0.0235
     28 H          -1.0108   -0.8216   -1.6504 H       1  LIG1        0.0235
     29 H          -2.0155    0.4314   -0.9097 H       1  LIG1        0.0235
     30 H          -3.7390   -3.0415    0.9081 H       1  LIG1        0.2951
     31 H          -3.6837    0.0738    3.6468 H       1  LIG1        0.0240
     32 H          -2.3373   -0.8044    4.3894 H       1  LIG1        0.0240
     33 H          -3.8380   -1.6439    3.9558 H       1  LIG1        0.0240
     34 H          -2.6674   -3.3709    2.5569 H       1  LIG1        0.0276
     35 H          -1.2367   -2.6180    3.2047 H       1  LIG1        0.0276
     36 H          -1.7513   -3.2505    0.2719 H       1  LIG1        0.0266
     37 H          -0.5779   -3.9638    1.3506 H       1  LIG1        0.0266
     38 H           0.4257   -2.3438   -0.2217 H       1  LIG1        0.0271
     39 H           0.7306   -1.9525    1.4616 H       1  LIG1        0.0271
     40 H          -2.2066    1.5147    2.9365 H       1  LIG1        0.0271
     41 H          -2.5230    1.5713    1.2042 H       1  LIG1        0.0271
     42 H           0.2091    1.9371    2.5594 H       1  LIG1        0.0310
     43 H          -0.8130    3.2235    1.9377 H       1  LIG1        0.0310
     44 H          -0.4601    3.8609   -0.2705 H       1  LIG1        0.0534
     45 H           0.2870    2.7474   -1.5301 H       1  LIG1        0.0534
     46 H           1.5588   -0.8089   -1.1688 H       1  LIG1        0.0274
     47 H           0.6857    0.4914   -1.9546 H       1  LIG1        0.0274
     48 H           3.3344    0.7735   -0.4279 H       1  LIG1        0.0310
     49 H           2.4442    2.1181   -1.0989 H       1  LIG1        0.0310
     50 H           3.2053    2.8610   -3.1252 H       1  LIG1        0.0688
     51 H           4.5130    3.7320   -4.5193 H       1  LIG1        0.2954
     52 H           3.4759   -1.2791   -2.0969 H       1  LIG1        0.0274
     53 H           4.8859   -0.6125   -2.9029 H       1  LIG1        0.0274
     54 H           3.3776   -0.9318   -3.8154 H       1  LIG1        0.0274
@<TRIPOS>BOND
     1     1     2    1
     2     2     3    1
     3     3     4    1
     4     3     5    1
     5     5     6    1
     6     6     7    2
     7     6     8    1
     8     5     9    1
     9     5    10    1
    10    10    11    1
    11    11    12    1
    12     2    12    1
    13     3    13    1
    14    13    14    1
    15    14    15    1
    16    15    16    2
    17    15    17    1
    18     2    17    1
    19    19    20    1
    20    20    21    1
    21    21    22    2
    22    22    23    1
    23    23    24    2
    24    23    25    1
    25    21    26    1
    26    17    19    1
    27    17    18    1
    28     1    27    1
    29     1    28    1
    30     1    29    1
    31     8    30    1
    32     9    31    1
    33     9    32    1
    34     9    33    1
    35    10    34    1
    36    10    35    1
    37    11    36    1
    38    11    37    1
    39    12    38    1
    40    12    39    1
    41    13    40    1
    42    13    41    1
    43    14    42    1
    44    14    43    1
    45    16    44    1
    46    16    45    1
    47    19    46    1
    48    19    47    1
    49    20    48    1
    50    20    49    1
    51    22    50    1
    52    25    51    1
    53    26    52    1
    54    26    53    1
    55    26    54    1
