@<TRIPOS>MOLECULE
NuBBE_866
 35 37 0 0 0
SMALL
GASTEIGER

@<TRIPOS>ATOM
      1 O          -5.0003    1.7731   -0.7613 O.3     1  LIG1       -0.5065
      2 C          -3.6569    1.9599   -0.6133 C.ar    1  LIG1        0.1238
      3 C          -3.0872    3.2268   -0.6916 C.ar    1  LIG1        0.0218
      4 C          -1.7086    3.3576   -0.5215 C.ar    1  LIG1        0.1270
      5 O          -1.1192    4.5892   -0.5958 O.3     1  LIG1       -0.5063
      6 C          -0.8964    2.2446   -0.2715 C.ar    1  LIG1        0.0384
      7 C          -1.4927    0.9779   -0.2339 C.ar    1  LIG1        0.1317
      8 O          -0.7921   -0.1778   -0.0051 O.3     1  LIG1       -0.4811
      9 C           0.6185   -0.0773   -0.2848 C.3     1  LIG1        0.1513
     10 H           0.7464    0.1062   -1.3631 H       1  LIG1        0.0811
     11 C           1.2224   -1.4505   -0.0276 C.ar    1  LIG1       -0.0012
     12 C           0.8284   -2.5199   -0.8628 C.ar    1  LIG1       -0.0513
     13 C           1.3432   -3.8093   -0.6924 C.ar    1  LIG1       -0.0162
     14 C           2.2588   -4.0389    0.3233 C.ar    1  LIG1        0.1582
     15 O           2.7991   -5.2751    0.5459 O.3     1  LIG1       -0.5033
     16 C           2.6545   -2.9978    1.1569 C.ar    1  LIG1        0.1586
     17 O           3.5549   -3.2346    2.1571 O.3     1  LIG1       -0.5033
     18 C           2.1480   -1.7131    0.9930 C.ar    1  LIG1       -0.0098
     19 C           1.2199    1.1189    0.4810 C.3     1  LIG1        0.1004
     20 H           2.3066    1.1703    0.3513 H       1  LIG1        0.0637
     21 O           0.9694    1.0431    1.8943 O.3     1  LIG1       -0.3875
     22 C           0.5880    2.4046   -0.0578 C.3     1  LIG1        0.0092
     23 C          -2.8714    0.8368   -0.3850 C.ar    1  LIG1        0.0221
     24 H          -5.4312    2.6347   -0.8811 H       1  LIG1        0.2921
     25 H          -3.7052    4.0969   -0.8796 H       1  LIG1        0.0691
     26 H          -1.8036    5.2658   -0.7247 H       1  LIG1        0.2921
     27 H           0.1014   -2.3444   -1.6551 H       1  LIG1        0.0623
     28 H           1.0156   -4.6050   -1.3529 H       1  LIG1        0.0655
     29 H           2.4152   -5.8914   -0.1010 H       1  LIG1        0.2923
     30 H           3.7504   -4.1900    2.0875 H       1  LIG1        0.2923
     31 H           2.4837   -0.9390    1.6774 H       1  LIG1        0.0659
     32 H           0.0541    0.7204    2.0011 H       1  LIG1        0.2100
     33 H           1.0430    2.6581   -1.0231 H       1  LIG1        0.0342
     34 H           0.7734    3.2253    0.6453 H       1  LIG1        0.0342
     35 H          -3.3300   -0.1464   -0.3294 H       1  LIG1        0.0691
@<TRIPOS>BOND
     1     1     2    1
     2     2     3   ar
     3     3     4   ar
     4     4     5    1
     5     4     6   ar
     6     6     7   ar
     7     7     8    1
     8     8     9    1
     9     9    10    1
    10     9    11    1
    11    11    12   ar
    12    12    13   ar
    13    13    14   ar
    14    14    15    1
    15    14    16   ar
    16    16    17    1
    17    16    18   ar
    18    11    18   ar
    19     9    19    1
    20    19    22    1
    21     6    22    1
    22     7    23   ar
    23     2    23   ar
    24    19    21    1
    25    19    20    1
    26     1    24    1
    27     3    25    1
    28     5    26    1
    29    12    27    1
    30    13    28    1
    31    15    29    1
    32    17    30    1
    33    18    31    1
    34    21    32    1
    35    22    33    1
    36    22    34    1
    37    23    35    1
