REMARK  Name = NuBBE_1513
REMARK  10 active torsions:
REMARK  status: ('A' for Active; 'I' for Inactive)
REMARK    1  A    between atoms: C_1  and  O_2
REMARK    2  A    between atoms: C_1  and  C_6
REMARK    3  A    between atoms: O_2  and  C_3
REMARK    4  A    between atoms: C_3  and  C_5
REMARK    5  A    between atoms: C_13  and  C_16
REMARK    6  A    between atoms: C_17  and  C_22
REMARK    7  A    between atoms: C_22  and  C_23
REMARK    8  A    between atoms: C_29  and  O_34
REMARK    9  A    between atoms: O_34  and  C_35
REMARK   10  A    between atoms: C_35  and  C_37
REMARK                            x       y       z     vdW  Elec       q    Type
REMARK                         _______ _______ _______ _____ _____    ______ ____
ROOT
ATOM      1  C   LIG A   1      -0.238   0.568  -1.341  0.00  0.00    +0.018 C 
ATOM      2  C   LIG A   1      -0.282   0.981   0.198  0.00  0.00    +0.002 C 
ATOM      3  C   LIG A   1      -1.274   0.129   1.050  0.00  0.00    -0.003 C 
ATOM      4  C   LIG A   1      -1.229   0.483   2.585  0.00  0.00    +0.006 C 
ATOM      5  C   LIG A   1       0.182   0.658   3.211  0.00  0.00    -0.019 C 
ATOM      6  C   LIG A   1       1.097   1.468   2.296  0.00  0.00    +0.008 C 
ATOM      7  C   LIG A   1       1.115   1.034   0.845  0.00  0.00    +0.005 C 
ATOM      8  C   LIG A   1       0.100   1.459   4.542  0.00  0.00    +0.012 C 
ATOM      9  C   LIG A   1       0.625  -0.814   3.474  0.00  0.00    +0.061 C 
ATOM     10  C   LIG A   1      -0.709  -1.415   3.918  0.00  0.00    +0.137 C 
ATOM     11  O   LIG A   1      -0.843  -2.477   4.511  0.00  0.00    -0.297 OA
ATOM     12  C   LIG A   1      -1.888  -0.559   3.502  0.00  0.00    +0.079 C 
ATOM     13  C   LIG A   1      -1.280  -1.369   0.673  0.00  0.00    +0.004 C 
ATOM     14  C   LIG A   1      -0.158  -1.807  -0.244  0.00  0.00    +0.004 C 
ATOM     15  C   LIG A   1      -0.053  -0.984  -1.529  0.00  0.00    +0.003 C 
ATOM     16  C   LIG A   1       1.284  -1.353  -2.207  0.00  0.00    +0.056 C 
ATOM     17  C   LIG A   1       1.439  -0.696  -3.576  0.00  0.00    +0.242 C 
ATOM     18  C   LIG A   1       1.235   0.805  -3.453  0.00  0.00    +0.174 C 
ATOM     19  O   LIG A   1       1.433   1.571  -4.397  0.00  0.00    -0.293 OA
ATOM     20  C   LIG A   1       0.904   1.340  -2.075  0.00  0.00    +0.089 C 
ENDROOT
BRANCH   9  21
ATOM     21  C   LIG A   1       1.784  -1.002   4.458  0.00  0.00    +0.008 C 
ATOM     22  C   LIG A   1       2.190  -2.460   4.656  0.00  0.00    +0.004 C 
ENDBRANCH   9  21
BRANCH   1  23
ATOM     23  C   LIG A   1      -1.597   0.986  -2.020  0.00  0.00    +0.240 C 
BRANCH  23  24
ATOM     24  O   LIG A   1      -1.806   2.412  -1.926  0.00  0.00    -0.464 OA
BRANCH  24  25
ATOM     25  C   LIG A   1      -1.958   3.093  -3.096  0.00  0.00    +0.304 C 
ATOM     26  O   LIG A   1      -1.973   2.599  -4.209  0.00  0.00    -0.251 OA
ATOM     27  C   LIG A   1      -2.150   4.565  -2.842  0.00  0.00    +0.136 C 
ENDBRANCH  24  25
ENDBRANCH  23  24
ENDBRANCH   1  23
BRANCH  17  28
ATOM     28  O   LIG A   1       0.469  -1.194  -4.504  0.00  0.00    -0.454 OA
BRANCH  28  29
ATOM     29  C   LIG A   1       0.800  -2.353  -5.126  0.00  0.00    +0.305 C 
ATOM     30  O   LIG A   1       1.784  -3.041  -4.904  0.00  0.00    -0.251 OA
ATOM     31  C   LIG A   1      -0.258  -2.675  -6.156  0.00  0.00    +0.136 C 
ENDBRANCH  28  29
ENDBRANCH  17  28
TORSDOF 6
