@<TRIPOS>MOLECULE
NuBBE_1810
 39 38 0 0 0
SMALL
GASTEIGER

@<TRIPOS>ATOM
      1 C          -5.3331    1.5762    0.4923 C.3     1  LIG1        0.0718
      2 O          -4.9125    0.6426    1.4768 O.3     1  LIG1       -0.2381
      3 O          -3.5077    0.4008    1.1831 O.3     1  LIG1       -0.2350
      4 C          -3.0582   -0.5250    2.1678 C.3     1  LIG1        0.0829
      5 C          -1.5353   -0.6034    2.0965 C.3     1  LIG1       -0.0265
      6 C          -0.8685    0.7331    2.4482 C.3     1  LIG1       -0.0509
      7 C           0.6641    0.6857    2.3991 C.3     1  LIG1       -0.0530
      8 C           1.2664    0.3051    1.0452 C.3     1  LIG1       -0.0531
      9 C           0.9627    1.3032   -0.0766 C.3     1  LIG1       -0.0530
     10 C           1.5504    0.8949   -1.4346 C.3     1  LIG1       -0.0509
     11 C           0.9999   -0.4368   -1.9464 C.3     1  LIG1       -0.0265
     12 C           1.5760   -0.8457   -3.3026 C.3     1  LIG1        0.0829
     13 O           2.9964   -0.9795   -3.2606 O.3     1  LIG1       -0.2350
     14 O           3.2672   -2.0985   -2.3628 O.3     1  LIG1       -0.2381
     15 C           4.6806   -2.2129   -2.3142 C.3     1  LIG1        0.0718
     16 H          -5.3909    1.0824   -0.4836 H       1  LIG1        0.0555
     17 H          -4.6372    2.4194    0.4440 H       1  LIG1        0.0555
     18 H          -6.3219    1.9503    0.7651 H       1  LIG1        0.0555
     19 H          -3.4926   -1.5063    1.9474 H       1  LIG1        0.0591
     20 H          -3.3830   -0.2107    3.1667 H       1  LIG1        0.0591
     21 H          -1.2590   -0.8902    1.0758 H       1  LIG1        0.0288
     22 H          -1.1773   -1.3850    2.7756 H       1  LIG1        0.0288
     23 H          -1.1687    1.0203    3.4652 H       1  LIG1        0.0266
     24 H          -1.2349    1.5272    1.7885 H       1  LIG1        0.0266
     25 H           1.0156   -0.0326    3.1488 H       1  LIG1        0.0265
     26 H           1.0551    1.6655    2.7019 H       1  LIG1        0.0265
     27 H           0.9195   -0.6972    0.7806 H       1  LIG1        0.0265
     28 H           2.3566    0.2261    1.1604 H       1  LIG1        0.0265
     29 H           1.3766    2.2827    0.1972 H       1  LIG1        0.0265
     30 H          -0.1180    1.4360   -0.1902 H       1  LIG1        0.0265
     31 H           2.6432    0.8531   -1.3625 H       1  LIG1        0.0266
     32 H           1.3147    1.6785   -2.1643 H       1  LIG1        0.0266
     33 H          -0.0913   -0.3859   -2.0201 H       1  LIG1        0.0288
     34 H           1.2355   -1.2303   -1.2285 H       1  LIG1        0.0288
     35 H           1.3363   -0.0895   -4.0568 H       1  LIG1        0.0591
     36 H           1.1366   -1.7936   -3.6363 H       1  LIG1        0.0591
     37 H           5.0345   -2.7043   -3.2255 H       1  LIG1        0.0555
     38 H           4.9510   -2.8251   -1.4508 H       1  LIG1        0.0555
     39 H           5.1511   -1.2303   -2.2098 H       1  LIG1        0.0555
@<TRIPOS>BOND
     1     1     2    1
     2     2     3    1
     3     3     4    1
     4     4     5    1
     5     5     6    1
     6     6     7    1
     7     7     8    1
     8     8     9    1
     9     9    10    1
    10    10    11    1
    11    11    12    1
    12    12    13    1
    13    13    14    1
    14    14    15    1
    15     1    16    1
    16     1    17    1
    17     1    18    1
    18     4    19    1
    19     4    20    1
    20     5    21    1
    21     5    22    1
    22     6    23    1
    23     6    24    1
    24     7    25    1
    25     7    26    1
    26     8    27    1
    27     8    28    1
    28     9    29    1
    29     9    30    1
    30    10    31    1
    31    10    32    1
    32    11    33    1
    33    11    34    1
    34    12    35    1
    35    12    36    1
    36    15    37    1
    37    15    38    1
    38    15    39    1
