REMARK  Name = NuBBE_2228
REMARK  1 active torsions:
REMARK  status: ('A' for Active; 'I' for Inactive)
REMARK    1  A    between atoms: O_1  and  C_2
REMARK                            x       y       z     vdW  Elec       q    Type
REMARK                         _______ _______ _______ _____ _____    ______ ____
ROOT
ATOM      1  C   LIG A   1      -0.443   2.602  -0.009  0.00  0.00    +0.125 A 
ATOM      2  C   LIG A   1       0.247   1.367  -0.009  0.00  0.00    +0.039 A 
ATOM      3  C   LIG A   1      -0.332  -0.034   0.020  0.00  0.00    +0.042 A 
ATOM      4  C   LIG A   1       0.581  -1.147  -0.002  0.00  0.00    +0.023 A 
ATOM      5  C   LIG A   1       1.968  -1.008  -0.048  0.00  0.00    +0.119 A 
ATOM      6  C   LIG A   1       2.558   0.336  -0.038  0.00  0.00    +0.212 C 
ATOM      7  O   LIG A   1       3.783   0.491  -0.037  0.00  0.00    -0.285 OA
ATOM      8  C   LIG A   1       1.665   1.511  -0.024  0.00  0.00    +0.035 A 
ATOM      9  C   LIG A   1       2.325   2.761  -0.025  0.00  0.00    +0.012 A 
ATOM     10  C   LIG A   1       1.602   3.934  -0.016  0.00  0.00    +0.004 A 
ATOM     11  C   LIG A   1       0.220   3.850  -0.011  0.00  0.00    +0.046 A 
ATOM     12  N   LIG A   1       2.868  -2.031  -0.081  0.00  0.00    -0.251 NA
ATOM     13  C   LIG A   1       2.390  -3.280  -0.071  0.00  0.00    +0.112 A 
ATOM     14  C   LIG A   1       1.045  -3.565  -0.021  0.00  0.00    +0.028 A 
ATOM     15  C   LIG A   1       0.137  -2.505   0.029  0.00  0.00    -0.010 A 
ATOM     16  C   LIG A   1      -1.213  -2.798   0.125  0.00  0.00    +0.058 A 
ATOM     17  C   LIG A   1      -2.085  -1.743   0.151  0.00  0.00    +0.167 A 
ATOM     18  C   LIG A   1      -1.681  -0.416   0.075  0.00  0.00    +0.175 A 
ATOM     19  O   LIG A   1      -2.791   0.389   0.067  0.00  0.00    -0.452 OA
ATOM     20  C   LIG A   1      -3.870  -0.575  -0.016  0.00  0.00    +0.466 C 
ATOM     21  O   LIG A   1      -3.432  -1.910   0.245  0.00  0.00    -0.453 OA
ENDROOT
BRANCH   1  22
ATOM     22  O   LIG A   1      -1.801   2.758  -0.008  0.00  0.00    -0.506 OA
ATOM     23  H   LIG A   1      -2.226   1.886   0.022  0.00  0.00    +0.292 HD
ENDBRANCH   1  22
TORSDOF 1
