@<TRIPOS>MOLECULE
NuBBE_2148
 57 60 0 0 0
SMALL
GASTEIGER

@<TRIPOS>ATOM
      1 C          -6.0316    0.1790    2.0733 C.3     1  LIG1        0.0790
      2 O          -4.6944    0.6575    1.9249 O.3     1  LIG1       -0.4913
      3 C          -3.8187   -0.1951    1.3073 C.ar    1  LIG1        0.1656
      4 C          -4.1517   -1.2175    0.4389 C.ar    1  LIG1        0.2075
      5 O          -5.3915   -1.5748   -0.0013 O.3     1  LIG1       -0.4489
      6 C          -5.0941   -2.7180   -0.8189 C.3     1  LIG1        0.2334
      7 O          -3.6844   -2.9791   -0.9300 O.3     1  LIG1       -0.4525
      8 C          -3.1783   -2.0165   -0.1073 C.ar    1  LIG1        0.1702
      9 C          -1.8315   -1.8392    0.1620 C.ar    1  LIG1       -0.0123
     10 C          -1.4233   -0.7954    1.0146 C.ar    1  LIG1       -0.0336
     11 C           0.0632   -0.5209    1.3397 C.3     1  LIG1        0.0264
     12 H           0.1496   -0.7442    2.4171 H       1  LIG1        0.0385
     13 C           1.2389   -1.4229    0.5917 C.3     1  LIG1       -0.0211
     14 H           0.7514   -2.3209    0.1941 H       1  LIG1        0.0314
     15 C           2.3113   -2.0063    1.5186 C.3     1  LIG1       -0.0609
     16 C           1.7951   -0.5595   -0.6475 C.3     1  LIG1        0.0410
     17 C           1.8986   -1.4576   -1.9108 C.3     1  LIG1       -0.0222
     18 C           2.4661   -0.8767   -3.1824 C.2     1  LIG1       -0.0902
     19 C           3.7665   -0.9820   -3.5191 C.2     1  LIG1       -0.1026
     20 C           0.6149    0.2564   -0.4953 C.2     1  LIG1        0.1748
     21 O          -0.2280    0.4285   -1.3812 O.2     1  LIG1       -0.2936
     22 C           2.7579    0.7114   -0.5942 C.3     1  LIG1       -0.0110
     23 C           2.0608    2.2231   -0.4717 C.3     1  LIG1        0.0882
     24 H           2.7775    2.8321    0.0970 H       1  LIG1        0.0623
     25 O           1.8636    2.8285   -1.7525 O.3     1  LIG1       -0.3771
     26 C           3.0614    3.3024   -2.3599 C.3     1  LIG1        0.0369
     27 C           0.6566    2.2433    0.3670 C.3     1  LIG1        0.1176
     28 H           0.7830    3.0401    1.1021 H       1  LIG1        0.0653
     29 O          -0.5296    2.6802   -0.2885 O.3     1  LIG1       -0.3859
     30 C           0.6121    0.8786    1.0272 C.3     1  LIG1        0.1621
     31 O           1.7793    0.9237    1.9102 O.3     1  LIG1       -0.3658
     32 C           1.6993    1.8255    3.0218 C.3     1  LIG1        0.0379
     33 C          -2.4446    0.0168    1.5792 C.ar    1  LIG1       -0.0125
     34 H          -6.5896    0.9082    2.6686 H       1  LIG1        0.0660
     35 H          -6.0476   -0.7743    2.6142 H       1  LIG1        0.0660
     36 H          -6.5535    0.1027    1.1145 H       1  LIG1        0.0660
     37 H          -5.5116   -2.5604   -1.8205 H       1  LIG1        0.1166
     38 H          -5.5824   -3.5935   -0.3744 H       1  LIG1        0.1166
     39 H          -1.1409   -2.5072   -0.3352 H       1  LIG1        0.0658
     40 H           3.0879   -1.2860    1.7844 H       1  LIG1        0.0233
     41 H           2.8008   -2.8575    1.0384 H       1  LIG1        0.0233
     42 H           1.8561   -2.3876    2.4372 H       1  LIG1        0.0233
     43 H           2.5049   -2.3377   -1.6515 H       1  LIG1        0.0317
     44 H           0.8982   -1.8629   -2.1692 H       1  LIG1        0.0317
     45 H           1.7868   -0.3876   -3.8670 H       1  LIG1        0.0567
     46 H           4.4765   -1.4743   -2.8572 H       1  LIG1        0.0532
     47 H           4.1536   -0.5637   -4.4374 H       1  LIG1        0.0532
     48 H           3.3616    0.7363   -1.5113 H       1  LIG1        0.0301
     49 H           3.4841    0.5859    0.2035 H       1  LIG1        0.0301
     50 H           2.8388    3.5766   -3.3950 H       1  LIG1        0.0524
     51 H           3.8374    2.5347   -2.3782 H       1  LIG1        0.0524
     52 H           3.4425    4.1884   -1.8417 H       1  LIG1        0.0524
     53 H          -0.6571    2.1215   -1.0838 H       1  LIG1        0.2100
     54 H           1.8060    2.8715    2.7152 H       1  LIG1        0.0524
     55 H           2.5521    1.6404    3.6830 H       1  LIG1        0.0524
     56 H           0.7726    1.6932    3.5855 H       1  LIG1        0.0524
     57 H          -2.1827    0.8330    2.2516 H       1  LIG1        0.0658
@<TRIPOS>BOND
     1     1     2    1
     2     2     3    1
     3     3     4   ar
     4     4     5    1
     5     5     6    1
     6     6     7    1
     7     4     8   ar
     8     7     8    1
     9     8     9   ar
    10     9    10   ar
    11    11    13    1
    12    13    16    1
    13    17    18    1
    14    18    19    2
    15    16    20    1
    16    16    22    1
    17    22    23    1
    18    25    26    1
    19    23    27    1
    20    27    30    1
    21    20    30    1
    22    11    30    1
    23    31    32    1
    24    10    33   ar
    25     3    33   ar
    26    10    11    1
    27    11    12    1
    28    13    14    1
    29    13    15    1
    30    16    17    1
    31    20    21    2
    32    30    31    1
    33    23    25    1
    34    23    24    1
    35    27    29    1
    36    27    28    1
    37     1    34    1
    38     1    35    1
    39     1    36    1
    40     6    37    1
    41     6    38    1
    42     9    39    1
    43    15    40    1
    44    15    41    1
    45    15    42    1
    46    17    43    1
    47    17    44    1
    48    18    45    1
    49    19    46    1
    50    19    47    1
    51    22    48    1
    52    22    49    1
    53    26    50    1
    54    26    51    1
    55    26    52    1
    56    29    53    1
    57    32    54    1
    58    32    55    1
    59    32    56    1
    60    33    57    1
