REMARK  Name = NuBBE_1096
REMARK  7 active torsions:
REMARK  status: ('A' for Active; 'I' for Inactive)
REMARK    1  A    between atoms: C_1  and  C_2
REMARK    2  A    between atoms: C_4  and  C_5
REMARK    3  A    between atoms: C_6  and  C_14
REMARK    4  A    between atoms: C_23  and  C_24
REMARK    5  A    between atoms: C_28  and  O_30
REMARK    6  A    between atoms: C_31  and  C_32
REMARK    7  A    between atoms: C_31  and  C_33
REMARK                            x       y       z     vdW  Elec       q    Type
REMARK                         _______ _______ _______ _____ _____    ______ ____
ROOT
ATOM      1  C   LIG A   1      -0.054   0.410   2.082  0.00  0.00    +0.017 C 
ATOM      2  C   LIG A   1       0.591   0.008   0.733  0.00  0.00    +0.030 C 
ATOM      3  C   LIG A   1       0.751  -1.583   0.614  0.00  0.00    +0.124 C 
ATOM      4  C   LIG A   1      -0.455  -2.455   0.305  0.00  0.00    +0.042 C 
ATOM      5  C   LIG A   1      -0.052  -3.694  -0.559  0.00  0.00    +0.018 C 
ATOM      6  C   LIG A   1      -0.955  -3.014   1.723  0.00  0.00    +0.218 C 
ATOM      7  O   LIG A   1      -0.281  -2.408   2.885  0.00  0.00    -0.454 OA
ATOM      8  C   LIG A   1       1.085  -2.236   2.894  0.00  0.00    +0.340 C 
ATOM      9  O   LIG A   1       1.717  -1.901   3.883  0.00  0.00    -0.248 OA
ATOM     10  C   LIG A   1       1.708  -2.557   1.608  0.00  0.00    +0.260 C 
ATOM     11  O   LIG A   1       2.079  -1.927   0.408  0.00  0.00    -0.352 OA
ATOM     12  C   LIG A   1      -1.502  -1.735  -0.585  0.00  0.00    +0.014 C 
ATOM     13  C   LIG A   1      -1.667  -0.237  -0.390  0.00  0.00    +0.006 C 
ATOM     14  C   LIG A   1      -0.289   0.456  -0.496  0.00  0.00    +0.010 C 
ATOM     15  C   LIG A   1      -0.356   1.997  -0.845  0.00  0.00    -0.006 C 
ATOM     16  C   LIG A   1      -1.286   2.792   0.113  0.00  0.00    +0.016 C 
ATOM     17  C   LIG A   1       1.060   2.687  -0.830  0.00  0.00    +0.014 C 
ATOM     18  C   LIG A   1       1.885   2.239   0.393  0.00  0.00    +0.037 C 
ATOM     19  C   LIG A   1       1.977   0.727   0.604  0.00  0.00    +0.124 C 
ATOM     20  C   LIG A   1       1.860   2.707  -2.190  0.00  0.00    +0.031 C 
ATOM     21  C   LIG A   1       2.998   3.757  -2.113  0.00  0.00    +0.019 C 
ATOM     22  C   LIG A   1       2.492   1.379  -2.628  0.00  0.00    +0.019 C 
ATOM     23  C   LIG A   1       0.935   3.140  -3.332  0.00  0.00    +0.162 C 
ATOM     24  O   LIG A   1       1.322   3.760  -4.321  0.00  0.00    -0.292 OA
ATOM     25  C   LIG A   1      -0.471   2.702  -3.304  0.00  0.00    +0.043 C 
ATOM     26  C   LIG A   1      -1.021   2.172  -2.208  0.00  0.00    -0.016 C 
ENDROOT
BRANCH   6  27
ATOM     27  C   LIG A   1      -2.442  -2.999   1.931  0.00  0.00    +0.031 A 
ATOM     28  C   LIG A   1      -3.387  -3.963   1.467  0.00  0.00    +0.048 A 
ATOM     29  C   LIG A   1      -4.623  -3.542   1.900  0.00  0.00    +0.195 A 
ATOM     30  O   LIG A   1      -4.507  -2.395   2.613  0.00  0.00    -0.471 OA
ATOM     31  C   LIG A   1      -3.188  -2.080   2.643  0.00  0.00    +0.202 A 
ENDBRANCH   6  27
BRANCH  19  32
ATOM     32  O   LIG A   1       2.808   0.495   1.745  0.00  0.00    -0.391 OA
ATOM     33  H   LIG A   1       2.491   1.023   2.497  0.00  0.00    +0.210 HD
ENDBRANCH  19  32
TORSDOF 2
