REMARK  Name = NuBBE_287
REMARK  6 active torsions:
REMARK  status: ('A' for Active; 'I' for Inactive)
REMARK    1  A    between atoms: O_1  and  C_2
REMARK    2  A    between atoms: C_4  and  C_16
REMARK    3  A    between atoms: C_10  and  O_11
REMARK    4  A    between atoms: C_13  and  O_15
REMARK    5  A    between atoms: C_18  and  O_19
REMARK    6  A    between atoms: C_20  and  O_23
REMARK                            x       y       z     vdW  Elec       q    Type
REMARK                         _______ _______ _______ _____ _____    ______ ____
ROOT
ATOM      1  C   LIG A   1      -1.163   1.021  -0.336  0.00  0.00    +0.164 C 
ATOM      2  C   LIG A   1      -0.606  -0.186   0.445  0.00  0.00    +0.232 C 
ATOM      3  O   LIG A   1       0.825  -0.254   0.372  0.00  0.00    -0.481 OA
ATOM      4  C   LIG A   1       1.488   0.921   0.598  0.00  0.00    +0.132 A 
ATOM      5  C   LIG A   1       0.881   2.184   0.561  0.00  0.00    +0.038 A 
ATOM      6  C   LIG A   1      -0.584   2.302   0.262  0.00  0.00    +0.078 C 
ATOM      7  C   LIG A   1       1.678   3.307   0.829  0.00  0.00    +0.127 A 
ATOM      8  C   LIG A   1       3.044   3.184   1.081  0.00  0.00    +0.091 A 
ATOM      9  C   LIG A   1       3.625   1.924   1.079  0.00  0.00    +0.124 A 
ATOM     10  C   LIG A   1       2.857   0.793   0.841  0.00  0.00    +0.091 A 
ENDROOT
BRANCH   2  11
ATOM     11  C   LIG A   1      -1.150  -1.503  -0.092  0.00  0.00    -0.001 A 
ATOM     12  C   LIG A   1      -0.665  -2.048  -1.296  0.00  0.00    +0.056 A 
ATOM     13  C   LIG A   1      -1.185  -3.247  -1.772  0.00  0.00    +0.159 A 
ATOM     14  C   LIG A   1      -2.188  -3.906  -1.070  0.00  0.00    +0.158 A 
ATOM     15  C   LIG A   1      -2.683  -3.388   0.116  0.00  0.00    +0.049 A 
ATOM     16  C   LIG A   1      -2.163  -2.188   0.608  0.00  0.00    +0.011 A 
BRANCH  13  17
ATOM     17  O   LIG A   1      -0.736  -3.819  -2.930  0.00  0.00    -0.503 OA
ATOM     18  H   LIG A   1      -0.014  -3.268  -3.277  0.00  0.00    +0.292 HD
ENDBRANCH  13  17
BRANCH  14  19
ATOM     19  O   LIG A   1      -2.695  -5.081  -1.547  0.00  0.00    -0.503 OA
ATOM     20  H   LIG A   1      -2.198  -5.241  -2.374  0.00  0.00    +0.292 HD
ENDBRANCH  14  19
ENDBRANCH   2  11
BRANCH   1  21
ATOM     21  O   LIG A   1      -2.590   1.132  -0.302  0.00  0.00    -0.388 OA
ATOM     22  H   LIG A   1      -2.928   0.664   0.480  0.00  0.00    +0.210 HD
ENDBRANCH   1  21
BRANCH   7  23
ATOM     23  O   LIG A   1       1.185   4.582   0.859  0.00  0.00    -0.506 OA
ATOM     24  H   LIG A   1       0.221   4.572   0.753  0.00  0.00    +0.292 HD
ENDBRANCH   7  23
BRANCH   9  25
ATOM     25  O   LIG A   1       4.957   1.754   1.314  0.00  0.00    -0.506 OA
ATOM     26  H   LIG A   1       5.361   2.626   1.456  0.00  0.00    +0.292 HD
ENDBRANCH   9  25
TORSDOF 6
