REMARK  Name = NuBBE_1687
REMARK  14 active torsions:
REMARK  status: ('A' for Active; 'I' for Inactive)
REMARK    1  A    between atoms: C_2  and  C_3
REMARK    2  A    between atoms: C_3  and  C_4
REMARK    3  A    between atoms: C_5  and  C_6
REMARK    4  A    between atoms: C_6  and  C_7
REMARK    5  A    between atoms: C_8  and  C_9
REMARK    6  A    between atoms: C_9  and  C_10
REMARK    7  A    between atoms: C_10  and  C_11
REMARK    8  A    between atoms: C_11  and  C_12
REMARK    9  A    between atoms: C_12  and  C_13
REMARK   10  A    between atoms: C_13  and  C_14
REMARK   11  A    between atoms: C_14  and  C_15
REMARK   12  A    between atoms: C_15  and  C_16
REMARK   13  A    between atoms: C_18  and  O_19
REMARK   14  A    between atoms: C_21  and  O_22
REMARK                            x       y       z     vdW  Elec       q    Type
REMARK                         _______ _______ _______ _____ _____    ______ ____
ROOT
ATOM      1  C   LIG A   1      -0.911   0.444   1.539  0.00  0.00    +0.000 C 
ENDROOT
BRANCH   1   2
ATOM      2  C   LIG A   1      -1.451   1.890   1.735  0.00  0.00    +0.000 C 
BRANCH   2   3
ATOM      3  C   LIG A   1      -0.466   3.087   1.894  0.00  0.00    +0.000 C 
BRANCH   3   4
ATOM      4  C   LIG A   1       0.306   3.558   0.675  0.00  0.00    +0.004 C 
BRANCH   4   5
ATOM      5  C   LIG A   1       1.324   2.532   0.239  0.00  0.00    +0.027 C 
BRANCH   5   7
ATOM      6  C   LIG A   1       1.285   0.281  -1.067  0.00  0.00    -0.027 C 
ATOM      7  C   LIG A   1       0.738   1.440  -0.637  0.00  0.00    -0.031 C 
BRANCH   6   8
ATOM      8  C   LIG A   1       2.723  -0.106  -1.196  0.00  0.00    +0.054 C 
BRANCH   8  10
ATOM      9  C   LIG A   1       4.166   1.857  -0.556  0.00  0.00    -0.027 C 
ATOM     10  C   LIG A   1       3.635   0.652  -0.319  0.00  0.00    -0.027 C 
BRANCH   9  11
ATOM     11  C   LIG A   1       4.082   2.715  -1.830  0.00  0.00    +0.053 C 
BRANCH  11  13
ATOM     12  C   LIG A   1       2.358   4.132  -3.187  0.00  0.00    +0.004 C 
ATOM     13  C   LIG A   1       2.734   3.114  -2.332  0.00  0.00    -0.031 C 
ENDBRANCH  11  13
ENDBRANCH   9  11
ENDBRANCH   8  10
ENDBRANCH   6   8
ENDBRANCH   5   7
ENDBRANCH   4   5
ENDBRANCH   3   4
ENDBRANCH   2   3
ENDBRANCH   1   2
BRANCH   1  14
ATOM     14  C   LIG A   1      -1.915  -0.692   1.262  0.00  0.00    +0.005 C 
BRANCH  14  15
ATOM     15  C   LIG A   1      -1.213  -2.001   0.750  0.00  0.00    +0.035 C 
BRANCH  15  16
ATOM     16  C   LIG A   1      -2.056  -3.256   0.571  0.00  0.00    -0.041 A 
ATOM     17  C   LIG A   1      -3.446  -3.272   0.738  0.00  0.00    +0.049 A 
ATOM     18  C   LIG A   1      -4.169  -4.454   0.534  0.00  0.00    +0.121 A 
ATOM     19  C   LIG A   1      -3.541  -5.639   0.168  0.00  0.00    +0.090 A 
ATOM     20  C   LIG A   1      -2.164  -5.634   0.001  0.00  0.00    +0.121 A 
ATOM     21  C   LIG A   1      -1.427  -4.460   0.187  0.00  0.00    +0.049 A 
BRANCH  18  22
ATOM     22  O   LIG A   1      -5.526  -4.489   0.685  0.00  0.00    -0.507 OA
ATOM     23  H   LIG A   1      -5.827  -3.613   0.976  0.00  0.00    +0.292 HD
ENDBRANCH  18  22
BRANCH  20  24
ATOM     24  O   LIG A   1      -1.488  -6.768  -0.349  0.00  0.00    -0.507 OA
ATOM     25  H   LIG A   1      -2.125  -7.499  -0.427  0.00  0.00    +0.292 HD
ENDBRANCH  20  24
ENDBRANCH  15  16
ENDBRANCH  14  15
ENDBRANCH   1  14
TORSDOF 14
