@<TRIPOS>MOLECULE
NuBBE_2480
 49 52 0 0 0
SMALL
GASTEIGER

@<TRIPOS>ATOM
      1 C           0.0933    3.4601    1.6454 C.3     1  LIG1       -0.0546
      2 C           0.0208    1.9450    1.4642 C.3     1  LIG1        0.0261
      3 H          -0.3870    1.4791    2.3684 H       1  LIG1        0.0387
      4 C           1.4028    1.3434    1.0754 C.3     1  LIG1        0.1320
      5 H           2.2140    2.0440    1.3128 H       1  LIG1        0.0790
      6 O           1.4336    1.1635   -0.3665 O.3     1  LIG1       -0.4832
      7 C           0.1151    1.1657   -0.7395 C.ar    1  LIG1        0.1287
      8 C          -0.7578    1.5903    0.2433 C.ar    1  LIG1        0.0046
      9 C          -2.1197    1.6268   -0.0113 C.ar    1  LIG1       -0.0093
     10 C          -2.5896    1.2120   -1.2742 C.ar    1  LIG1        0.1620
     11 C          -1.6734    0.8009   -2.2751 C.ar    1  LIG1        0.1658
     12 C          -0.3100    0.7425   -1.9793 C.ar    1  LIG1        0.0258
     13 O          -2.1519    0.4151   -3.4989 O.3     1  LIG1       -0.4842
     14 C          -1.3296    0.7027   -4.6314 C.3     1  LIG1        0.1077
     15 C          -2.0921    0.2657   -5.8501 C.2     1  LIG1       -0.0542
     16 C          -2.0051    0.8363   -7.0498 C.2     1  LIG1       -0.0995
     17 O          -3.9574    1.2852   -1.4016 O.3     1  LIG1       -0.4914
     18 C          -4.5503    0.4154   -2.3617 C.3     1  LIG1        0.0790
     19 C           1.7201    0.0131    1.7519 C.ar    1  LIG1        0.0004
     20 C           1.3132   -1.2077    1.1897 C.ar    1  LIG1       -0.0092
     21 C           1.6016   -2.3754    1.8597 C.ar    1  LIG1        0.1703
     22 C           2.2820   -2.3896    3.0555 C.ar    1  LIG1        0.2075
     23 C           2.7280   -1.2146    3.6363 C.ar    1  LIG1        0.1657
     24 C           2.4327   -0.0093    2.9738 C.ar    1  LIG1       -0.0094
     25 O           3.4353   -1.0721    4.7965 O.3     1  LIG1       -0.4913
     26 C           3.7532   -2.2671    5.5008 C.3     1  LIG1        0.0790
     27 O           2.4218   -3.6626    3.5231 O.3     1  LIG1       -0.4489
     28 C           1.7441   -4.4245    2.5082 C.3     1  LIG1        0.2334
     29 O           1.2493   -3.6171    1.4288 O.3     1  LIG1       -0.4525
     30 H           0.4914    3.9573    0.7527 H       1  LIG1        0.0237
     31 H           0.7404    3.7191    2.4901 H       1  LIG1        0.0237
     32 H          -0.8998    3.8802    1.8394 H       1  LIG1        0.0237
     33 H          -2.8230    1.9539    0.7501 H       1  LIG1        0.0659
     34 H           0.4222    0.3378   -2.6646 H       1  LIG1        0.0692
     35 H          -0.4022    0.1238   -4.5948 H       1  LIG1        0.0742
     36 H          -1.1110    1.7771   -4.6738 H       1  LIG1        0.0742
     37 H          -2.7583   -0.5872   -5.7167 H       1  LIG1        0.0600
     38 H          -1.3446    1.6792   -7.2422 H       1  LIG1        0.0533
     39 H          -2.5913    0.4620   -7.8882 H       1  LIG1        0.0533
     40 H          -5.6208    0.3485   -2.1476 H       1  LIG1        0.0660
     41 H          -4.1412   -0.5993   -2.2959 H       1  LIG1        0.0660
     42 H          -4.4559    0.8279   -3.3711 H       1  LIG1        0.0660
     43 H           0.7819   -1.2611    0.2459 H       1  LIG1        0.0659
     44 H           2.7732    0.9246    3.4193 H       1  LIG1        0.0659
     45 H           4.3771   -1.9969    6.3576 H       1  LIG1        0.0660
     46 H           4.3390   -2.9559    4.8829 H       1  LIG1        0.0660
     47 H           2.8458   -2.7419    5.8888 H       1  LIG1        0.0660
     48 H           0.8993   -4.9487    2.9694 H       1  LIG1        0.1166
     49 H           2.4409   -5.1672    2.1043 H       1  LIG1        0.1166
@<TRIPOS>BOND
     1     2     4    1
     2     4     6    1
     3     6     7    1
     4     7     8   ar
     5     2     8    1
     6     8     9   ar
     7     9    10   ar
     8    10    11   ar
     9    11    12   ar
    10     7    12   ar
    11    11    13    1
    12    13    14    1
    13    14    15    1
    14    15    16    2
    15    10    17    1
    16    17    18    1
    17    19    20   ar
    18    20    21   ar
    19    21    22   ar
    20    22    23   ar
    21    23    24   ar
    22    19    24   ar
    23    23    25    1
    24    25    26    1
    25    22    27    1
    26    27    28    1
    27    28    29    1
    28    21    29    1
    29     2     3    1
    30     2     1    1
    31     4    19    1
    32     4     5    1
    33     1    30    1
    34     1    31    1
    35     1    32    1
    36     9    33    1
    37    12    34    1
    38    14    35    1
    39    14    36    1
    40    15    37    1
    41    16    38    1
    42    16    39    1
    43    18    40    1
    44    18    41    1
    45    18    42    1
    46    20    43    1
    47    24    44    1
    48    26    45    1
    49    26    46    1
    50    26    47    1
    51    28    48    1
    52    28    49    1
