@<TRIPOS>MOLECULE
NuBBE_2369
 49 52 0 0 0
SMALL
GASTEIGER

@<TRIPOS>ATOM
      1 C          -1.1266    5.7747   -0.2254 C.ar    1  LIG1       -0.0159
      2 C          -0.0813    6.3635   -0.9032 C.ar    1  LIG1        0.1662
      3 C           1.0277    5.6460   -1.2798 C.ar    1  LIG1        0.1665
      4 C           1.1561    4.3027   -0.9937 C.ar    1  LIG1       -0.0129
      5 C           0.1221    3.6686   -0.2822 C.ar    1  LIG1       -0.0429
      6 C          -1.0210    4.4129    0.0877 C.ar    1  LIG1       -0.0549
      7 C           0.2522    2.2090    0.0996 C.3     1  LIG1       -0.0143
      8 C          -0.3419    1.2222   -0.9080 C.3     1  LIG1        0.0666
      9 H          -1.4010    1.4155   -1.0840 H       1  LIG1        0.0420
     10 C           0.4133    1.2882   -2.2153 C.2     1  LIG1        0.3109
     11 O           0.2059    2.0887   -3.1099 O.2     1  LIG1       -0.2505
     12 O           1.3798    0.3271   -2.2721 O.3     1  LIG1       -0.4641
     13 C           1.2800   -0.4963   -1.1264 C.3     1  LIG1        0.0963
     14 C          -0.1249   -0.2631   -0.5926 C.3     1  LIG1        0.0105
     15 H          -0.8120   -0.8196   -1.2475 H       1  LIG1        0.0345
     16 C          -0.3272   -0.7157    0.8533 C.3     1  LIG1       -0.0209
     17 C          -0.1579   -2.2112    1.0357 C.ar    1  LIG1       -0.0433
     18 C          -0.9853   -3.1132    0.3475 C.ar    1  LIG1       -0.0131
     19 C          -0.8300   -4.4975    0.4983 C.ar    1  LIG1        0.1617
     20 C           0.1665   -4.9969    1.3520 C.ar    1  LIG1        0.1615
     21 C           0.9931   -4.1039    2.0401 C.ar    1  LIG1       -0.0160
     22 C           0.8280   -2.7220    1.8878 C.ar    1  LIG1       -0.0549
     23 O           0.2847   -6.3619    1.4336 O.3     1  LIG1       -0.4915
     24 C           0.7800   -6.8725    2.6652 C.3     1  LIG1        0.0790
     25 O          -1.5871   -5.4220   -0.1788 O.3     1  LIG1       -0.4914
     26 C          -2.9125   -5.0213   -0.5040 C.3     1  LIG1        0.0790
     27 O           1.9489    6.4127   -1.9233 O.3     1  LIG1       -0.4526
     28 C           1.3373    7.7138   -1.8114 C.3     1  LIG1        0.2332
     29 O           0.0023    7.6729   -1.2630 O.3     1  LIG1       -0.4526
     30 H          -1.9943    6.3548    0.0678 H       1  LIG1        0.0655
     31 H           2.0429    3.7666   -1.3155 H       1  LIG1        0.0658
     32 H          -1.8316    3.9371    0.6365 H       1  LIG1        0.0621
     33 H          -0.2414    2.0734    1.0714 H       1  LIG1        0.0321
     34 H           1.3135    1.9978    0.2802 H       1  LIG1        0.0321
     35 H           2.0627   -0.2029   -0.4058 H       1  LIG1        0.0700
     36 H           1.4444   -1.5373   -1.4090 H       1  LIG1        0.0700
     37 H           0.3659   -0.1883    1.5195 H       1  LIG1        0.0317
     38 H          -1.3384   -0.4479    1.1855 H       1  LIG1        0.0317
     39 H          -1.7397   -2.7201   -0.3258 H       1  LIG1        0.0658
     40 H           1.7877   -4.4601    2.6880 H       1  LIG1        0.0655
     41 H           1.4889   -2.0535    2.4362 H       1  LIG1        0.0621
     42 H           0.5718   -7.9467    2.6898 H       1  LIG1        0.0660
     43 H           0.2748   -6.4161    3.5236 H       1  LIG1        0.0660
     44 H           1.8646   -6.7430    2.7331 H       1  LIG1        0.0660
     45 H          -3.4370   -4.6327    0.3760 H       1  LIG1        0.0660
     46 H          -3.4545   -5.9055   -0.8544 H       1  LIG1        0.0660
     47 H          -2.9156   -4.2903   -1.3190 H       1  LIG1        0.0660
     48 H           1.3041    8.1801   -2.8034 H       1  LIG1        0.1166
     49 H           1.9622    8.3335   -1.1548 H       1  LIG1        0.1166
@<TRIPOS>BOND
     1     1     2   ar
     2     2     3   ar
     3     3     4   ar
     4     4     5   ar
     5     5     6   ar
     6     1     6   ar
     7     5     7    1
     8     7     8    1
     9     8     9    1
    10     8    10    1
    11    10    11    2
    12    10    12    1
    13    12    13    1
    14    13    14    1
    15     8    14    1
    16    16    17    1
    17    17    18   ar
    18    18    19   ar
    19    19    20   ar
    20    20    21   ar
    21    21    22   ar
    22    17    22   ar
    23    20    23    1
    24    23    24    1
    25    19    25    1
    26    25    26    1
    27     3    27    1
    28    27    28    1
    29    28    29    1
    30     2    29    1
    31    14    16    1
    32    14    15    1
    33     1    30    1
    34     4    31    1
    35     6    32    1
    36     7    33    1
    37     7    34    1
    38    13    35    1
    39    13    36    1
    40    16    37    1
    41    16    38    1
    42    18    39    1
    43    21    40    1
    44    22    41    1
    45    24    42    1
    46    24    43    1
    47    24    44    1
    48    26    45    1
    49    26    46    1
    50    26    47    1
    51    28    48    1
    52    28    49    1
