REMARK  Name = NuBBE_632
REMARK  17 active torsions:
REMARK  status: ('A' for Active; 'I' for Inactive)
REMARK    1  A    between atoms: C_2  and  O_3
REMARK    2  A    between atoms: C_2  and  C_16
REMARK    3  A    between atoms: O_3  and  C_4
REMARK    4  A    between atoms: C_4  and  C_5
REMARK    5  A    between atoms: C_5  and  C_6
REMARK    6  A    between atoms: C_6  and  C_7
REMARK    7  A    between atoms: C_7  and  C_8
REMARK    8  A    between atoms: C_8  and  C_9
REMARK    9  A    between atoms: C_9  and  C_10
REMARK   10  A    between atoms: C_10  and  C_11
REMARK   11  A    between atoms: C_11  and  C_12
REMARK   12  A    between atoms: C_12  and  C_13
REMARK   13  A    between atoms: C_13  and  C_14
REMARK   14  A    between atoms: C_14  and  C_15
REMARK   15  A    between atoms: C_18  and  O_19
REMARK   16  A    between atoms: C_20  and  O_21
REMARK   17  A    between atoms: C_22  and  O_23
REMARK                            x       y       z     vdW  Elec       q    Type
REMARK                         _______ _______ _______ _____ _____    ______ ____
ROOT
ATOM      1  O   LIG A   1       4.089   0.948  -1.077  0.00  0.00    -0.245 OA
ATOM      2  C   LIG A   1       3.570   0.375  -1.946  0.00  0.00    +0.339 C 
ENDROOT
BRANCH   2   3
ATOM      3  C   LIG A   1       3.405  -1.117  -2.010  0.00  0.00    +0.066 A 
ATOM      4  C   LIG A   1       4.347  -1.903  -1.338  0.00  0.00    +0.064 A 
ATOM      5  C   LIG A   1       4.200  -3.286  -1.368  0.00  0.00    +0.163 A 
ATOM      6  C   LIG A   1       3.121  -3.867  -2.033  0.00  0.00    +0.201 A 
ATOM      7  C   LIG A   1       2.168  -3.076  -2.655  0.00  0.00    +0.163 A 
ATOM      8  C   LIG A   1       2.293  -1.700  -2.640  0.00  0.00    +0.064 A 
BRANCH   7   9
ATOM      9  O   LIG A   1       1.104  -3.638  -3.295  0.00  0.00    -0.503 OA
ATOM     10  H   LIG A   1       1.245  -4.603  -3.213  0.00  0.00    +0.292 HD
ENDBRANCH   7   9
BRANCH   6  11
ATOM     11  O   LIG A   1       2.986  -5.227  -2.085  0.00  0.00    -0.501 OA
ATOM     12  H   LIG A   1       3.765  -5.564  -1.597  0.00  0.00    +0.292 HD
ENDBRANCH   6  11
BRANCH   5  13
ATOM     13  O   LIG A   1       5.094  -4.120  -0.758  0.00  0.00    -0.503 OA
ATOM     14  H   LIG A   1       5.760  -3.575  -0.303  0.00  0.00    +0.292 HD
ENDBRANCH   5  13
ENDBRANCH   2   3
BRANCH   2  15
ATOM     15  O   LIG A   1       2.856   0.888  -3.012  0.00  0.00    -0.461 OA
BRANCH  15  16
ATOM     16  C   LIG A   1       2.359   2.219  -2.829  0.00  0.00    +0.232 C 
BRANCH  16  17
ATOM     17  C   LIG A   1       0.978   2.156  -2.194  0.00  0.00    +0.041 C 
BRANCH  17  18
ATOM     18  C   LIG A   1       1.058   1.462  -0.857  0.00  0.00    +0.003 C 
BRANCH  18  19
ATOM     19  C   LIG A   1      -0.279   1.268  -0.255  0.00  0.00    +0.000 C 
BRANCH  19  20
ATOM     20  C   LIG A   1      -0.053   0.395   0.971  0.00  0.00    -0.000 C 
BRANCH  20  21
ATOM     21  C   LIG A   1      -1.410  -0.035   1.415  0.00  0.00    -0.000 C 
BRANCH  21  22
ATOM     22  C   LIG A   1      -2.638  -0.680   0.835  0.00  0.00    -0.000 C 
BRANCH  22  23
ATOM     23  C   LIG A   1      -3.963  -0.572   1.720  0.00  0.00    -0.000 C 
BRANCH  23  24
ATOM     24  C   LIG A   1      -4.717   0.810   1.979  0.00  0.00    -0.000 C 
BRANCH  24  25
ATOM     25  C   LIG A   1      -4.283   1.863   3.089  0.00  0.00    -0.000 C 
BRANCH  25  26
ATOM     26  C   LIG A   1      -2.967   2.642   2.890  0.00  0.00    -0.003 C 
ATOM     27  C   LIG A   1      -1.912   1.675   3.226  0.00  0.00    +0.004 C 
ENDBRANCH  25  26
ENDBRANCH  24  25
ENDBRANCH  23  24
ENDBRANCH  22  23
ENDBRANCH  21  22
ENDBRANCH  20  21
ENDBRANCH  19  20
ENDBRANCH  18  19
ENDBRANCH  17  18
ENDBRANCH  16  17
ENDBRANCH  15  16
ENDBRANCH   2  15
TORSDOF 16
