@<TRIPOS>MOLECULE
NuBBE_1521
 106 112 0 0 0
SMALL
GASTEIGER

@<TRIPOS>ATOM
      1 C          -2.1116    0.5647   -0.8802 C.3     1  LIG1       -0.0564
      2 C          -1.0482    0.6978    0.2477 C.3     1  LIG1        0.0034
      3 C          -0.7946    2.1800    0.4955 C.3     1  LIG1       -0.0148
      4 C           0.2624    2.9239   -0.2722 C.3     1  LIG1       -0.0192
      5 C           0.4965    2.5404    1.1745 C.3     1  LIG1       -0.0398
      6 C          -0.2810    4.3104   -0.6186 C.3     1  LIG1       -0.0273
      7 H          -0.1089    4.4963   -1.6896 H       1  LIG1        0.0311
      8 C          -1.8045    4.1530   -0.4402 C.3     1  LIG1       -0.0487
      9 C          -1.9853    3.1127    0.6671 C.3     1  LIG1       -0.0460
     10 C           0.3267    5.5320    0.1209 C.3     1  LIG1        0.0159
     11 H          -0.1856    6.4070   -0.3021 H       1  LIG1        0.0353
     12 C           0.2439    5.6081    1.6480 C.3     1  LIG1        0.1623
     13 H          -0.5542    4.9976    2.0685 H       1  LIG1        0.0912
     14 O          -0.0100    6.9608    2.0486 O.3     1  LIG1       -0.3542
     15 C          -0.1805    7.0730    3.4599 C.3     1  LIG1        0.0394
     16 O           1.5161    5.1771    2.1514 O.3     1  LIG1       -0.3452
     17 C           2.5202    5.5160    1.1905 C.3     1  LIG1        0.0906
     18 H           2.8892    6.5053    1.4776 H       1  LIG1        0.0624
     19 C           1.8206    5.6644   -0.1552 C.3     1  LIG1       -0.0163
     20 C           3.7341    4.5478    1.1729 C.3     1  LIG1        0.1094
     21 H           4.4264    4.9116    0.4018 H       1  LIG1        0.0648
     22 C           4.5368    4.4465    2.5094 C.3     1  LIG1        0.0887
     23 C           4.9568    5.8294    3.0136 C.3     1  LIG1       -0.0338
     24 C           3.8130    3.6796    3.6182 C.3     1  LIG1       -0.0338
     25 O           5.7407    3.6993    2.2227 O.3     1  LIG1       -0.3865
     26 O           3.3416    3.2425    0.7187 O.3     1  LIG1       -0.3864
     27 C           0.8556    2.1406   -1.4275 C.3     1  LIG1       -0.0463
     28 C           1.2191    0.6807   -1.1164 C.3     1  LIG1       -0.0486
     29 C           0.2991   -0.0639   -0.0988 C.3     1  LIG1       -0.0271
     30 H           0.9143   -0.0513    0.8091 H       1  LIG1        0.0312
     31 C           0.0883   -1.6102   -0.3422 C.3     1  LIG1       -0.0250
     32 C          -0.5163   -1.8250   -1.7446 C.3     1  LIG1       -0.0590
     33 C          -0.7012   -2.2133    0.8889 C.3     1  LIG1       -0.0245
     34 H           0.0305   -2.1464    1.7121 H       1  LIG1        0.0313
     35 C          -1.8879   -1.3758    1.4297 C.3     1  LIG1       -0.0224
     36 C          -1.6131    0.1059    1.5698 C.3     1  LIG1        0.0617
     37 H          -2.5507    0.6092    1.8296 H       1  LIG1        0.0599
     38 O          -0.7663    0.3087    2.7083 O.3     1  LIG1       -0.3912
     39 C          -1.0580   -3.7464    0.7960 C.3     1  LIG1        0.0056
     40 C          -2.5561   -3.9327    0.4351 C.3     1  LIG1       -0.0562
     41 C          -0.9057   -4.3504    2.2205 C.3     1  LIG1       -0.0562
     42 C          -0.1001   -4.5552   -0.1478 C.3     1  LIG1        0.1088
     43 H           0.1104   -5.5406    0.2890 H       1  LIG1        0.0739
     44 C           1.2921   -3.9079   -0.4229 C.3     1  LIG1       -0.0146
     45 C           1.4366   -2.3750   -0.3021 C.3     1  LIG1       -0.0437
     46 O          -0.7194   -4.7868   -1.4541 O.3     1  LIG1       -0.4573
     47 C          -1.5108   -5.9012   -1.6213 C.2     1  LIG1        0.3413
     48 O          -1.8048   -6.7392   -0.8018 O.2     1  LIG1       -0.2449
     49 C          -1.9824   -5.9038   -3.0361 C.ar    1  LIG1        0.0797
     50 C          -2.2581   -7.1145   -3.7116 C.ar    1  LIG1        0.0410
     51 N          -2.0170   -8.3694   -3.1200 N.pl3   1  LIG1       -0.3463
     52 C          -2.7992   -9.5160   -3.5595 C.3     1  LIG1       -0.0024
     53 C          -2.6305   -7.0096   -5.0650 C.ar    1  LIG1       -0.0401
     54 C          -2.7831   -5.7690   -5.6980 C.ar    1  LIG1       -0.0600
     55 C          -2.5680   -4.5923   -4.9980 C.ar    1  LIG1       -0.0609
     56 C          -2.1794   -4.6627   -3.6696 C.ar    1  LIG1       -0.0460
     57 H          -1.7439    0.9489   -1.8351 H       1  LIG1        0.0236
     58 H          -3.0343    1.1056   -0.6607 H       1  LIG1        0.0236
     59 H          -2.4537   -0.4565   -1.0349 H       1  LIG1        0.0236
     60 H           0.3749    3.1631    2.0434 H       1  LIG1        0.0277
     61 H           1.2839    1.8309    1.3842 H       1  LIG1        0.0277
     62 H          -2.2207    3.7403   -1.3716 H       1  LIG1        0.0268
     63 H          -2.3296    5.0903   -0.2399 H       1  LIG1        0.0268
     64 H          -2.9642    2.6368    0.5808 H       1  LIG1        0.0271
     65 H          -1.9766    3.5696    1.6585 H       1  LIG1        0.0271
     66 H          -0.3302    8.1290    3.7023 H       1  LIG1        0.0525
     67 H           0.7127    6.7271    3.9883 H       1  LIG1        0.0525
     68 H          -1.0591    6.5163    3.8060 H       1  LIG1        0.0525
     69 H           2.1897    4.9665   -0.9124 H       1  LIG1        0.0295
     70 H           2.0371    6.6667   -0.5441 H       1  LIG1        0.0295
     71 H           4.0904    6.4246    3.3173 H       1  LIG1        0.0258
     72 H           5.5083    6.3783    2.2416 H       1  LIG1        0.0258
     73 H           5.6258    5.7502    3.8771 H       1  LIG1        0.0258
     74 H           2.8440    4.1179    3.8568 H       1  LIG1        0.0258
     75 H           4.4104    3.6847    4.5384 H       1  LIG1        0.0258
     76 H           3.6748    2.6253    3.3558 H       1  LIG1        0.0258
     77 H           6.2184    3.5657    3.0617 H       1  LIG1        0.2102
     78 H           3.9521    2.6010    1.1243 H       1  LIG1        0.2100
     79 H           0.1358    2.1399   -2.2570 H       1  LIG1        0.0271
     80 H           1.7424    2.6612   -1.8081 H       1  LIG1        0.0271
     81 H           2.2364    0.6843   -0.6971 H       1  LIG1        0.0268
     82 H           1.3210    0.1370   -2.0616 H       1  LIG1        0.0268
     83 H          -0.5291   -0.9094   -2.3441 H       1  LIG1        0.0235
     84 H          -1.5415   -2.1820   -1.6979 H       1  LIG1        0.0235
     85 H           0.0640   -2.5230   -2.3552 H       1  LIG1        0.0235
     86 H          -2.1592   -1.7565    2.4225 H       1  LIG1        0.0293
     87 H          -2.7690   -1.4858    0.7954 H       1  LIG1        0.0293
     88 H           0.0891   -0.1227    2.5593 H       1  LIG1        0.2098
     89 H          -2.8203   -3.4297   -0.4994 H       1  LIG1        0.0236
     90 H          -3.2165   -3.5451    1.2191 H       1  LIG1        0.0236
     91 H          -2.8384   -4.9809    0.3561 H       1  LIG1        0.0236
     92 H           0.1264   -4.2792    2.5795 H       1  LIG1        0.0236
     93 H          -1.1930   -5.4081    2.2275 H       1  LIG1        0.0236
     94 H          -1.5481   -3.8414    2.9474 H       1  LIG1        0.0236
     95 H           1.6246   -4.1857   -1.4332 H       1  LIG1        0.0301
     96 H           2.0305   -4.3565    0.2545 H       1  LIG1        0.0301
     97 H           2.1195   -2.0122   -1.0814 H       1  LIG1        0.0272
     98 H           1.9567   -2.1576    0.6429 H       1  LIG1        0.0272
     99 H          -1.9813   -8.2950   -2.0961 H       1  LIG1        0.1458
    100 H          -2.5276   -9.8208   -4.5751 H       1  LIG1        0.0425
    101 H          -3.8757   -9.3164   -3.5128 H       1  LIG1        0.0425
    102 H          -2.5915  -10.3695   -2.9054 H       1  LIG1        0.0425
    103 H          -2.7885   -7.8999   -5.6654 H       1  LIG1        0.0636
    104 H          -3.0661   -5.7288   -6.7464 H       1  LIG1        0.0618
    105 H          -2.6870   -3.6254   -5.4786 H       1  LIG1        0.0618
    106 H          -2.0219   -3.7372   -3.1275 H       1  LIG1        0.0626
@<TRIPOS>BOND
     1     2     3    1
     2     3     4    1
     3     4     5    1
     4     3     5    1
     5     4     6    1
     6     6     8    1
     7     8     9    1
     8     3     9    1
     9    10    11    1
    10    10    12    1
    11    14    15    1
    12    12    16    1
    13    16    17    1
    14    17    19    1
    15    10    19    1
    16    20    21    1
    17    20    22    1
    18    22    23    1
    19    22    24    1
    20    22    25    1
    21    20    26    1
    22     4    27    1
    23    27    28    1
    24    28    29    1
    25     2    29    1
    26    29    31    1
    27    31    33    1
    28    33    35    1
    29    35    36    1
    30     2    36    1
    31    33    39    1
    32    39    42    1
    33    42    44    1
    34    44    45    1
    35    31    45    1
    36    46    47    1
    37    47    48    2
    38    47    49    1
    39    49    50   ar
    40    50    51    1
    41    51    52    1
    42    50    53   ar
    43    53    54   ar
    44    54    55   ar
    45    55    56   ar
    46    49    56   ar
    47     1     2    1
    48    29    30    1
    49    31    32    1
    50    33    34    1
    51    39    40    1
    52    39    41    1
    53     6    10    1
    54     6     7    1
    55    12    14    1
    56    12    13    1
    57    17    20    1
    58    17    18    1
    59    36    38    1
    60    36    37    1
    61    42    46    1
    62    42    43    1
    63     1    57    1
    64     1    58    1
    65     1    59    1
    66     5    60    1
    67     5    61    1
    68     8    62    1
    69     8    63    1
    70     9    64    1
    71     9    65    1
    72    15    66    1
    73    15    67    1
    74    15    68    1
    75    19    69    1
    76    19    70    1
    77    23    71    1
    78    23    72    1
    79    23    73    1
    80    24    74    1
    81    24    75    1
    82    24    76    1
    83    25    77    1
    84    26    78    1
    85    27    79    1
    86    27    80    1
    87    28    81    1
    88    28    82    1
    89    32    83    1
    90    32    84    1
    91    32    85    1
    92    35    86    1
    93    35    87    1
    94    38    88    1
    95    40    89    1
    96    40    90    1
    97    40    91    1
    98    41    92    1
    99    41    93    1
   100    41    94    1
   101    44    95    1
   102    44    96    1
   103    45    97    1
   104    45    98    1
   105    51    99    1
   106    52   100    1
   107    52   101    1
   108    52   102    1
   109    53   103    1
   110    54   104    1
   111    55   105    1
   112    56   106    1
