REMARK  Name = NuBBE_1811
REMARK  15 active torsions:
REMARK  status: ('A' for Active; 'I' for Inactive)
REMARK    1  A    between atoms: C_1  and  O_2
REMARK    2  A    between atoms: O_2  and  O_3
REMARK    3  A    between atoms: O_3  and  C_4
REMARK    4  A    between atoms: C_4  and  C_5
REMARK    5  A    between atoms: C_5  and  C_6
REMARK    6  A    between atoms: C_6  and  C_7
REMARK    7  A    between atoms: C_7  and  C_8
REMARK    8  A    between atoms: C_8  and  C_9
REMARK    9  A    between atoms: C_9  and  C_10
REMARK   10  A    between atoms: C_10  and  C_11
REMARK   11  A    between atoms: C_11  and  C_12
REMARK   12  A    between atoms: C_12  and  C_13
REMARK   13  A    between atoms: C_13  and  O_14
REMARK   14  A    between atoms: O_14  and  O_15
REMARK   15  A    between atoms: O_15  and  C_16
REMARK                            x       y       z     vdW  Elec       q    Type
REMARK                         _______ _______ _______ _____ _____    ______ ____
ROOT
ATOM      1  C   LIG A   1      -0.587   0.325   0.109  0.00  0.00    -0.000 C 
ENDROOT
BRANCH   1   2
ATOM      2  C   LIG A   1      -2.130   0.233   0.016  0.00  0.00    +0.000 C 
BRANCH   2   3
ATOM      3  C   LIG A   1      -2.927   1.425   0.587  0.00  0.00    +0.002 C 
BRANCH   3   4
ATOM      4  C   LIG A   1      -2.676   2.766  -0.100  0.00  0.00    +0.031 C 
BRANCH   4   5
ATOM      5  C   LIG A   1      -3.507   3.908   0.494  0.00  0.00    +0.201 C 
BRANCH   5   6
ATOM      6  O   LIG A   1      -3.132   5.124  -0.154  0.00  0.00    -0.235 OA
BRANCH   6   8
ATOM      7  C   LIG A   1      -3.655   7.357  -0.284  0.00  0.00    +0.238 C 
ATOM      8  O   LIG A   1      -3.999   6.157   0.401  0.00  0.00    -0.238 OA
ENDBRANCH   6   8
ENDBRANCH   5   6
ENDBRANCH   4   5
ENDBRANCH   3   4
ENDBRANCH   2   3
ENDBRANCH   1   2
BRANCH   1   9
ATOM      9  C   LIG A   1       0.093  -0.965  -0.426  0.00  0.00    -0.000 C 
BRANCH   9  10
ATOM     10  C   LIG A   1       1.635  -0.985  -0.353  0.00  0.00    +0.000 C 
BRANCH  10  11
ATOM     11  C   LIG A   1       2.306  -2.269  -0.916  0.00  0.00    +0.002 C 
BRANCH  11  12
ATOM     12  C   LIG A   1       1.937  -3.571  -0.190  0.00  0.00    +0.031 C 
BRANCH  12  13
ATOM     13  C   LIG A   1       2.710  -4.814  -0.666  0.00  0.00    +0.201 C 
BRANCH  13  14
ATOM     14  O   LIG A   1       4.118  -4.678  -0.453  0.00  0.00    -0.235 OA
BRANCH  14  15
ATOM     15  O   LIG A   1       4.306  -4.834   0.984  0.00  0.00    -0.238 OA
ATOM     16  C   LIG A   1       5.716  -4.798   1.198  0.00  0.00    +0.238 C 
ENDBRANCH  14  15
ENDBRANCH  13  14
ENDBRANCH  12  13
ENDBRANCH  11  12
ENDBRANCH  10  11
ENDBRANCH   9  10
ENDBRANCH   1   9
TORSDOF 13
