REMARK  Name = NuBBE_1306
REMARK  11 active torsions:
REMARK  status: ('A' for Active; 'I' for Inactive)
REMARK    1  A    between atoms: C_4  and  C_22
REMARK    2  A    between atoms: C_10  and  C_11
REMARK    3  A    between atoms: C_10  and  C_14
REMARK    4  A    between atoms: C_16  and  O_17
REMARK    5  A    between atoms: O_17  and  C_18
REMARK    6  A    between atoms: C_19  and  O_20
REMARK    7  A    between atoms: O_20  and  C_21
REMARK    8  A    between atoms: C_24  and  O_25
REMARK    9  A    between atoms: O_25  and  C_26
REMARK   10  A    between atoms: C_27  and  O_30
REMARK   11  A    between atoms: O_30  and  C_31
REMARK                            x       y       z     vdW  Elec       q    Type
REMARK                         _______ _______ _______ _____ _____    ______ ____
ROOT
ATOM      1  O   LIG A   1      -2.426  -1.679   1.317  0.00  0.00    -0.287 OA
ATOM      2  C   LIG A   1      -1.653  -0.986   0.686  0.00  0.00    +0.197 A 
ATOM      3  C   LIG A   1      -1.093  -1.521  -0.565  0.00  0.00    +0.098 A 
ATOM      4  C   LIG A   1      -0.165  -0.820  -1.219  0.00  0.00    +0.140 A 
ATOM      5  O   LIG A   1       0.289   0.411  -0.804  0.00  0.00    -0.451 OA
ATOM      6  C   LIG A   1      -0.149   0.962   0.373  0.00  0.00    +0.188 A 
ATOM      7  C   LIG A   1      -1.179   0.359   1.102  0.00  0.00    +0.110 A 
ATOM      8  C   LIG A   1      -1.726   1.018   2.201  0.00  0.00    +0.147 A 
ATOM      9  O   LIG A   1      -2.750   0.414   2.881  0.00  0.00    -0.481 OA
ATOM     10  C   LIG A   1      -2.987   0.842   4.234  0.00  0.00    +0.123 C 
ATOM     11  C   LIG A   1      -4.432   0.434   4.536  0.00  0.00    +0.060 C 
ATOM     12  C   LIG A   1      -2.829   2.334   4.385  0.00  0.00    +0.020 C 
ATOM     13  C   LIG A   1      -2.021   3.031   3.577  0.00  0.00    +0.015 C 
ATOM     14  C   LIG A   1      -2.034   0.088   5.174  0.00  0.00    +0.060 C 
ATOM     15  C   LIG A   1      -1.272   2.300   2.547  0.00  0.00    +0.063 A 
ATOM     16  C   LIG A   1      -0.154   2.861   1.886  0.00  0.00    +0.176 A 
ATOM     17  C   LIG A   1       0.435   2.177   0.797  0.00  0.00    +0.206 A 
ENDROOT
BRANCH   4  18
ATOM     18  C   LIG A   1       0.502  -1.311  -2.443  0.00  0.00    +0.021 A 
ATOM     19  C   LIG A   1       0.708  -2.682  -2.652  0.00  0.00    +0.061 A 
ATOM     20  C   LIG A   1       1.383  -3.156  -3.783  0.00  0.00    +0.162 A 
ATOM     21  C   LIG A   1       1.910  -2.237  -4.707  0.00  0.00    +0.162 A 
ATOM     22  C   LIG A   1       1.710  -0.869  -4.510  0.00  0.00    +0.050 A 
ATOM     23  C   LIG A   1       1.008  -0.414  -3.392  0.00  0.00    +0.015 A 
BRANCH  20  24
ATOM     24  O   LIG A   1       1.586  -4.489  -4.046  0.00  0.00    -0.491 OA
ATOM     25  C   LIG A   1       1.100  -5.421  -3.086  0.00  0.00    +0.277 C 
ENDBRANCH  20  24
BRANCH  21  26
ATOM     26  O   LIG A   1       2.586  -2.753  -5.785  0.00  0.00    -0.491 OA
ATOM     27  C   LIG A   1       3.587  -1.913  -6.349  0.00  0.00    +0.277 C 
ENDBRANCH  21  26
ENDBRANCH   4  18
BRANCH  16  28
ATOM     28  O   LIG A   1       0.198   4.113   2.337  0.00  0.00    -0.491 OA
ATOM     29  C   LIG A   1       1.576   4.455   2.391  0.00  0.00    +0.277 C 
ENDBRANCH  16  28
BRANCH  17  30
ATOM     30  O   LIG A   1       1.523   2.773   0.205  0.00  0.00    -0.488 OA
ATOM     31  C   LIG A   1       2.253   2.091  -0.812  0.00  0.00    +0.277 C 
ENDBRANCH  17  30
TORSDOF 5
