REMARK  Name = NuBBE_2072
REMARK  3 active torsions:
REMARK  status: ('A' for Active; 'I' for Inactive)
REMARK    1  A    between atoms: C_3  and  C_4
REMARK    2  A    between atoms: C_5  and  O_6
REMARK    3  A    between atoms: C_16  and  O_18
REMARK                            x       y       z     vdW  Elec       q    Type
REMARK                         _______ _______ _______ _____ _____    ______ ____
ROOT
ATOM      1  O   LIG A   1      -4.411  -1.189   0.606  0.00  0.00    -0.250 OA
ATOM      2  C   LIG A   1      -3.172  -1.055   0.680  0.00  0.00    +0.319 C 
ATOM      3  C   LIG A   1      -2.390   0.189   0.958  0.00  0.00    +0.125 C 
ATOM      4  C   LIG A   1      -2.475   0.107   2.534  0.00  0.00    +0.029 C 
ATOM      5  C   LIG A   1      -2.502   1.673   0.529  0.00  0.00    +0.183 C 
ATOM      6  C   LIG A   1      -1.867   2.331  -0.732  0.00  0.00    +0.066 C 
ATOM      7  C   LIG A   1      -0.454   1.822  -0.986  0.00  0.00    +0.015 C 
ATOM      8  C   LIG A   1      -0.079   0.821   0.146  0.00  0.00    +0.005 C 
ATOM      9  C   LIG A   1      -0.254   1.727   1.427  0.00  0.00    +0.170 C 
ATOM     10  O   LIG A   1      -1.617   2.325   1.505  0.00  0.00    -0.347 OA
ATOM     11  C   LIG A   1       1.334   0.161  -0.036  0.00  0.00    +0.003 C 
ATOM     12  C   LIG A   1       2.151   0.873  -1.137  0.00  0.00    +0.004 C 
ATOM     13  C   LIG A   1       3.467   0.249  -1.564  0.00  0.00    +0.003 C 
ATOM     14  C   LIG A   1       3.513  -1.270  -1.547  0.00  0.00    +0.031 C 
ATOM     15  C   LIG A   1       2.703  -1.940  -0.435  0.00  0.00    +0.118 C 
ATOM     16  C   LIG A   1       1.280  -1.362  -0.368  0.00  0.00    +0.025 C 
ATOM     17  C   LIG A   1       0.303  -2.129   0.571  0.00  0.00    +0.051 C 
ATOM     18  C   LIG A   1      -1.085  -1.695   0.148  0.00  0.00    +0.182 C 
ATOM     19  O   LIG A   1      -2.280  -2.130   0.774  0.00  0.00    -0.461 OA
ATOM     20  C   LIG A   1      -1.219  -0.209   0.092  0.00  0.00    +0.060 C 
ENDROOT
BRANCH   5  21
ATOM     21  O   LIG A   1      -3.858   2.051   0.500  0.00  0.00    -0.364 OA
ATOM     22  H   LIG A   1      -4.197   1.693  -0.347  0.00  0.00    +0.213 HD
ENDBRANCH   5  21
BRANCH  15  23
ATOM     23  O   LIG A   1       2.657  -3.327  -0.760  0.00  0.00    -0.392 OA
ATOM     24  H   LIG A   1       2.502  -3.828   0.058  0.00  0.00    +0.210 HD
ENDBRANCH  15  23
TORSDOF 2
