@<TRIPOS>MOLECULE
NuBBE_2384
 55 57 0 0 0
SMALL
GASTEIGER

@<TRIPOS>ATOM
      1 C           2.1336   -1.5491    2.7455 C.3     1  LIG1       -0.0315
      2 C           1.7055   -0.6762    1.5130 C.3     1  LIG1       -0.0286
      3 C           0.2423   -0.9719    1.0622 C.3     1  LIG1       -0.0087
      4 C          -0.2167   -0.0764   -0.0888 C.ar    1  LIG1        0.0045
      5 C          -1.3028   -0.4440   -0.9150 C.ar    1  LIG1        0.1654
      6 C          -1.7946    0.4320   -1.9080 C.ar    1  LIG1        0.1652
      7 O          -2.9264    0.0839   -2.6085 O.3     1  LIG1       -0.4912
      8 C          -2.6002   -0.5490   -3.8448 C.3     1  LIG1        0.0790
      9 C          -1.2236    1.6992   -2.0998 C.ar    1  LIG1        0.0008
     10 C          -0.1034    2.0302   -1.3157 C.ar    1  LIG1       -0.0512
     11 C           0.3902    1.1689   -0.3125 C.ar    1  LIG1       -0.0399
     12 C           1.5940    1.6270    0.4702 C.3     1  LIG1       -0.0270
     13 C           1.8596    0.8385    1.7485 C.3     1  LIG1       -0.0452
     14 C          -1.8109    2.7239   -3.0653 C.3     1  LIG1       -0.0179
     15 C          -2.2268    4.0118   -2.3413 C.3     1  LIG1       -0.0585
     16 C          -0.8623    3.0600   -4.2201 C.3     1  LIG1       -0.0585
     17 O          -1.9704   -1.6183   -0.6633 O.3     1  LIG1       -0.4911
     18 C          -1.4478   -2.7011   -1.4305 C.3     1  LIG1        0.0790
     19 C          -0.7466   -0.8659    2.2432 C.3     1  LIG1       -0.0458
     20 C          -0.3262   -1.6942    3.4535 C.3     1  LIG1       -0.0520
     21 C           1.1069   -1.4086    3.8909 C.3     1  LIG1       -0.0476
     22 C           2.2523   -3.0345    2.3260 C.3     1  LIG1       -0.0595
     23 C           3.5238   -1.1404    3.2824 C.3     1  LIG1       -0.0595
     24 H           2.3741   -0.9365    0.6785 H       1  LIG1        0.0312
     25 H           0.2300   -2.0037    0.6938 H       1  LIG1        0.0353
     26 H          -2.6518   -1.6343   -3.7283 H       1  LIG1        0.0660
     27 H          -1.6166   -0.2679   -4.2377 H       1  LIG1        0.0660
     28 H          -3.3580   -0.2623   -4.5802 H       1  LIG1        0.0660
     29 H           0.3785    2.9953   -1.4541 H       1  LIG1        0.0624
     30 H           1.4806    2.6852    0.7375 H       1  LIG1        0.0313
     31 H           2.4700    1.5480   -0.1856 H       1  LIG1        0.0313
     32 H           1.1801    1.1804    2.5372 H       1  LIG1        0.0271
     33 H           2.8713    1.0914    2.0809 H       1  LIG1        0.0271
     34 H          -2.7243    2.3171   -3.5156 H       1  LIG1        0.0345
     35 H          -1.3752    4.5156   -1.8709 H       1  LIG1        0.0235
     36 H          -2.9647    3.8008   -1.5601 H       1  LIG1        0.0235
     37 H          -2.6769    4.7215   -3.0447 H       1  LIG1        0.0235
     38 H           0.0691    3.5168   -3.8689 H       1  LIG1        0.0235
     39 H          -1.3371    3.7700   -4.9080 H       1  LIG1        0.0235
     40 H          -0.6045    2.1645   -4.7946 H       1  LIG1        0.0235
     41 H          -1.1504   -3.5004   -0.7452 H       1  LIG1        0.0660
     42 H          -0.5877   -2.4324   -2.0552 H       1  LIG1        0.0660
     43 H          -2.2461   -3.0933   -2.0671 H       1  LIG1        0.0660
     44 H          -1.7463   -1.1944    1.9344 H       1  LIG1        0.0271
     45 H          -0.8628    0.1812    2.5503 H       1  LIG1        0.0271
     46 H          -0.4438   -2.7601    3.2277 H       1  LIG1        0.0266
     47 H          -1.0050   -1.4836    4.2887 H       1  LIG1        0.0266
     48 H           1.3679   -2.0825    4.7173 H       1  LIG1        0.0271
     49 H           1.1497   -0.3937    4.3068 H       1  LIG1        0.0271
     50 H           1.3108   -3.4516    1.9601 H       1  LIG1        0.0235
     51 H           2.5701   -3.6563    3.1717 H       1  LIG1        0.0235
     52 H           2.9966   -3.1569    1.5308 H       1  LIG1        0.0235
     53 H           3.5108   -0.1515    3.7517 H       1  LIG1        0.0235
     54 H           4.2687   -1.1287    2.4789 H       1  LIG1        0.0235
     55 H           3.8736   -1.8432    4.0481 H       1  LIG1        0.0235
@<TRIPOS>BOND
     1     1     2    1
     2     2     3    1
     3     3     4    1
     4     4     5   ar
     5     5     6   ar
     6     6     7    1
     7     7     8    1
     8     6     9   ar
     9     9    10   ar
    10    10    11   ar
    11     4    11   ar
    12    11    12    1
    13    12    13    1
    14     2    13    1
    15     9    14    1
    16    14    15    1
    17    14    16    1
    18     5    17    1
    19    17    18    1
    20     3    19    1
    21    19    20    1
    22    20    21    1
    23     1    21    1
    24     1    22    1
    25     1    23    1
    26     2    24    1
    27     3    25    1
    28     8    26    1
    29     8    27    1
    30     8    28    1
    31    10    29    1
    32    12    30    1
    33    12    31    1
    34    13    32    1
    35    13    33    1
    36    14    34    1
    37    15    35    1
    38    15    36    1
    39    15    37    1
    40    16    38    1
    41    16    39    1
    42    16    40    1
    43    18    41    1
    44    18    42    1
    45    18    43    1
    46    19    44    1
    47    19    45    1
    48    20    46    1
    49    20    47    1
    50    21    48    1
    51    21    49    1
    52    22    50    1
    53    22    51    1
    54    22    52    1
    55    23    53    1
    56    23    54    1
    57    23    55    1
