REMARK  Name = NuBBE_79
REMARK  3 active torsions:
REMARK  status: ('A' for Active; 'I' for Inactive)
REMARK    1  A    between atoms: C_2  and  C_8
REMARK    2  A    between atoms: C_9  and  C_10
REMARK    3  A    between atoms: C_11  and  C_12
REMARK                            x       y       z     vdW  Elec       q    Type
REMARK                         _______ _______ _______ _____ _____    ______ ____
ROOT
ATOM      1  C   LIG A   1       0.685   0.779  -0.009  0.00  0.00    +0.001 C 
ATOM      2  C   LIG A   1       1.934   1.212   0.215  0.00  0.00    +0.008 C 
ENDROOT
BRANCH   2   3
ATOM      3  C   LIG A   1       2.515   1.359   1.560  0.00  0.00    -0.021 A 
ATOM      4  C   LIG A   1       3.908   1.182   1.718  0.00  0.00    +0.012 A 
ATOM      5  C   LIG A   1       4.518   1.311   2.972  0.00  0.00    +0.050 A 
ATOM      6  C   LIG A   1       3.715   1.625   4.046  0.00  0.00    +0.166 A 
ATOM      7  C   LIG A   1       2.363   1.819   3.901  0.00  0.00    +0.167 A 
ATOM      8  O   LIG A   1       1.753   2.126   5.078  0.00  0.00    -0.453 OA
ATOM      9  C   LIG A   1       2.876   2.090   5.982  0.00  0.00    +0.466 C 
ATOM     10  O   LIG A   1       4.127   1.782   5.332  0.00  0.00    -0.453 OA
ATOM     11  C   LIG A   1       1.737   1.705   2.677  0.00  0.00    +0.057 A 
ENDBRANCH   2   3
BRANCH   1  13
ATOM     12  C   LIG A   1      -1.145   0.200  -1.495  0.00  0.00    +0.067 C 
ATOM     13  C   LIG A   1       0.114   0.628  -1.329  0.00  0.00    +0.005 C 
BRANCH  12  15
ATOM     14  O   LIG A   1      -1.490   0.811  -3.755  0.00  0.00    -0.271 OA
ATOM     15  C   LIG A   1      -1.726   0.023  -2.852  0.00  0.00    +0.239 C 
ATOM     16  N   LIG A   1      -2.534  -1.087  -2.978  0.00  0.00    -0.298 N 
ATOM     17  C   LIG A   1      -3.217  -1.420  -4.219  0.00  0.00    +0.108 C 
ATOM     18  C   LIG A   1      -4.173  -2.543  -3.826  0.00  0.00    +0.020 C 
ATOM     19  C   LIG A   1      -3.431  -3.243  -2.695  0.00  0.00    +0.020 C 
ATOM     20  C   LIG A   1      -2.778  -2.090  -1.957  0.00  0.00    +0.108 C 
ENDBRANCH  12  15
ENDBRANCH   1  13
TORSDOF 3
