REMARK  Name = NuBBE_34
REMARK  11 active torsions:
REMARK  status: ('A' for Active; 'I' for Inactive)
REMARK    1  A    between atoms: C_1  and  C_2
REMARK    2  A    between atoms: C_3  and  C_4
REMARK    3  A    between atoms: C_4  and  C_5
REMARK    4  A    between atoms: C_6  and  C_7
REMARK    5  A    between atoms: C_6  and  C_8
REMARK    6  A    between atoms: C_9  and  O_10
REMARK    7  A    between atoms: C_14  and  C_15
REMARK    8  A    between atoms: C_14  and  C_21
REMARK    9  A    between atoms: C_16  and  C_17
REMARK   10  A    between atoms: C_18  and  C_19
REMARK   11  A    between atoms: C_18  and  C_20
REMARK                            x       y       z     vdW  Elec       q    Type
REMARK                         _______ _______ _______ _____ _____    ______ ____
ROOT
ATOM      1  C   LIG A   1      -4.189  -0.118   1.127  0.00  0.00    +0.044 C 
ATOM      2  C   LIG A   1      -2.709  -0.004   1.363  0.00  0.00    -0.040 A 
ATOM      3  C   LIG A   1      -2.035   1.203   1.649  0.00  0.00    +0.001 A 
ATOM      4  C   LIG A   1      -0.639   1.158   1.875  0.00  0.00    +0.127 A 
ATOM      5  C   LIG A   1       0.099  -0.038   1.797  0.00  0.00    +0.036 A 
ATOM      6  C   LIG A   1      -0.591  -1.211   1.487  0.00  0.00    +0.129 A 
ATOM      7  O   LIG A   1       0.000  -2.437   1.336  0.00  0.00    -0.481 OA
ATOM      8  C   LIG A   1       1.421  -2.447   1.092  0.00  0.00    +0.127 C 
ATOM      9  C   LIG A   1       1.867  -3.885   1.415  0.00  0.00    +0.060 C 
ATOM     10  C   LIG A   1       2.129  -1.495   2.067  0.00  0.00    +0.057 C 
ATOM     11  C   LIG A   1       1.591  -0.074   1.966  0.00  0.00    +0.047 C 
ATOM     12  C   LIG A   1      -1.972  -1.198   1.306  0.00  0.00    +0.049 A 
ENDROOT
BRANCH   4  13
ATOM     13  O   LIG A   1      -0.022   2.349   2.171  0.00  0.00    -0.506 OA
ATOM     14  H   LIG A   1       0.867   2.182   2.518  0.00  0.00    +0.292 HD
ENDBRANCH   4  13
BRANCH   8  15
ATOM     15  C   LIG A   1       1.669  -2.140  -0.382  0.00  0.00    +0.020 C 
ATOM     16  C   LIG A   1       2.870  -2.060  -0.971  0.00  0.00    -0.000 C 
BRANCH  16  17
ATOM     17  C   LIG A   1       3.052  -1.742  -2.375  0.00  0.00    -0.002 C 
ATOM     18  C   LIG A   1       4.222  -1.647  -3.031  0.00  0.00    -0.076 C 
ATOM     19  C   LIG A   1       5.588  -1.864  -2.439  0.00  0.00    +0.038 C 
ATOM     20  C   LIG A   1       4.253  -1.297  -4.500  0.00  0.00    +0.038 C 
ENDBRANCH  16  17
ENDBRANCH   8  15
BRANCH   3  21
ATOM     21  C   LIG A   1      -2.755   2.541   1.686  0.00  0.00    +0.066 C 
BRANCH  21  22
ATOM     22  C   LIG A   1      -2.746   3.253   0.354  0.00  0.00    -0.023 C 
ATOM     23  C   LIG A   1      -3.807   3.625  -0.391  0.00  0.00    -0.079 C 
ATOM     24  C   LIG A   1      -5.240   3.378  -0.011  0.00  0.00    +0.038 C 
ATOM     25  C   LIG A   1      -3.628   4.338  -1.706  0.00  0.00    +0.038 C 
ENDBRANCH  21  22
ENDBRANCH   3  21
TORSDOF 5
