REMARK  Name = NuBBE_2157
REMARK  11 active torsions:
REMARK  status: ('A' for Active; 'I' for Inactive)
REMARK    1  A    between atoms: C_1  and  C_2
REMARK    2  A    between atoms: C_2  and  C_4
REMARK    3  A    between atoms: C_2  and  C_7
REMARK    4  A    between atoms: C_4  and  C_5
REMARK    5  A    between atoms: C_4  and  C_6
REMARK    6  A    between atoms: C_8  and  C_9
REMARK    7  A    between atoms: C_9  and  C_11
REMARK    8  A    between atoms: C_9  and  C_12
REMARK    9  A    between atoms: C_24  and  O_26
REMARK   10  A    between atoms: C_29  and  C_30
REMARK   11  A    between atoms: C_35  and  C_36
REMARK                            x       y       z     vdW  Elec       q    Type
REMARK                         _______ _______ _______ _____ _____    ______ ____
ROOT
ATOM      1  C   LIG A   1      -2.502  -0.288  -1.435  0.00  0.00    +0.002 C 
ATOM      2  C   LIG A   1      -2.637   1.130  -0.854  0.00  0.00    +0.005 C 
ATOM      3  C   LIG A   1      -1.373   1.374  -0.037  0.00  0.00    +0.004 C 
ATOM      4  C   LIG A   1      -0.354   0.274  -0.431  0.00  0.00    -0.001 C 
ATOM      5  C   LIG A   1       1.058   0.863  -0.558  0.00  0.00    +0.000 C 
ATOM      6  C   LIG A   1       2.174  -0.200  -0.620  0.00  0.00    +0.031 C 
ATOM      7  C   LIG A   1       3.523   0.407  -0.876  0.00  0.00    -0.027 C 
ATOM      8  C   LIG A   1       3.704   1.658  -1.338  0.00  0.00    -0.065 C 
ATOM      9  C   LIG A   1       5.062   2.311  -1.280  0.00  0.00    +0.062 C 
ATOM     10  C   LIG A   1       5.032   3.417  -0.215  0.00  0.00    +0.119 C 
ATOM     11  C   LIG A   1       3.873   4.399  -0.423  0.00  0.00    +0.032 C 
ATOM     12  C   LIG A   1       2.523   3.696  -0.632  0.00  0.00    +0.013 C 
ATOM     13  C   LIG A   1       2.549   2.580  -1.730  0.00  0.00    -0.008 C 
ATOM     14  C   LIG A   1       2.782   3.250  -3.104  0.00  0.00    +0.016 C 
ATOM     15  C   LIG A   1       1.166   1.823  -1.758  0.00  0.00    +0.003 C 
ATOM     16  C   LIG A   1       0.829   1.028  -3.041  0.00  0.00    +0.005 C 
ATOM     17  C   LIG A   1      -0.567   0.380  -2.994  0.00  0.00    +0.007 C 
ATOM     18  C   LIG A   1      -0.950  -0.399  -1.691  0.00  0.00    -0.026 C 
ATOM     19  C   LIG A   1      -0.526  -1.868  -1.859  0.00  0.00    +0.012 C 
ENDROOT
BRANCH   1  20
ATOM     20  C   LIG A   1      -3.205  -1.389  -0.551  0.00  0.00    +0.012 C 
ATOM     21  C   LIG A   1      -4.732  -1.204  -0.586  0.00  0.00    +0.012 C 
BRANCH  20  23
ATOM     22  C   LIG A   1      -2.576  -2.614   1.593  0.00  0.00    -0.027 C 
ATOM     23  C   LIG A   1      -2.763  -1.486   0.900  0.00  0.00    -0.027 C 
BRANCH  22  25
ATOM     24  C   LIG A   1      -0.649  -3.348   2.967  0.00  0.00    +0.012 C 
ATOM     25  C   LIG A   1      -2.014  -2.647   3.011  0.00  0.00    +0.011 C 
BRANCH  25  26
ATOM     26  C   LIG A   1      -2.986  -3.258   4.066  0.00  0.00    -0.011 C 
ATOM     27  C   LIG A   1      -3.363  -4.718   3.795  0.00  0.00    +0.008 C 
ATOM     28  C   LIG A   1      -2.434  -3.141   5.497  0.00  0.00    +0.008 C 
ENDBRANCH  25  26
ENDBRANCH  22  25
ENDBRANCH  20  23
ENDBRANCH   1  20
BRANCH  10  29
ATOM     29  O   LIG A   1       6.255   4.149  -0.233  0.00  0.00    -0.392 OA
ATOM     30  H   LIG A   1       6.973   3.518  -0.054  0.00  0.00    +0.210 HD
ENDBRANCH  10  29
TORSDOF 5
