@<TRIPOS>MOLECULE
NuBBE_2451
 29 31 0 0 0
SMALL
GASTEIGER

@<TRIPOS>ATOM
      1 O          -3.4571   -0.7613   -0.4365 O.2     1  LIG1       -0.2831
      2 C          -2.2441   -0.6936   -0.2654 C.ar    1  LIG1        0.2343
      3 C          -1.3948   -1.8718   -0.0629 C.ar    1  LIG1        0.0679
      4 C          -0.0266   -1.6821    0.1119 C.ar    1  LIG1        0.1430
      5 O           0.5612   -0.4431    0.1008 O.2     1  LIG1       -0.4508
      6 C          -0.2407    0.6792   -0.0743 C.ar    1  LIG1        0.1806
      7 C          -1.5732    0.6290   -0.2582 C.ar    1  LIG1        0.2081
      8 O          -2.3767    1.7365   -0.4614 O.3     1  LIG1       -0.5007
      9 C           0.5286    1.9417   -0.0614 C.ar    1  LIG1        0.0211
     10 C           1.7191    2.0413   -0.7984 C.ar    1  LIG1       -0.0510
     11 C           2.4764    3.2156   -0.7798 C.ar    1  LIG1       -0.0611
     12 C           2.0567    4.3036   -0.0182 C.ar    1  LIG1       -0.0617
     13 C           0.8823    4.2178    0.7260 C.ar    1  LIG1       -0.0611
     14 C           0.1253    3.0432    0.7074 C.ar    1  LIG1       -0.0510
     15 C           0.8121   -2.7802    0.3076 C.ar    1  LIG1        0.0229
     16 C           0.2622   -4.0595    0.3246 C.ar    1  LIG1        0.1204
     17 C          -1.1054   -4.2559    0.1492 C.ar    1  LIG1       -0.0193
     18 C          -1.9429   -3.1574   -0.0460 C.ar    1  LIG1       -0.0438
     19 O           1.0390   -5.1637    0.5128 O.3     1  LIG1       -0.5066
     20 H          -3.2792    1.3733   -0.5882 H       1  LIG1        0.2924
     21 H           2.0635    1.2039   -1.4013 H       1  LIG1        0.0625
     22 H           3.3925    3.2798   -1.3610 H       1  LIG1        0.0618
     23 H           2.6439    5.2180   -0.0043 H       1  LIG1        0.0618
     24 H           0.5522    5.0646    1.3220 H       1  LIG1        0.0618
     25 H          -0.7859    2.9976    1.3000 H       1  LIG1        0.0625
     26 H           1.8771   -2.6223    0.4440 H       1  LIG1        0.0691
     27 H          -1.5167   -5.2621    0.1652 H       1  LIG1        0.0654
     28 H          -3.0117   -3.3053   -0.1832 H       1  LIG1        0.0627
     29 H           1.9632   -4.8871    0.6290 H       1  LIG1        0.2921
@<TRIPOS>BOND
     1     1     2    2
     2     2     3   ar
     3     3     4   ar
     4     4     5   ar
     5     5     6   ar
     6     6     7   ar
     7     2     7   ar
     8     7     8    1
     9     6     9    1
    10     9    10   ar
    11    10    11   ar
    12    11    12   ar
    13    12    13   ar
    14    13    14   ar
    15     9    14   ar
    16     4    15   ar
    17    15    16   ar
    18    16    17   ar
    19    17    18   ar
    20     3    18   ar
    21    16    19    1
    22     8    20    1
    23    10    21    1
    24    11    22    1
    25    12    23    1
    26    13    24    1
    27    14    25    1
    28    15    26    1
    29    17    27    1
    30    18    28    1
    31    19    29    1
