@<TRIPOS>MOLECULE
NuBBE_200
 58 63 0 0 0
SMALL
GASTEIGER

@<TRIPOS>ATOM
      1 O          -0.0382   -4.4931    5.8720 O.3     1  LIG1       -0.5065
      2 C          -0.2875   -4.3589    4.5390 C.ar    1  LIG1        0.1239
      3 C          -1.2513   -5.1279    3.8939 C.ar    1  LIG1        0.0223
      4 C          -1.4755   -4.9399    2.5247 C.ar    1  LIG1        0.1347
      5 O          -2.4180   -5.7092    1.9033 O.3     1  LIG1       -0.5058
      6 C          -0.7413   -3.9819    1.8078 C.ar    1  LIG1        0.1055
      7 C          -0.9418   -3.7109    0.3631 C.ar    1  LIG1        0.1966
      8 C          -0.0116   -2.7440   -0.2507 C.ar    1  LIG1        0.0288
      9 C           0.8752   -2.1031    0.5143 C.ar    1  LIG1        0.1392
     10 C           1.8577   -1.1756   -0.0584 C.ar    1  LIG1        0.0182
     11 C           1.6275    0.2160   -0.1145 C.ar    1  LIG1       -0.0396
     12 C           2.5216    1.1258   -0.7353 C.ar    1  LIG1        0.0313
     13 C           2.1857    2.6083   -0.8104 C.ar    1  LIG1        0.0702
     14 C           3.1687    3.6199   -0.6514 C.ar    1  LIG1        0.1317
     15 O           4.4879    3.2804   -0.4611 O.3     1  LIG1       -0.5059
     16 C           2.8807    4.9894   -0.6985 C.ar    1  LIG1        0.0229
     17 C           1.5751    5.4131   -0.8840 C.ar    1  LIG1        0.1347
     18 O           1.3197    6.7526   -0.9226 O.3     1  LIG1       -0.5058
     19 C           0.5537    4.4735   -1.0355 C.ar    1  LIG1        0.1061
     20 C           0.8546    3.0914   -1.0180 C.ar    1  LIG1        0.1541
     21 O          -0.1450    2.1562   -1.2306 O.2     1  LIG1       -0.4537
     22 C          -1.4616    2.5651   -1.3681 C.ar    1  LIG1        0.1393
     23 C          -2.4458    1.4707   -1.5259 C.ar    1  LIG1        0.0176
     24 C          -2.2440    0.2362   -0.8913 C.ar    1  LIG1       -0.0476
     25 C          -3.1528   -0.8145   -1.0452 C.ar    1  LIG1       -0.0195
     26 C          -4.2806   -0.6335   -1.8324 C.ar    1  LIG1        0.1169
     27 O          -5.1900   -1.6333   -2.0024 O.3     1  LIG1       -0.5068
     28 C          -4.5117    0.5775   -2.4673 C.ar    1  LIG1       -0.0195
     29 C          -3.5957    1.6225   -2.3200 C.ar    1  LIG1       -0.0476
     30 C          -1.8517    3.8424   -1.3513 C.ar    1  LIG1        0.0288
     31 C          -0.8545    4.9037   -1.2026 C.ar    1  LIG1        0.1966
     32 O          -1.2374    6.0667   -1.2111 O.2     1  LIG1       -0.2869
     33 C           3.6986    0.5289   -1.2485 C.ar    1  LIG1        0.1248
     34 O           4.6764    1.2104   -1.9237 O.3     1  LIG1       -0.5062
     35 C           3.9755   -0.8393   -1.1288 C.ar    1  LIG1       -0.0189
     36 C           3.0537   -1.6937   -0.5456 C.ar    1  LIG1       -0.0476
     37 O           1.0113   -2.2829    1.8724 O.2     1  LIG1       -0.4544
     38 O          -1.8234   -4.2118   -0.3233 O.2     1  LIG1       -0.2869
     39 C           0.2298   -3.2340    2.4788 C.ar    1  LIG1        0.1462
     40 C           0.4586   -3.4200    3.8416 C.ar    1  LIG1        0.0231
     41 H          -0.6589   -5.1339    6.2559 H       1  LIG1        0.2921
     42 H          -1.8222   -5.8643    4.4493 H       1  LIG1        0.0691
     43 H          -2.7944   -6.3577    2.5190 H       1  LIG1        0.2922
     44 H          -0.1042   -2.5910   -1.3249 H       1  LIG1        0.0693
     45 H           0.7195    0.5898    0.3508 H       1  LIG1        0.0632
     46 H           5.0269    4.0845   -0.3473 H       1  LIG1        0.2922
     47 H           3.6737    5.7229   -0.5911 H       1  LIG1        0.0691
     48 H           2.1234    7.2757   -0.7814 H       1  LIG1        0.2922
     49 H          -1.3795    0.0781   -0.2567 H       1  LIG1        0.0626
     50 H          -2.9682   -1.7607   -0.5471 H       1  LIG1        0.0654
     51 H          -4.8719   -2.4199   -1.5251 H       1  LIG1        0.2921
     52 H          -5.3976    0.7099   -3.0813 H       1  LIG1        0.0654
     53 H          -3.7961    2.5532   -2.8455 H       1  LIG1        0.0626
     54 H          -2.8793    4.1717   -1.4408 H       1  LIG1        0.0693
     55 H           4.6655    2.1185   -1.5721 H       1  LIG1        0.2922
     56 H           4.9195   -1.2329   -1.4977 H       1  LIG1        0.0654
     57 H           3.2765   -2.7553   -0.4711 H       1  LIG1        0.0626
     58 H           1.2144   -2.8316    4.3545 H       1  LIG1        0.0691
@<TRIPOS>BOND
     1     1     2    1
     2     2     3   ar
     3     3     4   ar
     4     4     5    1
     5     4     6   ar
     6     6     7   ar
     7     7     8   ar
     8     8     9   ar
     9     9    10    1
    10    10    11   ar
    11    11    12   ar
    12    12    13    1
    13    13    14   ar
    14    14    15    1
    15    14    16   ar
    16    16    17   ar
    17    17    18    1
    18    17    19   ar
    19    19    20   ar
    20    13    20   ar
    21    20    21   ar
    22    21    22   ar
    23    22    23    1
    24    23    24   ar
    25    24    25   ar
    26    25    26   ar
    27    26    27    1
    28    26    28   ar
    29    28    29   ar
    30    23    29   ar
    31    22    30   ar
    32    30    31   ar
    33    19    31   ar
    34    31    32    2
    35    12    33   ar
    36    33    34    1
    37    33    35   ar
    38    35    36   ar
    39    10    36   ar
    40     9    37   ar
    41     7    38    2
    42     6    39   ar
    43    37    39   ar
    44    39    40   ar
    45     2    40   ar
    46     1    41    1
    47     3    42    1
    48     5    43    1
    49     8    44    1
    50    11    45    1
    51    15    46    1
    52    16    47    1
    53    18    48    1
    54    24    49    1
    55    25    50    1
    56    27    51    1
    57    28    52    1
    58    29    53    1
    59    30    54    1
    60    34    55    1
    61    35    56    1
    62    36    57    1
    63    40    58    1
