@<TRIPOS>MOLECULE
NuBBE_990
 61 65 0 0 0
SMALL
GASTEIGER

@<TRIPOS>ATOM
      1 C          -1.8485    2.0475    2.9975 C.3     1  LIG1       -0.0589
      2 C          -0.3176    1.8553    3.0515 C.3     1  LIG1       -0.0219
      3 C           0.3704    2.6157    1.8826 C.3     1  LIG1       -0.0255
      4 C           0.5164    1.6967    0.6637 C.3     1  LIG1       -0.0339
      5 C           0.9737    2.4222   -0.5989 C.3     1  LIG1       -0.0494
      6 C           0.7623    1.5066   -1.7987 C.3     1  LIG1       -0.0492
      7 C           1.4445    0.1380   -1.6348 C.3     1  LIG1       -0.0292
      8 C           1.1148   -0.7528   -2.8519 C.3     1  LIG1       -0.0060
      9 C          -0.1088   -1.6470   -2.6361 C.3     1  LIG1        0.1682
     10 H          -0.1431   -2.3863   -3.4401 H       1  LIG1        0.0801
     11 C           0.0036   -2.3326   -1.2373 C.3     1  LIG1        0.2532
     12 C          -0.1672   -1.2531   -0.1717 C.3     1  LIG1        0.0250
     13 C           1.1925   -0.5666   -0.2410 C.3     1  LIG1        0.0064
     14 C           1.4264    0.4587    0.9080 C.3     1  LIG1       -0.0297
     15 C           1.2802   -0.0629    2.3555 C.3     1  LIG1       -0.0488
     16 C          -0.0392    0.3279    3.0179 C.3     1  LIG1       -0.0467
     17 C           2.0593   -1.8381   -0.2075 C.3     1  LIG1        0.0584
     18 O           1.3382   -2.8312   -0.9787 O.3     1  LIG1       -0.3358
     19 O          -1.0130   -3.3213   -1.0217 O.3     1  LIG1       -0.4287
     20 C          -1.0094   -4.3916   -1.8588 C.2     1  LIG1        0.3064
     21 C          -2.1699   -5.2794   -1.5472 C.3     1  LIG1        0.0333
     22 O          -0.2170   -4.6060   -2.7701 O.2     1  LIG1       -0.2511
     23 O          -1.3703   -0.9285   -2.6785 O.3     1  LIG1       -0.4549
     24 C          -1.8107   -0.4936   -3.8819 C.2     1  LIG1        0.3044
     25 C          -3.2724   -0.1886   -3.8116 C.3     1  LIG1        0.0332
     26 O          -1.1383   -0.4274   -4.9108 O.2     1  LIG1       -0.2512
     27 C           1.6922    3.1837    2.4094 C.3     1  LIG1        0.0094
     28 C           1.5356    3.1116    3.8991 C.2     1  LIG1        0.1342
     29 C           0.2225    2.5256    4.3267 C.3     1  LIG1        0.0115
     30 O           2.3794    3.5234    4.6864 O.2     1  LIG1       -0.2974
     31 H          -2.1226    3.1079    3.0296 H       1  LIG1        0.0235
     32 H          -2.3350    1.5516    3.8451 H       1  LIG1        0.0235
     33 H          -2.2723    1.6299    2.0771 H       1  LIG1        0.0235
     34 H          -0.2596    3.4705    1.5968 H       1  LIG1        0.0313
     35 H          -0.5028    1.3448    0.4573 H       1  LIG1        0.0307
     36 H           2.0284    2.7136   -0.5245 H       1  LIG1        0.0268
     37 H           0.3955    3.3410   -0.7478 H       1  LIG1        0.0268
     38 H           1.1538    2.0035   -2.6955 H       1  LIG1        0.0268
     39 H          -0.3131    1.3769   -1.9606 H       1  LIG1        0.0268
     40 H           2.5245    0.3449   -1.6939 H       1  LIG1        0.0308
     41 H           1.9740   -1.4109   -3.0409 H       1  LIG1        0.0306
     42 H           1.0132   -0.1407   -3.7529 H       1  LIG1        0.0306
     43 H          -0.3203   -1.7307    0.8062 H       1  LIG1        0.0336
     44 H          -1.0295   -0.6016   -0.3289 H       1  LIG1        0.0336
     45 H           2.4782    0.7681    0.8141 H       1  LIG1        0.0310
     46 H           2.0997    0.3458    2.9608 H       1  LIG1        0.0268
     47 H           1.4004   -1.1478    2.4109 H       1  LIG1        0.0268
     48 H          -0.0729   -0.0865    4.0329 H       1  LIG1        0.0271
     49 H          -0.8446   -0.1815    2.4737 H       1  LIG1        0.0271
     50 H           2.1924   -2.2520    0.7954 H       1  LIG1        0.0567
     51 H           3.0542   -1.6990   -0.6431 H       1  LIG1        0.0567
     52 H          -3.1044   -4.7209   -1.6562 H       1  LIG1        0.0342
     53 H          -2.0749   -5.6820   -0.5346 H       1  LIG1        0.0342
     54 H          -2.1853   -6.1144   -2.2551 H       1  LIG1        0.0342
     55 H          -3.4853    0.4979   -2.9881 H       1  LIG1        0.0342
     56 H          -3.8181   -1.1271   -3.6766 H       1  LIG1        0.0342
     57 H          -3.5988    0.2759   -4.7463 H       1  LIG1        0.0342
     58 H           1.8118    4.2271    2.1023 H       1  LIG1        0.0344
     59 H           2.5742    2.6133    2.1142 H       1  LIG1        0.0344
     60 H          -0.4144    3.3534    4.6570 H       1  LIG1        0.0347
     61 H           0.3673    1.8229    5.1508 H       1  LIG1        0.0347
@<TRIPOS>BOND
     1     1     2    1
     2     2     3    1
     3     3     4    1
     4     4     5    1
     5     5     6    1
     6     6     7    1
     7     7     8    1
     8     8     9    1
     9     9    10    1
    10     9    11    1
    11    11    12    1
    12    12    13    1
    13    13    14    1
    14     4    14    1
    15    14    15    1
    16    15    16    1
    17     2    16    1
    18     7    13    1
    19    13    17    1
    20    17    18    1
    21    11    18    1
    22    11    19    1
    23    19    20    1
    24    20    21    1
    25    20    22    2
    26     9    23    1
    27    23    24    1
    28    24    25    1
    29    24    26    2
    30     3    27    1
    31    27    28    1
    32    28    29    1
    33     2    29    1
    34    28    30    2
    35     1    31    1
    36     1    32    1
    37     1    33    1
    38     3    34    1
    39     4    35    1
    40     5    36    1
    41     5    37    1
    42     6    38    1
    43     6    39    1
    44     7    40    1
    45     8    41    1
    46     8    42    1
    47    12    43    1
    48    12    44    1
    49    14    45    1
    50    15    46    1
    51    15    47    1
    52    16    48    1
    53    16    49    1
    54    17    50    1
    55    17    51    1
    56    21    52    1
    57    21    53    1
    58    21    54    1
    59    25    55    1
    60    25    56    1
    61    25    57    1
    62    27    58    1
    63    27    59    1
    64    29    60    1
    65    29    61    1
