@<TRIPOS>MOLECULE
NuBBE_914
 62 63 0 0 0
SMALL
GASTEIGER

@<TRIPOS>ATOM
      1 O          -0.8291    0.9407   -3.9413 O.2     1  LIG1       -0.2701
      2 C          -1.0340    1.4035   -2.8384 C.2     1  LIG1        0.2484
      3 C          -2.4437    1.5340   -2.3195 C.ar    1  LIG1        0.0799
      4 C          -2.7162    2.4764   -1.3199 C.ar    1  LIG1       -0.0460
      5 C          -3.9863    2.5959   -0.7707 C.ar    1  LIG1       -0.0591
      6 C          -5.0138    1.7748   -1.2094 C.ar    1  LIG1       -0.0369
      7 C          -4.8009    0.8371   -2.2178 C.ar    1  LIG1        0.0759
      8 N          -5.8582    0.0326   -2.7079 N.am    1  LIG1       -0.2852
      9 C          -7.1463   -0.0522   -2.1881 C.2     1  LIG1        0.2042
     10 O          -7.6020    0.5222   -1.2076 O.2     1  LIG1       -0.2792
     11 C          -3.5092    0.7210   -2.7844 C.ar    1  LIG1        0.1500
     12 O          -3.3683   -0.2112   -3.7887 O.3     1  LIG1       -0.5041
     13 N          -0.0161    1.7656   -1.9525 N.am    1  LIG1       -0.2954
     14 C           1.4118    1.7253   -2.2781 C.3     1  LIG1        0.1577
     15 C           2.3300    2.1839   -1.0830 C.3     1  LIG1        0.1289
     16 O           2.2917    1.2202    0.0137 O.3     1  LIG1       -0.4589
     17 C           1.1405    1.0693    0.7134 C.2     1  LIG1        0.3131
     18 C           0.9709   -0.3083    1.3113 C.3     1  LIG1        0.0857
     19 C           1.7891   -0.4674    2.6134 C.3     1  LIG1       -0.0373
     20 C           1.6243   -1.8396    3.3002 C.3     1  LIG1       -0.0499
     21 C           2.4248   -1.9945    4.6128 C.3     1  LIG1       -0.0467
     22 C           2.2086   -3.3912    5.2098 C.3     1  LIG1       -0.0627
     23 C           3.9201   -1.7437    4.4033 C.3     1  LIG1       -0.0627
     24 C           1.1225   -1.4508    0.2738 C.3     1  LIG1        0.1046
     25 O           2.4461   -1.9969    0.2994 O.3     1  LIG1       -0.3873
     26 C           0.6842   -1.1561   -1.1909 C.3     1  LIG1        0.1268
     27 C           0.2562   -2.4598   -1.8734 C.3     1  LIG1       -0.0252
     28 O           1.8368   -0.7266   -1.9681 O.3     1  LIG1       -0.4576
     29 C           2.0312    0.3892   -2.7073 C.2     1  LIG1        0.3317
     30 O           2.9300    0.3825   -3.5520 O.2     1  LIG1       -0.2486
     31 O           0.2652    1.9281    0.7725 O.2     1  LIG1       -0.2504
     32 C           2.1274    3.6309   -0.6251 C.3     1  LIG1       -0.0254
     33 H          -1.9664    3.1665   -0.9477 H       1  LIG1        0.0626
     34 H          -4.1904    3.3382   -0.0048 H       1  LIG1        0.0618
     35 H          -5.9869    1.9235   -0.7553 H       1  LIG1        0.0637
     36 H          -5.6266   -0.5550   -3.5040 H       1  LIG1        0.1546
     37 H          -7.7656   -0.7220   -2.7845 H       1  LIG1        0.1255
     38 H          -2.6018    0.0525   -4.3416 H       1  LIG1        0.2923
     39 H          -0.2498    2.3977   -1.2019 H       1  LIG1        0.1499
     40 H           1.5436    2.4261   -3.1123 H       1  LIG1        0.0652
     41 H           3.3726    2.1370   -1.4297 H       1  LIG1        0.0755
     42 H          -0.0898   -0.3252    1.6043 H       1  LIG1        0.0440
     43 H           1.4761    0.3129    3.3205 H       1  LIG1        0.0274
     44 H           2.8462   -0.2753    2.3995 H       1  LIG1        0.0274
     45 H           1.9394   -2.6377    2.6194 H       1  LIG1        0.0268
     46 H           0.5606   -2.0135    3.5068 H       1  LIG1        0.0268
     47 H           2.0548   -1.2650    5.3438 H       1  LIG1        0.0295
     48 H           2.4735   -4.1808    4.4983 H       1  LIG1        0.0232
     49 H           1.1623   -3.5324    5.5008 H       1  LIG1        0.0232
     50 H           2.8196   -3.5325    6.1090 H       1  LIG1        0.0232
     51 H           4.2733   -2.1843    3.4649 H       1  LIG1        0.0232
     52 H           4.5195   -2.1622    5.2186 H       1  LIG1        0.0232
     53 H           4.1235   -0.6682    4.3716 H       1  LIG1        0.0232
     54 H           0.4685   -2.2507    0.6484 H       1  LIG1        0.0638
     55 H           2.8003   -1.9720   -0.6104 H       1  LIG1        0.2100
     56 H          -0.1545   -0.4674   -1.2243 H       1  LIG1        0.0757
     57 H           1.0703   -3.1947   -1.8606 H       1  LIG1        0.0266
     58 H           0.0179   -2.2798   -2.9274 H       1  LIG1        0.0266
     59 H          -0.6181   -2.9002   -1.3861 H       1  LIG1        0.0266
     60 H           1.0912    3.8588   -0.3641 H       1  LIG1        0.0266
     61 H           2.4194    4.3291   -1.4161 H       1  LIG1        0.0266
     62 H           2.7305    3.8417    0.2654 H       1  LIG1        0.0266
@<TRIPOS>BOND
     1     1     2    2
     2     2     3    1
     3     3     4   ar
     4     4     5   ar
     5     5     6   ar
     6     6     7   ar
     7     7     8    1
     8     8     9   am
     9     9    10    2
    10     7    11   ar
    11     3    11   ar
    12    11    12    1
    13     2    13   am
    14    13    14    1
    15    14    15    1
    16    15    16    1
    17    16    17    1
    18    17    18    1
    19    18    19    1
    20    19    20    1
    21    20    21    1
    22    21    22    1
    23    21    23    1
    24    18    24    1
    25    24    25    1
    26    24    26    1
    27    26    27    1
    28    26    28    1
    29    28    29    1
    30    14    29    1
    31    29    30    2
    32    17    31    2
    33    15    32    1
    34     4    33    1
    35     5    34    1
    36     6    35    1
    37     8    36    1
    38     9    37    1
    39    12    38    1
    40    13    39    1
    41    14    40    1
    42    15    41    1
    43    18    42    1
    44    19    43    1
    45    19    44    1
    46    20    45    1
    47    20    46    1
    48    21    47    1
    49    22    48    1
    50    22    49    1
    51    22    50    1
    52    23    51    1
    53    23    52    1
    54    23    53    1
    55    24    54    1
    56    25    55    1
    57    26    56    1
    58    27    57    1
    59    27    58    1
    60    27    59    1
    61    32    60    1
    62    32    61    1
    63    32    62    1
