@<TRIPOS>MOLECULE
NuBBE_1764
 55 58 0 0 0
SMALL
GASTEIGER

@<TRIPOS>ATOM
      1 C          -1.6443   -2.8147    0.6217 C.3     1  LIG1        0.0374
      2 O          -0.9725   -2.1706   -0.4616 O.3     1  LIG1       -0.3707
      3 C          -0.9680   -0.7320   -0.3962 C.3     1  LIG1        0.1304
      4 C          -0.3016   -0.1268    0.8992 C.3     1  LIG1        0.0215
      5 H          -1.0510   -0.1066    1.7003 H       1  LIG1        0.0381
      6 C           0.9186   -0.8020    1.5724 C.ar    1  LIG1       -0.0374
      7 C           1.4543   -0.2331    2.7608 C.ar    1  LIG1       -0.0545
      8 C           2.5612   -0.7909    3.4213 C.ar    1  LIG1       -0.0159
      9 C           3.1166   -1.9324    2.8927 C.ar    1  LIG1        0.1662
     10 O           4.1827   -2.6173    3.3849 O.3     1  LIG1       -0.4526
     11 C           4.2847   -3.6879    2.4209 C.3     1  LIG1        0.2332
     12 O           3.2716   -3.6384    1.3984 O.3     1  LIG1       -0.4526
     13 C           2.6046   -2.5102    1.7624 C.ar    1  LIG1        0.1665
     14 C           1.5228   -1.9760    1.0949 C.ar    1  LIG1       -0.0126
     15 C           0.0728    1.3228    0.4415 C.3     1  LIG1       -0.0258
     16 H           1.1371    1.4926    0.6495 H       1  LIG1        0.0311
     17 C          -0.6876    2.3723    1.2632 C.3     1  LIG1       -0.0612
     18 C          -0.1086    1.3675   -1.1331 C.3     1  LIG1        0.0086
     19 C           1.0640    2.1462   -1.7903 C.3     1  LIG1       -0.0265
     20 C           1.1704    3.6104   -1.4025 C.2     1  LIG1       -0.0905
     21 C           1.9943    4.0844   -0.4631 C.2     1  LIG1       -0.1026
     22 C          -1.4940    1.9399   -1.5845 C.3     1  LIG1       -0.0154
     23 C          -2.5886    0.8584   -1.7431 C.3     1  LIG1        0.0876
     24 H          -3.5679    1.3492   -1.6854 H       1  LIG1        0.0623
     25 O          -2.4538    0.3373   -3.0795 O.3     1  LIG1       -0.3771
     26 C          -3.3954   -0.6493   -3.4765 C.3     1  LIG1        0.0369
     27 C          -2.4518   -0.2287   -0.6482 C.3     1  LIG1        0.1131
     28 H          -3.0391   -1.0950   -0.9551 H       1  LIG1        0.0649
     29 O          -3.0969    0.2086    0.5544 O.3     1  LIG1       -0.3863
     30 C          -0.0711   -0.1364   -1.5157 C.3     1  LIG1        0.0934
     31 H          -0.4314   -0.3408   -2.5234 H       1  LIG1        0.0629
     32 O           1.2451   -0.6752   -1.5197 O.3     1  LIG1       -0.3883
     33 H          -1.5657   -3.8936    0.4650 H       1  LIG1        0.0524
     34 H          -2.7037   -2.5518    0.6562 H       1  LIG1        0.0524
     35 H          -1.1829   -2.5830    1.5840 H       1  LIG1        0.0524
     36 H           1.0091    0.6655    3.1828 H       1  LIG1        0.0622
     37 H           2.9671   -0.3386    4.3190 H       1  LIG1        0.0655
     38 H           4.1999   -4.6451    2.9481 H       1  LIG1        0.1166
     39 H           5.2682   -3.6390    1.9389 H       1  LIG1        0.1166
     40 H           1.1811   -2.4961    0.2134 H       1  LIG1        0.0658
     41 H          -1.7636    2.1817    1.2864 H       1  LIG1        0.0233
     42 H          -0.5348    3.3850    0.8820 H       1  LIG1        0.0233
     43 H          -0.3464    2.3644    2.3034 H       1  LIG1        0.0233
     44 H           0.9755    2.0825   -2.8912 H       1  LIG1        0.0314
     45 H           2.0210    1.6570   -1.5586 H       1  LIG1        0.0314
     46 H           0.5840    4.2981   -2.0040 H       1  LIG1        0.0566
     47 H           2.6026    3.4137    0.1134 H       1  LIG1        0.0532
     48 H           2.0366    5.1309   -0.2594 H       1  LIG1        0.0532
     49 H          -1.3772    2.4475   -2.5519 H       1  LIG1        0.0297
     50 H          -1.8487    2.7120   -0.8973 H       1  LIG1        0.0297
     51 H          -4.4093   -0.2420   -3.4744 H       1  LIG1        0.0524
     52 H          -3.3404   -1.5446   -2.8529 H       1  LIG1        0.0524
     53 H          -3.1422   -0.9670   -4.4930 H       1  LIG1        0.0524
     54 H          -4.0355    0.3621    0.3420 H       1  LIG1        0.2100
     55 H           1.1280   -1.6249   -1.7123 H       1  LIG1        0.2099
@<TRIPOS>BOND
     1     1     2    1
     2     2     3    1
     3     3     4    1
     4     4     5    1
     5     4     6    1
     6     6     7   ar
     7     7     8   ar
     8     8     9   ar
     9     9    10    1
    10    10    11    1
    11    11    12    1
    12     9    13   ar
    13    12    13    1
    14    13    14   ar
    15     6    14   ar
    16     4    15    1
    17    15    18    1
    18    18    19    1
    19    19    20    1
    20    20    21    2
    21    18    22    1
    22    22    23    1
    23    23    24    1
    24    23    25    1
    25    25    26    1
    26    23    27    1
    27    27    28    1
    28     3    27    1
    29    27    29    1
    30    18    30    1
    31    30    31    1
    32     3    30    1
    33    30    32    1
    34    15    17    1
    35    15    16    1
    36     1    33    1
    37     1    34    1
    38     1    35    1
    39     7    36    1
    40     8    37    1
    41    11    38    1
    42    11    39    1
    43    14    40    1
    44    17    41    1
    45    17    42    1
    46    17    43    1
    47    19    44    1
    48    19    45    1
    49    20    46    1
    50    21    47    1
    51    21    48    1
    52    22    49    1
    53    22    50    1
    54    26    51    1
    55    26    52    1
    56    26    53    1
    57    29    54    1
    58    32    55    1
