@<TRIPOS>MOLECULE
NuBBE_1114
 23 23 0 0 0
SMALL
GASTEIGER

@<TRIPOS>ATOM
      1 H          -2.7441   -1.7283    2.3731 H       1  LIG1        0.1081
      2 C          -1.9084   -2.1043    1.7585 C.2     1  LIG1        0.1504
      3 C          -1.1181   -1.0966    1.0232 C.ar    1  LIG1        0.0213
      4 C          -1.4477    0.2563    1.1406 C.ar    1  LIG1       -0.0059
      5 C          -0.7228    1.2268    0.4386 C.ar    1  LIG1        0.1656
      6 O          -1.1659    2.5000    0.6728 O.3     1  LIG1       -0.4913
      7 C          -0.4738    3.5724    0.0469 C.3     1  LIG1        0.0790
      8 C           0.3247    0.8078   -0.3891 C.ar    1  LIG1        0.2010
      9 O           1.0605    1.6967   -1.1323 O.3     1  LIG1       -0.5009
     10 C           0.6659   -0.5545   -0.5008 C.ar    1  LIG1        0.1656
     11 O           1.7180   -0.8153   -1.3457 O.3     1  LIG1       -0.4913
     12 C           2.1189   -2.1771   -1.4614 C.3     1  LIG1        0.0790
     13 C          -0.0564   -1.5067    0.2125 C.ar    1  LIG1       -0.0059
     14 O          -1.6549   -3.2994    1.6882 O.2     1  LIG1       -0.2957
     15 H          -2.2714    0.5728    1.7769 H       1  LIG1        0.0662
     16 H          -0.9157    4.5067    0.4072 H       1  LIG1        0.0660
     17 H          -0.6101    3.5458   -1.0389 H       1  LIG1        0.0660
     18 H           0.5835    3.5898    0.3300 H       1  LIG1        0.0660
     19 H           1.7087    1.1514   -1.6207 H       1  LIG1        0.2924
     20 H           2.9420   -2.2221   -2.1805 H       1  LIG1        0.0660
     21 H           1.3049   -2.7980   -1.8496 H       1  LIG1        0.0660
     22 H           2.4884   -2.5581   -0.5036 H       1  LIG1        0.0660
     23 H           0.1736   -2.5660    0.1538 H       1  LIG1        0.0662
@<TRIPOS>BOND
     1     1     2    1
     2     2     3    1
     3     3     4   ar
     4     4     5   ar
     5     5     6    1
     6     6     7    1
     7     5     8   ar
     8     8     9    1
     9     8    10   ar
    10    10    11    1
    11    11    12    1
    12    10    13   ar
    13     3    13   ar
    14     2    14    2
    15     4    15    1
    16     7    16    1
    17     7    17    1
    18     7    18    1
    19     9    19    1
    20    12    20    1
    21    12    21    1
    22    12    22    1
    23    13    23    1
