@<TRIPOS>MOLECULE
NuBBE_144
 64 66 0 0 0
SMALL
GASTEIGER

@<TRIPOS>ATOM
      1 C          -0.4658   -3.7282    0.0148 C.3     1  LIG1       -0.0594
      2 C          -0.3209   -2.7266   -1.1628 C.3     1  LIG1       -0.0282
      3 C          -1.5314   -2.9470   -2.0951 C.3     1  LIG1       -0.0594
      4 C           0.9746   -3.1901   -1.8866 C.3     1  LIG1       -0.0475
      5 C           1.4872   -2.2452   -2.9588 C.3     1  LIG1       -0.0520
      6 C           1.6521   -0.8337   -2.4090 C.3     1  LIG1       -0.0469
      7 C           0.3598   -0.2266   -1.7871 C.3     1  LIG1       -0.0200
      8 C          -0.6625   -0.0382   -2.9399 C.3     1  LIG1       -0.0588
      9 C          -0.1533   -1.2157   -0.6725 C.3     1  LIG1        0.0071
     10 H           0.6685   -1.2738    0.0526 H       1  LIG1        0.0347
     11 C          -1.3568   -0.5943    0.1009 C.3     1  LIG1        0.1095
     12 H          -2.2306   -0.5508   -0.5563 H       1  LIG1        0.0738
     13 O          -1.7815   -1.4067    1.2350 O.3     1  LIG1       -0.4606
     14 C          -0.9553   -1.5695    2.2994 C.2     1  LIG1        0.3182
     15 C          -1.5934   -2.3394    3.3929 C.3     1  LIG1        0.1418
     16 C          -1.5600   -1.5879    4.6835 C.2     1  LIG1        0.3155
     17 O          -2.2068   -0.4042    4.6246 O.3     1  LIG1       -0.4802
     18 O          -1.0710   -1.9707    5.7250 O.2     1  LIG1       -0.2504
     19 O           0.2115   -1.1714    2.3690 O.2     1  LIG1       -0.2502
     20 C          -1.1052    0.8351    0.6044 C.3     1  LIG1        0.0139
     21 C          -0.4909    1.8540   -0.3570 C.3     1  LIG1        0.0745
     22 C          -1.5942    2.4513   -1.2484 C.3     1  LIG1       -0.0354
     23 C           0.6704    1.2190   -1.1812 C.3     1  LIG1       -0.0061
     24 C           1.9759    1.2954   -0.3676 C.3     1  LIG1       -0.0442
     25 C           2.2643    2.7531   -0.0625 C.3     1  LIG1       -0.0200
     26 C           1.1738    3.3717    0.8103 C.3     1  LIG1        0.0853
     27 C           1.2322    4.9014    0.6260 C.3     1  LIG1       -0.0322
     28 C           1.4258    3.0616    2.2810 C.2     1  LIG1       -0.0599
     29 C           0.6151    2.4450    3.1524 C.2     1  LIG1       -0.1000
     30 O          -0.1500    3.0238    0.4202 O.3     1  LIG1       -0.3631
     31 H          -0.3000   -4.7584   -0.3297 H       1  LIG1        0.0235
     32 H          -1.4617   -3.7169    0.4647 H       1  LIG1        0.0235
     33 H           0.2843   -3.5427    0.7910 H       1  LIG1        0.0235
     34 H          -1.8404   -3.9993   -2.1005 H       1  LIG1        0.0235
     35 H          -1.3082   -2.7050   -3.1359 H       1  LIG1        0.0235
     36 H          -2.4035   -2.3623   -1.7926 H       1  LIG1        0.0235
     37 H           0.8202   -4.1801   -2.3359 H       1  LIG1        0.0271
     38 H           1.7736   -3.3176   -1.1424 H       1  LIG1        0.0271
     39 H           0.8375   -2.2673   -3.8370 H       1  LIG1        0.0266
     40 H           2.4624   -2.6064   -3.3069 H       1  LIG1        0.0266
     41 H           2.0334   -0.1766   -3.1991 H       1  LIG1        0.0271
     42 H           2.4367   -0.9085   -1.6478 H       1  LIG1        0.0271
     43 H          -0.6057   -0.8113   -3.7047 H       1  LIG1        0.0235
     44 H          -0.4848    0.8999   -3.4774 H       1  LIG1        0.0235
     45 H          -1.6962   -0.0411   -2.5945 H       1  LIG1        0.0235
     46 H          -1.0273   -3.2697    3.5095 H       1  LIG1        0.0493
     47 H          -2.6263   -2.6085    3.1561 H       1  LIG1        0.0493
     48 H          -2.0978   -0.0268    5.5237 H       1  LIG1        0.2951
     49 H          -0.4250    0.7622    1.4431 H       1  LIG1        0.0329
     50 H          -2.0283    1.2335    1.0514 H       1  LIG1        0.0329
     51 H          -2.2079    1.7158   -1.7604 H       1  LIG1        0.0257
     52 H          -1.1556    3.1317   -1.9886 H       1  LIG1        0.0257
     53 H          -2.2792    3.0687   -0.6511 H       1  LIG1        0.0257
     54 H           0.8498    1.8791   -2.0428 H       1  LIG1        0.0334
     55 H           2.8310    0.9331   -0.9440 H       1  LIG1        0.0270
     56 H           1.9213    0.7012    0.5504 H       1  LIG1        0.0270
     57 H           2.3292    3.2908   -1.0193 H       1  LIG1        0.0296
     58 H           3.2548    2.8548    0.4000 H       1  LIG1        0.0296
     59 H           0.9584    5.1693   -0.4035 H       1  LIG1        0.0260
     60 H           2.2278    5.3119    0.8277 H       1  LIG1        0.0260
     61 H           0.5067    5.4116    1.2705 H       1  LIG1        0.0260
     62 H           2.3906    3.3910    2.6663 H       1  LIG1        0.0594
     63 H          -0.3744    2.1056    2.8794 H       1  LIG1        0.0533
     64 H           0.9235    2.2468    4.1728 H       1  LIG1        0.0533
@<TRIPOS>BOND
     1     1     2    1
     2     2     3    1
     3     2     4    1
     4     4     5    1
     5     5     6    1
     6     6     7    1
     7     7     8    1
     8     7     9    1
     9     9    10    1
    10     2     9    1
    11     9    11    1
    12    11    12    1
    13    11    13    1
    14    13    14    1
    15    14    15    1
    16    15    16    1
    17    16    17    1
    18    16    18    2
    19    14    19    2
    20    11    20    1
    21    20    21    1
    22    21    22    1
    23    21    23    1
    24     7    23    1
    25    23    24    1
    26    24    25    1
    27    25    26    1
    28    28    29    2
    29    26    30    1
    30    21    30    1
    31    26    28    1
    32    26    27    1
    33     1    31    1
    34     1    32    1
    35     1    33    1
    36     3    34    1
    37     3    35    1
    38     3    36    1
    39     4    37    1
    40     4    38    1
    41     5    39    1
    42     5    40    1
    43     6    41    1
    44     6    42    1
    45     8    43    1
    46     8    44    1
    47     8    45    1
    48    15    46    1
    49    15    47    1
    50    17    48    1
    51    20    49    1
    52    20    50    1
    53    22    51    1
    54    22    52    1
    55    22    53    1
    56    23    54    1
    57    24    55    1
    58    24    56    1
    59    25    57    1
    60    25    58    1
    61    27    59    1
    62    27    60    1
    63    27    61    1
    64    28    62    1
    65    29    63    1
    66    29    64    1
