REMARK  Name = NuBBE_437
REMARK  12 active torsions:
REMARK  status: ('A' for Active; 'I' for Inactive)
REMARK    1  A    between atoms: C_1  and  C_2
REMARK    2  A    between atoms: C_3  and  C_46
REMARK    3  A    between atoms: C_8  and  C_9
REMARK    4  A    between atoms: C_8  and  C_45
REMARK    5  A    between atoms: C_10  and  O_34
REMARK    6  A    between atoms: C_13  and  C_33
REMARK    7  A    between atoms: C_22  and  C_23
REMARK    8  A    between atoms: C_28  and  C_30
REMARK    9  A    between atoms: C_30  and  C_31
REMARK   10  A    between atoms: O_34  and  C_35
REMARK   11  A    between atoms: C_35  and  C_36
REMARK   12  A    between atoms: C_37  and  C_38
REMARK                            x       y       z     vdW  Elec       q    Type
REMARK                         _______ _______ _______ _____ _____    ______ ____
ROOT
ATOM      1  C   LIG A   1      -0.792  -1.778  -2.688  0.00  0.00    +0.012 C 
ATOM      2  C   LIG A   1      -0.794  -0.355  -2.093  0.00  0.00    -0.023 C 
ATOM      3  C   LIG A   1      -0.759  -0.503  -0.421  0.00  0.00    -0.023 C 
ATOM      4  C   LIG A   1      -1.905  -1.547   0.567  0.00  0.00    +0.008 C 
ATOM      5  C   LIG A   1      -1.566  -1.854   2.415  0.00  0.00    +0.005 C 
ATOM      6  C   LIG A   1       0.337  -2.038   2.973  0.00  0.00    +0.004 C 
ATOM      7  C   LIG A   1       0.409  -3.471   2.848  0.00  0.00    +0.005 C 
ATOM      8  C   LIG A   1       1.731  -3.972   3.469  0.00  0.00    +0.015 C 
ATOM      9  C   LIG A   1       0.149  -2.891   1.399  0.00  0.00    +0.183 C 
ATOM     10  C   LIG A   1       1.274  -3.533   0.560  0.00  0.00    +0.046 C 
ATOM     11  C   LIG A   1       2.469  -2.760   0.984  0.00  0.00    +0.011 C 
ATOM     12  C   LIG A   1       1.775  -1.524   1.644  0.00  0.00    -0.025 C 
ATOM     13  C   LIG A   1       1.087  -0.862  -0.059  0.00  0.00    +0.002 C 
ATOM     14  C   LIG A   1       2.177  -0.105  -0.836  0.00  0.00    +0.005 C 
ATOM     15  C   LIG A   1       1.837  -0.155  -2.321  0.00  0.00    +0.005 C 
ATOM     16  C   LIG A   1       0.479   0.518  -2.450  0.00  0.00    -0.000 C 
ATOM     17  C   LIG A   1       0.466   1.617  -3.523  0.00  0.00    +0.006 C 
ATOM     18  C   LIG A   1      -0.637   2.650  -3.238  0.00  0.00    -0.028 C 
ATOM     19  C   LIG A   1      -0.168   3.667  -2.165  0.00  0.00    +0.011 C 
ATOM     20  C   LIG A   1      -1.976   1.962  -2.849  0.00  0.00    +0.007 C 
ATOM     21  C   LIG A   1      -1.987   0.401  -2.799  0.00  0.00    +0.008 C 
ATOM     22  C   LIG A   1      -0.720   3.396  -4.576  0.00  0.00    +0.007 C 
ATOM     23  C   LIG A   1      -0.623   2.289  -5.614  0.00  0.00    +0.009 C 
ATOM     24  C   LIG A   1       0.408   1.287  -5.039  0.00  0.00    +0.018 C 
ATOM     25  C   LIG A   1       2.928  -0.742   2.318  0.00  0.00    +0.012 C 
ATOM     26  C   LIG A   1      -0.671  -4.397   3.410  0.00  0.00    +0.015 C 
ATOM     27  C   LIG A   1      -1.461   0.839   0.020  0.00  0.00    +0.012 C 
ENDROOT
BRANCH  24  28
ATOM     28  C   LIG A   1       1.738   1.433  -5.797  0.00  0.00    -0.076 C 
ATOM     29  C   LIG A   1       1.859   0.647  -7.077  0.00  0.00    +0.038 C 
ATOM     30  C   LIG A   1       2.763   2.225  -5.429  0.00  0.00    +0.007 C 
ENDBRANCH  24  28
BRANCH   9  31
ATOM     31  O   LIG A   1      -0.110  -0.962   1.520  0.00  0.00    -0.458 OA
BRANCH  31  32
ATOM     32  C   LIG A   1       0.311   0.362   2.058  0.00  0.00    +0.332 C 
ATOM     33  O   LIG A   1       1.131   1.079   1.511  0.00  0.00    -0.246 OA
BRANCH  32  34
ATOM     34  C   LIG A   1      -0.436   1.115   3.096  0.00  0.00    +0.092 C 
ATOM     35  C   LIG A   1      -1.079   0.708   4.175  0.00  0.00    +0.015 C 
BRANCH  35  36
ATOM     36  C   LIG A   1      -1.670   1.571   5.195  0.00  0.00    -0.025 A 
ATOM     37  C   LIG A   1      -2.881   1.172   5.772  0.00  0.00    +0.008 A 
ATOM     38  C   LIG A   1      -3.347   1.804   6.921  0.00  0.00    +0.001 A 
ATOM     39  C   LIG A   1      -2.611   2.845   7.484  0.00  0.00    +0.000 A 
ATOM     40  C   LIG A   1      -1.431   3.280   6.882  0.00  0.00    +0.001 A 
ATOM     41  C   LIG A   1      -0.961   2.648   5.731  0.00  0.00    +0.008 A 
ENDBRANCH  35  36
ENDBRANCH  32  34
ENDBRANCH  31  32
ENDBRANCH   9  31
TORSDOF 5
