@<TRIPOS>MOLECULE
NuBBE_603
 18 17 0 0 0
SMALL
GASTEIGER

@<TRIPOS>ATOM
      1 O          -0.4084    1.3883   -1.3012 O.3     1  LIG1       -0.3907
      2 C           0.2966    0.1630   -1.4772 C.3     1  LIG1        0.0675
      3 C           0.8864   -0.2633   -0.1705 C.2     1  LIG1       -0.0212
      4 C          -0.0394   -0.6847    0.9540 C.3     1  LIG1        0.1011
      5 C          -1.0241    0.3859    1.4899 C.3     1  LIG1        0.0740
      6 O          -2.0378    0.6749    0.5245 O.3     1  LIG1       -0.3921
      7 O          -0.7783   -1.8200    0.5019 O.3     1  LIG1       -0.3852
      8 C           2.2363   -0.3631   -0.0449 C.2     1  LIG1       -0.0948
      9 H          -0.7381    1.6440   -2.1835 H       1  LIG1        0.2098
     10 H           1.0601    0.3285   -2.2427 H       1  LIG1        0.0605
     11 H          -0.4026   -0.5935   -1.8564 H       1  LIG1        0.0605
     12 H           0.5553   -1.0179    1.8193 H       1  LIG1        0.0664
     13 H          -0.5136    1.3104    1.7773 H       1  LIG1        0.0586
     14 H          -1.5557   -0.0018    2.3658 H       1  LIG1        0.0586
     15 H          -1.5576    1.1364   -0.1996 H       1  LIG1        0.2095
     16 H          -1.5664   -1.4507    0.0588 H       1  LIG1        0.2103
     17 H           2.8866   -0.1060   -0.8680 H       1  LIG1        0.0536
     18 H           2.7008   -0.7304    0.8526 H       1  LIG1        0.0536
@<TRIPOS>BOND
     1     1     2    1
     2     2     3    1
     3     3     4    1
     4     4     5    1
     5     5     6    1
     6     4     7    1
     7     3     8    2
     8     1     9    1
     9     2    10    1
    10     2    11    1
    11     4    12    1
    12     5    13    1
    13     5    14    1
    14     6    15    1
    15     7    16    1
    16     8    17    1
    17     8    18    1
