REMARK  Name = NuBBE_48
REMARK  22 active torsions:
REMARK  status: ('A' for Active; 'I' for Inactive)
REMARK    1  A    between atoms: C_1  and  C_2
REMARK    2  A    between atoms: C_4  and  O_6
REMARK    3  A    between atoms: O_6  and  C_7
REMARK    4  A    between atoms: C_7  and  C_8
REMARK    5  A    between atoms: C_8  and  C_9
REMARK    6  A    between atoms: C_9  and  C_10
REMARK    7  A    between atoms: C_12  and  O_14
REMARK    8  A    between atoms: O_14  and  C_15
REMARK    9  A    between atoms: C_15  and  C_16
REMARK   10  A    between atoms: C_20  and  O_22
REMARK   11  A    between atoms: O_22  and  C_23
REMARK   12  A    between atoms: C_23  and  C_24
REMARK   13  A    between atoms: C_27  and  O_29
REMARK   14  A    between atoms: O_29  and  C_30
REMARK   15  A    between atoms: C_30  and  C_31
REMARK   16  A    between atoms: C_34  and  O_36
REMARK   17  A    between atoms: O_36  and  C_37
REMARK   18  A    between atoms: C_41  and  C_42
REMARK   19  A    between atoms: C_41  and  C_43
REMARK   20  A    between atoms: C_43  and  C_44
REMARK   21  A    between atoms: C_45  and  C_46
REMARK   22  A    between atoms: C_45  and  C_48
REMARK                            x       y       z     vdW  Elec       q    Type
REMARK                         _______ _______ _______ _____ _____    ______ ____
ROOT
ATOM      1  C   LIG A   1      -1.734   1.912   1.837  0.00  0.00    +0.012 C 
ATOM      2  C   LIG A   1      -1.535   0.873   0.718  0.00  0.00    +0.037 C 
ATOM      3  C   LIG A   1      -1.032  -0.461   1.293  0.00  0.00    +0.221 C 
ATOM      4  C   LIG A   1       0.440  -0.818   1.078  0.00  0.00    +0.234 C 
ATOM      5  C   LIG A   1       1.008  -0.603  -0.362  0.00  0.00    +0.104 C 
ATOM      6  C   LIG A   1       0.782  -1.894  -1.159  0.00  0.00    +0.013 C 
ATOM      7  C   LIG A   1       1.871  -2.889  -0.807  0.00  0.00    +0.343 C 
ATOM      8  O   LIG A   1       2.775  -2.113   0.010  0.00  0.00    -0.297 OA
ATOM      9  C   LIG A   1       2.576  -0.735  -0.371  0.00  0.00    +0.328 C 
ATOM     10  C   LIG A   1       0.025  -2.008  -2.263  0.00  0.00    +0.010 C 
ATOM     11  C   LIG A   1      -0.376  -0.841  -3.091  0.00  0.00    +0.141 C 
ATOM     12  C   LIG A   1       0.436   0.396  -2.671  0.00  0.00    +0.041 C 
ATOM     13  C   LIG A   1       0.450   0.655  -1.130  0.00  0.00    +0.018 C 
ATOM     14  C   LIG A   1      -0.876   1.418  -0.614  0.00  0.00    -0.018 C 
ATOM     15  C   LIG A   1      -2.070   1.356  -1.640  0.00  0.00    +0.012 C 
ENDROOT
BRANCH  11  16
ATOM     16  O   LIG A   1      -0.041  -1.225  -4.431  0.00  0.00    -0.376 OA
ATOM     17  C   LIG A   1      -0.542  -0.343  -5.421  0.00  0.00    +0.194 C 
ENDBRANCH  11  16
BRANCH   3  18
ATOM     18  O   LIG A   1      -1.936  -1.551   0.914  0.00  0.00    -0.457 OA
BRANCH  18  19
ATOM     19  C   LIG A   1      -3.002  -1.646   1.756  0.00  0.00    +0.307 C 
ATOM     20  O   LIG A   1      -3.241  -0.857   2.677  0.00  0.00    -0.251 OA
BRANCH  19  21
ATOM     21  C   LIG A   1      -3.922  -2.815   1.445  0.00  0.00    +0.120 C 
BRANCH  21  22
ATOM     22  C   LIG A   1      -5.077  -2.818   2.469  0.00  0.00    +0.008 C 
ATOM     23  C   LIG A   1      -6.122  -3.881   2.211  0.00  0.00    +0.004 C 
ENDBRANCH  21  22
ENDBRANCH  19  21
ENDBRANCH  18  19
ENDBRANCH   3  18
BRANCH   4  24
ATOM     24  O   LIG A   1       1.195  -0.153   2.135  0.00  0.00    -0.457 OA
BRANCH  24  25
ATOM     25  C   LIG A   1       1.100  -0.782   3.356  0.00  0.00    +0.304 C 
ATOM     26  C   LIG A   1       1.735   0.007   4.456  0.00  0.00    +0.136 C 
ATOM     27  O   LIG A   1       0.537  -1.853   3.554  0.00  0.00    -0.251 OA
ENDBRANCH  24  25
ENDBRANCH   4  24
BRANCH   7  28
ATOM     28  O   LIG A   1       2.619  -3.307  -1.957  0.00  0.00    -0.431 OA
BRANCH  28  29
ATOM     29  C   LIG A   1       2.161  -4.385  -2.638  0.00  0.00    +0.306 C 
ATOM     30  C   LIG A   1       3.157  -4.819  -3.674  0.00  0.00    +0.136 C 
ATOM     31  O   LIG A   1       1.088  -4.946  -2.455  0.00  0.00    -0.251 OA
ENDBRANCH  28  29
ENDBRANCH   7  28
BRANCH   9  32
ATOM     32  O   LIG A   1       3.294   0.141   0.511  0.00  0.00    -0.434 OA
BRANCH  32  33
ATOM     33  C   LIG A   1       4.651   0.006   0.417  0.00  0.00    +0.306 C 
ATOM     34  C   LIG A   1       5.379   0.839   1.435  0.00  0.00    +0.136 C 
ATOM     35  O   LIG A   1       5.248  -0.678  -0.406  0.00  0.00    -0.251 OA
ENDBRANCH  32  33
ENDBRANCH   9  32
BRANCH  14  36
ATOM     36  C   LIG A   1      -0.565   2.980  -0.589  0.00  0.00    +0.034 C 
BRANCH  36  37
ATOM     37  C   LIG A   1       0.590   3.475   0.249  0.00  0.00    -0.023 C 
ATOM     38  C   LIG A   1       0.708   4.648   0.899  0.00  0.00    -0.055 C 
ATOM     39  C   LIG A   1       1.985   4.980   1.630  0.00  0.00    +0.043 C 
BRANCH  38  40
ATOM     40  C   LIG A   1      -0.304   5.683   0.971  0.00  0.00    -0.005 C 
ATOM     41  C   LIG A   1      -0.815   6.326  -0.086  0.00  0.00    +0.008 C 
ENDBRANCH  38  40
ENDBRANCH  36  37
ENDBRANCH  14  36
TORSDOF 14
