REMARK  Name = NuBBE_13
REMARK  6 active torsions:
REMARK  status: ('A' for Active; 'I' for Inactive)
REMARK    1  A    between atoms: C_3  and  O_31
REMARK    2  A    between atoms: C_4  and  O_5
REMARK    3  A    between atoms: O_5  and  C_6
REMARK    4  A    between atoms: C_8  and  C_9
REMARK    5  A    between atoms: C_15  and  C_21
REMARK    6  A    between atoms: O_31  and  C_32
REMARK                            x       y       z     vdW  Elec       q    Type
REMARK                         _______ _______ _______ _____ _____    ______ ____
ROOT
ATOM      1  C   LIG A   1      -0.871   0.152   1.138  0.00  0.00    +0.154 C 
ATOM      2  C   LIG A   1      -0.090  -0.130  -0.151  0.00  0.00    +0.056 C 
ATOM      3  C   LIG A   1       1.320   0.404  -0.111  0.00  0.00    +0.167 C 
ATOM      4  O   LIG A   1       2.080  -0.530   0.662  0.00  0.00    -0.371 OA
ATOM      5  C   LIG A   1       1.442  -1.822   0.587  0.00  0.00    +0.154 C 
ATOM      6  C   LIG A   1       0.104  -1.626  -0.139  0.00  0.00    +0.056 C 
ATOM      7  C   LIG A   1      -1.091  -2.121   0.642  0.00  0.00    +0.167 C 
ATOM      8  O   LIG A   1      -1.428  -1.099   1.584  0.00  0.00    -0.371 OA
ENDROOT
BRANCH   5   9
ATOM      9  C   LIG A   1       2.351  -2.816  -0.121  0.00  0.00    -0.015 A 
ATOM     10  C   LIG A   1       3.247  -2.388  -1.121  0.00  0.00    +0.055 A 
ATOM     11  C   LIG A   1       4.057  -3.318  -1.732  0.00  0.00    +0.167 A 
ATOM     12  C   LIG A   1       4.012  -4.643  -1.396  0.00  0.00    +0.166 A 
ATOM     13  C   LIG A   1       3.143  -5.116  -0.429  0.00  0.00    +0.050 A 
ATOM     14  C   LIG A   1       2.302  -4.188   0.211  0.00  0.00    +0.010 A 
ATOM     15  O   LIG A   1       4.893  -5.393  -2.109  0.00  0.00    -0.453 OA
ATOM     16  C   LIG A   1       5.504  -4.375  -2.933  0.00  0.00    +0.466 C 
ATOM     17  O   LIG A   1       4.974  -3.056  -2.704  0.00  0.00    -0.453 OA
ENDBRANCH   5   9
BRANCH   1  22
ATOM     18  C   LIG A   1      -4.235   1.827   0.410  0.00  0.00    +0.050 A 
ATOM     19  C   LIG A   1      -3.931   3.184   0.578  0.00  0.00    +0.162 A 
ATOM     20  C   LIG A   1      -2.627   3.562   0.943  0.00  0.00    +0.162 A 
ATOM     21  C   LIG A   1      -1.661   2.556   1.131  0.00  0.00    +0.055 A 
ATOM     22  C   LIG A   1      -1.959   1.193   0.945  0.00  0.00    -0.015 A 
ATOM     23  C   LIG A   1      -3.260   0.843   0.572  0.00  0.00    +0.010 A 
BRANCH  20  24
ATOM     24  O   LIG A   1      -2.369   4.896   1.111  0.00  0.00    -0.491 OA
ATOM     25  C   LIG A   1      -1.060   5.295   1.495  0.00  0.00    +0.277 C 
ENDBRANCH  20  24
BRANCH  19  26
ATOM     26  O   LIG A   1      -5.023   3.995   0.406  0.00  0.00    -0.491 OA
ATOM     27  C   LIG A   1      -4.791   5.312  -0.073  0.00  0.00    +0.277 C 
ENDBRANCH  19  26
ENDBRANCH   1  22
TORSDOF 4
