@<TRIPOS>MOLECULE
NuBBE_21
 40 42 0 0 0
SMALL
GASTEIGER

@<TRIPOS>ATOM
      1 O          -0.8420    3.6225   -0.5414 O.2     1  LIG1       -0.2706
      2 C          -1.2602    2.5073   -0.8279 C.2     1  LIG1        0.2394
      3 N          -2.5274    2.2608   -1.3481 N.am    1  LIG1       -0.2980
      4 C          -3.4023    3.4098   -1.5757 C.3     1  LIG1        0.0150
      5 C          -4.3209    3.1844   -2.7752 C.3     1  LIG1       -0.0371
      6 C          -5.0812    1.8659   -2.6588 C.3     1  LIG1       -0.0502
      7 C          -4.1138    0.7084   -2.4323 C.3     1  LIG1       -0.0371
      8 C          -3.2153    0.9713   -1.2291 C.3     1  LIG1        0.0150
      9 C          -0.3819    1.3185   -0.6775 C.2     1  LIG1        0.0003
     10 C           0.4672    1.2248    0.3566 C.2     1  LIG1       -0.0568
     11 C           1.3489    0.0908    0.5348 C.2     1  LIG1       -0.0610
     12 C           2.1856   -0.0224    1.5763 C.2     1  LIG1       -0.0545
     13 C           3.0741   -1.1754    1.7343 C.ar    1  LIG1       -0.0213
     14 C           2.6518   -2.2935    2.4657 C.ar    1  LIG1       -0.0090
     15 C           3.5388   -3.3408    2.6107 C.ar    1  LIG1        0.1668
     16 O           3.3043   -4.4925    3.2960 O.3     1  LIG1       -0.4526
     17 C           4.5618   -5.1773    3.1160 C.3     1  LIG1        0.2332
     18 O           5.5130   -4.4329    2.3272 O.3     1  LIG1       -0.4526
     19 C           4.7977   -3.3084    2.0576 C.ar    1  LIG1        0.1663
     20 C           5.2395   -2.2298    1.3229 C.ar    1  LIG1       -0.0156
     21 C           4.3627   -1.1517    1.1594 C.ar    1  LIG1       -0.0509
     22 H          -2.8102    4.3175   -1.7403 H       1  LIG1        0.0464
     23 H          -3.9909    3.5641   -0.6636 H       1  LIG1        0.0464
     24 H          -3.7190    3.1687   -3.6923 H       1  LIG1        0.0280
     25 H          -5.0278    4.0162   -2.8671 H       1  LIG1        0.0280
     26 H          -5.6649    1.6898   -3.5691 H       1  LIG1        0.0266
     27 H          -5.7910    1.9216   -1.8245 H       1  LIG1        0.0266
     28 H          -3.4921    0.5768   -3.3269 H       1  LIG1        0.0280
     29 H          -4.6718   -0.2226   -2.2847 H       1  LIG1        0.0280
     30 H          -2.5168    0.1410   -1.1125 H       1  LIG1        0.0464
     31 H          -3.8111    1.0098   -0.3084 H       1  LIG1        0.0464
     32 H          -0.4336    0.5634   -1.4511 H       1  LIG1        0.0669
     33 H           0.5022    2.0214    1.0984 H       1  LIG1        0.0619
     34 H           1.3172   -0.6939   -0.2195 H       1  LIG1        0.0618
     35 H           2.2501    0.7364    2.3512 H       1  LIG1        0.0623
     36 H           1.6662   -2.3405    2.9153 H       1  LIG1        0.0661
     37 H           4.3711   -6.1363    2.6208 H       1  LIG1        0.1166
     38 H           4.9996   -5.3728    4.1020 H       1  LIG1        0.1166
     39 H           6.2345   -2.2161    0.8929 H       1  LIG1        0.0655
     40 H           4.6881   -0.2844    0.5881 H       1  LIG1        0.0625
@<TRIPOS>BOND
     1     1     2    2
     2     2     3   am
     3     3     4    1
     4     4     5    1
     5     5     6    1
     6     6     7    1
     7     7     8    1
     8     3     8    1
     9     2     9    1
    10     9    10    2
    11    10    11    1
    12    11    12    2
    13    12    13    1
    14    13    14   ar
    15    14    15   ar
    16    15    16    1
    17    16    17    1
    18    17    18    1
    19    15    19   ar
    20    18    19    1
    21    19    20   ar
    22    20    21   ar
    23    13    21   ar
    24     4    22    1
    25     4    23    1
    26     5    24    1
    27     5    25    1
    28     6    26    1
    29     6    27    1
    30     7    28    1
    31     7    29    1
    32     8    30    1
    33     8    31    1
    34     9    32    1
    35    10    33    1
    36    11    34    1
    37    12    35    1
    38    14    36    1
    39    17    37    1
    40    17    38    1
    41    20    39    1
    42    21    40    1
