REMARK  Name = NuBBE_1373
REMARK  7 active torsions:
REMARK  status: ('A' for Active; 'I' for Inactive)
REMARK    1  A    between atoms: C_2  and  C_3
REMARK    2  A    between atoms: C_2  and  C_7
REMARK    3  A    between atoms: C_3  and  C_4
REMARK    4  A    between atoms: C_4  and  C_5
REMARK    5  A    between atoms: C_5  and  C_6
REMARK    6  A    between atoms: C_7  and  C_8
REMARK    7  A    between atoms: C_8  and  O_9
REMARK                            x       y       z     vdW  Elec       q    Type
REMARK                         _______ _______ _______ _____ _____    ______ ____
ROOT
ATOM      1  C   LIG A   1       0.329  -1.039   1.173  0.00  0.00    +0.160 C 
ATOM      2  C   LIG A   1       1.158   0.030   0.467  0.00  0.00    -0.001 A 
ATOM      3  C   LIG A   1       1.054   1.379   0.863  0.00  0.00    +0.007 A 
ATOM      4  C   LIG A   1       1.646   2.395   0.120  0.00  0.00    +0.000 A 
ATOM      5  C   LIG A   1       2.386   2.073  -1.006  0.00  0.00    +0.001 A 
ATOM      6  C   LIG A   1       2.580   0.734  -1.355  0.00  0.00    +0.009 A 
ATOM      7  C   LIG A   1       1.999  -0.317  -0.610  0.00  0.00    -0.011 A 
ATOM      8  C   LIG A   1       2.274  -1.745  -0.898  0.00  0.00    -0.007 A 
ATOM      9  C   LIG A   1       2.944  -2.190  -2.053  0.00  0.00    +0.009 A 
ATOM     10  C   LIG A   1       3.141  -3.552  -2.311  0.00  0.00    +0.001 A 
ATOM     11  C   LIG A   1       2.729  -4.506  -1.385  0.00  0.00    +0.001 A 
ATOM     12  C   LIG A   1       2.137  -4.101  -0.201  0.00  0.00    +0.012 A 
ATOM     13  C   LIG A   1       1.875  -2.741   0.031  0.00  0.00    +0.028 A 
ATOM     14  C   LIG A   1       1.096  -2.356   1.230  0.00  0.00    +0.200 C 
ATOM     15  O   LIG A   1       1.030  -3.125   2.213  0.00  0.00    -0.289 OA
ENDROOT
BRANCH   1  16
ATOM     16  O   LIG A   1       0.105  -0.637   2.540  0.00  0.00    -0.376 OA
ATOM     17  H   LIG A   1       0.006  -1.471   3.044  0.00  0.00    +0.211 HD
ENDBRANCH   1  16
BRANCH   1  18
ATOM     18  C   LIG A   1      -1.050  -1.345   0.535  0.00  0.00    +0.122 C 
BRANCH  18  20
ATOM     19  O   LIG A   1      -3.173  -0.400   1.154  0.00  0.00    -0.297 OA
ATOM     20  C   LIG A   1      -2.107  -0.241   0.528  0.00  0.00    +0.137 C 
BRANCH  20  21
ATOM     21  C   LIG A   1      -1.917   0.953  -0.393  0.00  0.00    +0.074 C 
BRANCH  21  22
ATOM     22  C   LIG A   1      -2.961   2.069  -0.335  0.00  0.00    +0.007 C 
BRANCH  22  23
ATOM     23  C   LIG A   1      -2.996   2.794   1.015  0.00  0.00    -0.003 C 
ATOM     24  C   LIG A   1      -3.973   3.962   1.004  0.00  0.00    +0.004 C 
ENDBRANCH  22  23
ENDBRANCH  21  22
ENDBRANCH  20  21
ENDBRANCH  18  20
ENDBRANCH   1  18
TORSDOF 6
