REMARK  Name = NuBBE_1959
REMARK  8 active torsions:
REMARK  status: ('A' for Active; 'I' for Inactive)
REMARK    1  A    between atoms: C_4  and  C_7
REMARK    2  A    between atoms: C_5  and  O_6
REMARK    3  A    between atoms: C_7  and  C_8
REMARK    4  A    between atoms: C_10  and  C_12
REMARK    5  A    between atoms: C_19  and  O_20
REMARK    6  A    between atoms: O_20  and  C_21
REMARK    7  A    between atoms: C_23  and  C_24
REMARK    8  A    between atoms: C_26  and  O_27
REMARK                            x       y       z     vdW  Elec       q    Type
REMARK                         _______ _______ _______ _____ _____    ______ ____
ROOT
ATOM      1  O   LIG A   1      -3.483   0.890  -0.923  0.00  0.00    -0.295 OA
ATOM      2  C   LIG A   1      -2.651   0.896  -0.018  0.00  0.00    +0.163 C 
ATOM      3  C   LIG A   1      -2.176  -0.402   0.611  0.00  0.00    +0.087 C 
ATOM      4  C   LIG A   1      -0.984  -0.220   1.578  0.00  0.00    +0.014 C 
ATOM      5  C   LIG A   1      -1.357   0.935   2.546  0.00  0.00    +0.128 C 
ATOM      6  C   LIG A   1       0.327   0.308   0.854  0.00  0.00    +0.032 C 
ATOM      7  C   LIG A   1       0.296   1.856   1.090  0.00  0.00    +0.002 C 
ATOM      8  C   LIG A   1       1.397   2.280   2.076  0.00  0.00    +0.009 C 
ATOM      9  C   LIG A   1      -1.108   2.147   1.659  0.00  0.00    +0.057 C 
ATOM     10  C   LIG A   1      -2.175   2.238   0.561  0.00  0.00    +0.186 C 
ENDROOT
BRANCH   6  11
ATOM     11  C   LIG A   1       0.589  -0.093  -0.606  0.00  0.00    -0.036 A 
ATOM     12  C   LIG A   1       0.121   0.663  -1.695  0.00  0.00    +0.053 A 
ATOM     13  C   LIG A   1       0.451   0.285  -2.982  0.00  0.00    +0.170 A 
ATOM     14  C   LIG A   1       1.236  -0.808  -3.249  0.00  0.00    +0.207 A 
ATOM     15  O   LIG A   1       1.437  -0.955  -4.589  0.00  0.00    -0.449 OA
ATOM     16  C   LIG A   1       0.627   0.101  -5.125  0.00  0.00    +0.467 C 
ATOM     17  O   LIG A   1       0.063   0.946  -4.108  0.00  0.00    -0.453 OA
ATOM     18  C   LIG A   1       1.730  -1.595  -2.225  0.00  0.00    +0.166 A 
ATOM     19  C   LIG A   1       1.392  -1.230  -0.901  0.00  0.00    +0.053 A 
BRANCH  18  20
ATOM     20  O   LIG A   1       2.528  -2.700  -2.366  0.00  0.00    -0.491 OA
ATOM     21  C   LIG A   1       2.864  -3.068  -3.705  0.00  0.00    +0.277 C 
ENDBRANCH  18  20
ENDBRANCH   6  11
BRANCH   5  22
ATOM     22  O   LIG A   1      -2.691   0.847   3.015  0.00  0.00    -0.391 OA
ATOM     23  H   LIG A   1      -3.096   1.737   2.979  0.00  0.00    +0.210 HD
ENDBRANCH   5  22
BRANCH  10  24
ATOM     24  O   LIG A   1      -3.318   2.914   1.093  0.00  0.00    -0.384 OA
ATOM     25  H   LIG A   1      -3.971   2.930   0.363  0.00  0.00    +0.210 HD
ENDBRANCH  10  24
BRANCH   4  26
ATOM     26  C   LIG A   1      -0.782  -1.546   2.365  0.00  0.00    +0.037 C 
BRANCH  26  27
ATOM     27  C   LIG A   1       0.346  -1.549   3.367  0.00  0.00    -0.034 C 
ATOM     28  C   LIG A   1       1.394  -2.381   3.322  0.00  0.00    +0.004 C 
ENDBRANCH  26  27
ENDBRANCH   4  26
TORSDOF 6
