@<TRIPOS>MOLECULE
NuBBE_1104
 70 73 0 0 0
SMALL
GASTEIGER

@<TRIPOS>ATOM
      1 C          -1.4368   -2.8570    1.3923 C.3     1  LIG1       -0.0521
      2 C          -2.1646   -2.0325    0.2910 C.3     1  LIG1        0.0316
      3 C          -1.3956   -1.2823   -0.8153 C.2     1  LIG1       -0.0420
      4 C          -1.8198   -1.3348   -2.0907 C.2     1  LIG1        0.0233
      5 C          -3.1149   -1.9350   -2.4687 C.2     1  LIG1        0.3325
      6 O          -3.9077   -2.3642   -1.4623 O.3     1  LIG1       -0.4525
      7 C          -3.3031   -2.9242   -0.2842 C.3     1  LIG1        0.1402
      8 H          -4.1051   -2.9381    0.4672 H       1  LIG1        0.0795
      9 C          -2.9306   -4.3811   -0.5303 C.ar    1  LIG1        0.0313
     10 C          -3.3448   -5.4788    0.2072 C.ar    1  LIG1        0.0984
     11 O          -2.8247   -6.6306   -0.2880 O.2     1  LIG1       -0.4706
     12 C          -2.0716   -6.2929   -1.3624 C.ar    1  LIG1        0.0921
     13 C          -2.0791   -4.9291   -1.5397 C.ar    1  LIG1       -0.0172
     14 O          -3.5030   -1.8941   -3.6343 O.2     1  LIG1       -0.2456
     15 C          -2.5758   -0.7400    0.9822 C.3     1  LIG1       -0.0390
     16 C          -1.2280    0.0365    1.0820 C.3     1  LIG1       -0.0381
     17 C          -0.3773   -0.2694   -0.2113 C.3     1  LIG1        0.0266
     18 C           0.0738    1.1805   -0.7679 C.3     1  LIG1        0.0475
     19 C           0.8406    2.1890    0.3698 C.3     1  LIG1       -0.0022
     20 H           0.1298    2.2477    1.1994 H       1  LIG1        0.0326
     21 C           2.1755    1.6053    1.0042 C.3     1  LIG1        0.0497
     22 C           2.2531    0.4025    1.9324 C.2     1  LIG1        0.3071
     23 O           1.4371    0.4930    3.0145 O.3     1  LIG1       -0.4679
     24 C           1.7160   -0.4969    4.0203 C.3     1  LIG1        0.0817
     25 O           3.1007   -0.4775    1.7887 O.2     1  LIG1       -0.2509
     26 C           1.0974    3.7785    0.0115 C.3     1  LIG1        0.0664
     27 C           2.1055    4.0244   -1.1413 C.2     1  LIG1        0.3128
     28 O           3.3286    3.4711   -0.9036 O.3     1  LIG1       -0.4675
     29 C           4.2835    3.7424   -1.9382 C.3     1  LIG1        0.0817
     30 O           1.8663    4.7281   -2.1155 O.2     1  LIG1       -0.2502
     31 C          -0.1768    4.5986   -0.3417 C.3     1  LIG1       -0.0494
     32 C           1.6314    4.5609    1.2734 C.3     1  LIG1       -0.0494
     33 C          -1.0548    1.8887   -1.5266 C.3     1  LIG1       -0.0511
     34 C           0.9607   -1.0068   -0.3741 C.2     1  LIG1       -0.0582
     35 C           1.3480   -2.3151    0.2225 C.3     1  LIG1       -0.0425
     36 C           1.7501   -0.4662   -1.3455 C.2     1  LIG1       -0.0188
     37 C           1.1820    0.7911   -1.7866 C.2     1  LIG1        0.1633
     38 O           1.5850    1.4273   -2.7343 O.2     1  LIG1       -0.2920
     39 H          -0.9374   -3.7492    1.0095 H       1  LIG1        0.0239
     40 H          -2.1625   -3.1874    2.1481 H       1  LIG1        0.0239
     41 H          -0.6957   -2.2892    1.9557 H       1  LIG1        0.0239
     42 H          -1.3441   -0.7895   -2.8981 H       1  LIG1        0.0689
     43 H          -3.9749   -5.6043    1.0776 H       1  LIG1        0.1033
     44 H          -1.6016   -7.1165   -1.8850 H       1  LIG1        0.1029
     45 H          -1.5404   -4.4038   -2.3155 H       1  LIG1        0.0653
     46 H          -3.0284   -0.8907    1.9680 H       1  LIG1        0.0275
     47 H          -3.3058   -0.1752    0.3816 H       1  LIG1        0.0275
     48 H          -0.6925   -0.2085    1.9973 H       1  LIG1        0.0277
     49 H          -1.5269    1.0883    1.1593 H       1  LIG1        0.0277
     50 H           2.6605    2.3654    1.6263 H       1  LIG1        0.0381
     51 H           2.9034    1.4162    0.2097 H       1  LIG1        0.0381
     52 H           2.6465   -0.2433    4.5409 H       1  LIG1        0.0661
     53 H           1.7880   -1.5064    3.5974 H       1  LIG1        0.0661
     54 H           0.9013   -0.4971    4.7498 H       1  LIG1        0.0661
     55 H           4.4840    4.8181   -2.0012 H       1  LIG1        0.0661
     56 H           3.9277    3.3644   -2.9028 H       1  LIG1        0.0661
     57 H           5.2210    3.2335   -1.6945 H       1  LIG1        0.0661
     58 H          -0.6786    4.3174   -1.2668 H       1  LIG1        0.0240
     59 H           0.0998    5.6589   -0.5075 H       1  LIG1        0.0240
     60 H          -0.8993    4.5855    0.4829 H       1  LIG1        0.0240
     61 H           1.6713    3.9526    2.1809 H       1  LIG1        0.0240
     62 H           0.9682    5.3906    1.5577 H       1  LIG1        0.0240
     63 H           2.6165    5.0101    1.1046 H       1  LIG1        0.0240
     64 H          -1.7840    2.3281   -0.8515 H       1  LIG1        0.0240
     65 H          -1.5982    1.2096   -2.1931 H       1  LIG1        0.0240
     66 H          -0.6609    2.6476   -2.2108 H       1  LIG1        0.0240
     67 H           2.3852   -2.5787   -0.0192 H       1  LIG1        0.0275
     68 H           0.7311   -3.1227   -0.1788 H       1  LIG1        0.0275
     69 H           1.2827   -2.2899    1.3096 H       1  LIG1        0.0275
     70 H           2.6933   -0.8532   -1.7279 H       1  LIG1        0.0652
@<TRIPOS>BOND
     1     2     3    1
     2     3     4    2
     3     4     5    1
     4     5     6    1
     5     6     7    1
     6     9    10   ar
     7    10    11   ar
     8    11    12   ar
     9    12    13   ar
    10     9    13   ar
    11     7     2    1
    12     2    15    1
    13    15    16    1
    14    16    17    1
    15    17    18    1
    16    18    19    1
    17    19    20    1
    18    19    21    1
    19    21    22    1
    20    22    23    1
    21    23    24    1
    22    22    25    2
    23    19    26    1
    24    26    27    1
    25    27    28    1
    26    28    29    1
    27    27    30    2
    28    26    31    1
    29    26    32    1
    30    18    33    1
    31     3    17    1
    32    17    34    1
    33    34    35    1
    34    34    36    2
    35    36    37    1
    36    18    37    1
    37    37    38    2
    38     1     2    1
    39     5    14    2
    40     7     8    1
    41     7     9    1
    42     1    39    1
    43     1    40    1
    44     1    41    1
    45     4    42    1
    46    10    43    1
    47    12    44    1
    48    13    45    1
    49    15    46    1
    50    15    47    1
    51    16    48    1
    52    16    49    1
    53    21    50    1
    54    21    51    1
    55    24    52    1
    56    24    53    1
    57    24    54    1
    58    29    55    1
    59    29    56    1
    60    29    57    1
    61    31    58    1
    62    31    59    1
    63    31    60    1
    64    32    61    1
    65    32    62    1
    66    32    63    1
    67    33    64    1
    68    33    65    1
    69    33    66    1
    70    35    67    1
    71    35    68    1
    72    35    69    1
    73    36    70    1
