@<TRIPOS>MOLECULE
NuBBE_650
 49 51 0 0 0
SMALL
GASTEIGER

@<TRIPOS>ATOM
      1 O          -1.8630    2.9033    3.4263 O.2     1  LIG1       -0.2883
      2 C          -1.8020    2.2997    2.3653 C.2     1  LIG1        0.2026
      3 C          -2.2810    2.8828    1.1121 C.2     1  LIG1        0.0269
      4 C          -2.0222    1.8813    0.2761 C.2     1  LIG1        0.1305
      5 O          -1.7060    0.6403    0.8329 O.2     1  LIG1       -0.4776
      6 C          -1.1545    0.9384    2.1225 C.3     1  LIG1        0.1724
      7 C          -1.6583   -0.0247    3.1937 C.3     1  LIG1       -0.0174
      8 C           0.3976    0.9750    2.0387 C.3     1  LIG1        0.0321
      9 C           1.1827    0.2316    0.8851 C.3     1  LIG1        0.1181
     10 H           2.0772   -0.1757    1.3762 H       1  LIG1        0.0743
     11 O           0.4637   -0.8714    0.2804 O.3     1  LIG1       -0.4572
     12 C           0.5194   -2.0922    0.8818 C.2     1  LIG1        0.3348
     13 C          -0.2527   -3.1431    0.1358 C.2     1  LIG1        0.0293
     14 C          -0.7736   -4.2714    0.9925 C.3     1  LIG1       -0.0333
     15 C          -0.4552   -3.1939   -1.1964 C.2     1  LIG1       -0.0774
     16 C           0.0959   -2.3230   -2.2720 C.3     1  LIG1       -0.0461
     17 O           1.0679   -2.3137    1.9524 O.2     1  LIG1       -0.2453
     18 C           1.7271    1.2140   -0.2140 C.3     1  LIG1        0.0682
     19 H           1.9698    2.1658    0.2809 H       1  LIG1        0.0427
     20 C           0.8457    1.4803   -1.4418 C.3     1  LIG1        0.1326
     21 H           0.4898    0.5377   -1.8601 H       1  LIG1        0.0787
     22 O           1.6879    2.0944   -2.4153 O.3     1  LIG1       -0.4531
     23 C           2.9503    1.6038   -2.2570 C.2     1  LIG1        0.3357
     24 C           2.9802    0.8652   -0.9616 C.2     1  LIG1        0.0400
     25 C           4.0174    0.0817   -0.6462 C.2     1  LIG1       -0.0882
     26 O           3.8792    1.7860   -3.0080 O.2     1  LIG1       -0.2453
     27 C          -0.2761    2.4353   -1.1309 C.2     1  LIG1       -0.0344
     28 C          -1.5572    2.0008   -1.0963 C.2     1  LIG1        0.0192
     29 C          -2.2153    1.0727   -2.0958 C.3     1  LIG1        0.0725
     30 O          -1.3591    0.7211   -3.1781 O.3     1  LIG1       -0.3903
     31 H          -2.4233    3.9339    0.9450 H       1  LIG1        0.0691
     32 H          -2.7226   -0.2452    3.0625 H       1  LIG1        0.0272
     33 H          -1.5254    0.3995    4.1977 H       1  LIG1        0.0272
     34 H          -1.1218   -0.9768    3.1677 H       1  LIG1        0.0272
     35 H           0.7811    0.5625    2.9845 H       1  LIG1        0.0344
     36 H           0.7421    2.0172    2.0785 H       1  LIG1        0.0344
     37 H           0.0444   -4.7608    1.5320 H       1  LIG1        0.0280
     38 H          -1.2605   -5.0529    0.3939 H       1  LIG1        0.0280
     39 H          -1.5111   -3.9080    1.7137 H       1  LIG1        0.0280
     40 H          -1.0666   -4.0076   -1.5903 H       1  LIG1        0.0574
     41 H           0.8909   -1.6641   -1.9261 H       1  LIG1        0.0272
     42 H          -0.7055   -1.7353   -2.7231 H       1  LIG1        0.0272
     43 H           0.5329   -2.9527   -3.0539 H       1  LIG1        0.0272
     44 H           4.8587   -0.0221   -1.3301 H       1  LIG1        0.0540
     45 H           4.0799   -0.4567    0.2914 H       1  LIG1        0.0540
     46 H           0.0453    3.2016   -0.4229 H       1  LIG1        0.0613
     47 H          -3.0798    1.5777   -2.5389 H       1  LIG1        0.0608
     48 H          -2.5634    0.1465   -1.6302 H       1  LIG1        0.0608
     49 H          -0.9709    1.5411   -3.5306 H       1  LIG1        0.2098
@<TRIPOS>BOND
     1     2     3    1
     2     3     4    2
     3     4     5    1
     4     5     6    1
     5     2     6    1
     6     6     8    1
     7     8     9    1
     8    11    12    1
     9    12    13    1
    10    13    14    1
    11    13    15    2
    12    15    16    1
    13    12    17    2
    14     9    18    1
    15    18    20    1
    16    20    22    1
    17    22    23    1
    18    23    24    1
    19    18    24    1
    20    20    27    1
    21    27    28    2
    22     4    28    1
    23    29    30    1
    24     1     2    2
    25     6     7    1
    26     9    10    1
    27     9    11    1
    28    18    19    1
    29    20    21    1
    30    23    26    2
    31    24    25    2
    32    28    29    1
    33     3    31    1
    34     7    32    1
    35     7    33    1
    36     7    34    1
    37     8    35    1
    38     8    36    1
    39    14    37    1
    40    14    38    1
    41    14    39    1
    42    15    40    1
    43    16    41    1
    44    16    42    1
    45    16    43    1
    46    25    44    1
    47    25    45    1
    48    27    46    1
    49    29    47    1
    50    29    48    1
    51    30    49    1
