REMARK  Name = NuBBE_2003
REMARK  12 active torsions:
REMARK  status: ('A' for Active; 'I' for Inactive)
REMARK    1  A    between atoms: C_1  and  C_2
REMARK    2  A    between atoms: C_7  and  C_9
REMARK    3  A    between atoms: C_12  and  O_13
REMARK    4  A    between atoms: O_13  and  C_14
REMARK    5  A    between atoms: C_14  and  C_15
REMARK    6  A    between atoms: C_17  and  O_18
REMARK    7  A    between atoms: O_18  and  C_19
REMARK    8  A    between atoms: C_23  and  O_24
REMARK    9  A    between atoms: C_25  and  C_26
REMARK   10  A    between atoms: C_27  and  O_28
REMARK   11  A    between atoms: O_28  and  C_29
REMARK   12  A    between atoms: C_29  and  C_30
REMARK                            x       y       z     vdW  Elec       q    Type
REMARK                         _______ _______ _______ _____ _____    ______ ____
ROOT
ATOM      1  C   LIG A   1      -2.616  -0.631  -2.136  0.00  0.00    +0.051 C 
ATOM      2  C   LIG A   1      -1.113  -0.750  -2.119  0.00  0.00    +0.035 A 
ATOM      3  C   LIG A   1      -0.303   0.400  -2.083  0.00  0.00    +0.142 A 
ATOM      4  C   LIG A   1       1.087   0.282  -2.079  0.00  0.00    +0.101 A 
ATOM      5  C   LIG A   1       1.898   1.514  -2.151  0.00  0.00    +0.174 C 
ATOM      6  C   LIG A   1       1.162   2.821  -2.169  0.00  0.00    +0.129 C 
ATOM      7  C   LIG A   1      -0.137   2.670  -1.387  0.00  0.00    +0.211 C 
ATOM      8  O   LIG A   1      -0.932   1.623  -1.993  0.00  0.00    -0.483 OA
ATOM      9  O   LIG A   1       3.119   1.441  -2.270  0.00  0.00    -0.292 OA
ATOM     10  C   LIG A   1       1.689  -0.981  -2.014  0.00  0.00    +0.137 A 
ATOM     11  C   LIG A   1       0.918  -2.154  -1.971  0.00  0.00    +0.034 A 
ATOM     12  C   LIG A   1       1.615  -3.483  -1.877  0.00  0.00    +0.051 C 
ATOM     13  C   LIG A   1      -0.483  -2.018  -2.060  0.00  0.00    +0.144 A 
ENDROOT
BRANCH   7  14
ATOM     14  C   LIG A   1       0.032   2.530   0.130  0.00  0.00    -0.003 A 
ATOM     15  C   LIG A   1       0.700   3.510   0.877  0.00  0.00    +0.011 A 
ATOM     16  C   LIG A   1       0.844   3.378   2.265  0.00  0.00    +0.050 A 
ATOM     17  C   LIG A   1       0.331   2.255   2.920  0.00  0.00    +0.173 A 
ATOM     18  C   LIG A   1      -0.301   1.242   2.194  0.00  0.00    +0.163 A 
ATOM     19  C   LIG A   1      -0.496   1.430   0.826  0.00  0.00    +0.056 A 
BRANCH  18  20
ATOM     20  O   LIG A   1      -0.749   0.131   2.864  0.00  0.00    -0.491 OA
ATOM     21  C   LIG A   1      -0.842  -1.063   2.078  0.00  0.00    +0.277 C 
ENDBRANCH  18  20
BRANCH  17  22
ATOM     22  O   LIG A   1       0.457   2.064   4.316  0.00  0.00    -0.422 OA
BRANCH  22  23
ATOM     23  C   LIG A   1       0.408   3.127   5.217  0.00  0.00    +0.309 C 
ATOM     24  C   LIG A   1       0.456   2.590   6.617  0.00  0.00    +0.136 C 
ATOM     25  O   LIG A   1       0.291   4.316   4.950  0.00  0.00    -0.251 OA
ENDBRANCH  22  23
ENDBRANCH  17  22
ENDBRANCH   7  14
BRANCH  10  26
ATOM     26  O   LIG A   1       3.056  -1.114  -2.009  0.00  0.00    -0.506 OA
ATOM     27  H   LIG A   1       3.463  -0.225  -2.116  0.00  0.00    +0.292 HD
ENDBRANCH  10  26
BRANCH  13  28
ATOM     28  O   LIG A   1      -1.328  -3.134  -2.358  0.00  0.00    -0.425 OA
BRANCH  28  29
ATOM     29  C   LIG A   1      -1.319  -4.414  -1.784  0.00  0.00    +0.309 C 
ATOM     30  C   LIG A   1      -2.037  -5.346  -2.723  0.00  0.00    +0.136 C 
ATOM     31  O   LIG A   1      -0.859  -4.727  -0.706  0.00  0.00    -0.251 OA
ENDBRANCH  28  29
ENDBRANCH  13  28
TORSDOF 7
