REMARK  Name = NuBBE_1253
REMARK  7 active torsions:
REMARK  status: ('A' for Active; 'I' for Inactive)
REMARK    1  A    between atoms: C_2  and  C_3
REMARK    2  A    between atoms: C_4  and  O_13
REMARK    3  A    between atoms: C_6  and  O_11
REMARK    4  A    between atoms: C_8  and  O_9
REMARK    5  A    between atoms: O_9  and  C_10
REMARK    6  A    between atoms: O_11  and  C_12
REMARK    7  A    between atoms: O_13  and  C_14
REMARK                            x       y       z     vdW  Elec       q    Type
REMARK                         _______ _______ _______ _____ _____    ______ ____
ROOT
ATOM      1  C   LIG A   1      -0.510   1.286  -0.549  0.00  0.00    +0.098 A 
ATOM      2  C   LIG A   1       0.562   1.431   0.363  0.00  0.00    +0.137 A 
ATOM      3  C   LIG A   1       1.106   0.291   0.966  0.00  0.00    +0.092 A 
ATOM      4  C   LIG A   1       0.640  -0.979   0.641  0.00  0.00    +0.127 A 
ATOM      5  C   LIG A   1      -0.416  -1.117  -0.252  0.00  0.00    +0.092 A 
ATOM      6  C   LIG A   1      -1.015   0.004  -0.838  0.00  0.00    +0.137 A 
ENDROOT
BRANCH   1   8
ATOM      7  O   LIG A   1      -2.028   2.522  -1.953  0.00  0.00    -0.295 OA
ATOM      8  C   LIG A   1      -1.091   2.512  -1.172  0.00  0.00    +0.266 C 
ENDBRANCH   1   8
BRANCH   6   9
ATOM      9  O   LIG A   1      -2.022  -0.136  -1.758  0.00  0.00    -0.494 OA
ATOM     10  C   LIG A   1      -2.946  -1.200  -1.543  0.00  0.00    +0.277 C 
ENDBRANCH   6   9
BRANCH   4  11
ATOM     11  O   LIG A   1       1.272  -2.017   1.271  0.00  0.00    -0.495 OA
ATOM     12  C   LIG A   1       1.262  -3.255   0.564  0.00  0.00    +0.277 C 
ENDBRANCH   4  11
BRANCH   2  13
ATOM     13  O   LIG A   1       1.035   2.700   0.605  0.00  0.00    -0.494 OA
ATOM     14  C   LIG A   1       2.138   2.821   1.502  0.00  0.00    +0.277 C 
ENDBRANCH   2  13
TORSDOF 4
