REMARK  Name = NuBBE_1671
REMARK  14 active torsions:
REMARK  status: ('A' for Active; 'I' for Inactive)
REMARK    1  A    between atoms: C_1  and  O_2
REMARK    2  A    between atoms: O_2  and  C_3
REMARK    3  A    between atoms: C_4  and  O_5
REMARK    4  A    between atoms: O_5  and  C_6
REMARK    5  A    between atoms: C_7  and  O_8
REMARK    6  A    between atoms: O_8  and  C_9
REMARK    7  A    between atoms: C_11  and  C_12
REMARK    8  A    between atoms: C_15  and  C_16
REMARK    9  A    between atoms: C_18  and  O_19
REMARK   10  A    between atoms: O_19  and  C_20
REMARK   11  A    between atoms: C_21  and  O_22
REMARK   12  A    between atoms: O_22  and  C_23
REMARK   13  A    between atoms: C_24  and  O_25
REMARK   14  A    between atoms: O_25  and  C_26
REMARK                            x       y       z     vdW  Elec       q    Type
REMARK                         _______ _______ _______ _____ _____    ______ ____
ROOT
ATOM      1  C   LIG A   1       0.198   1.448   2.624  0.00  0.00    +0.154 C 
ATOM      2  C   LIG A   1      -0.028   0.027   2.093  0.00  0.00    +0.056 C 
ATOM      3  C   LIG A   1       1.319  -0.418   1.598  0.00  0.00    +0.056 C 
ATOM      4  C   LIG A   1       1.278  -1.927   1.728  0.00  0.00    +0.154 C 
ATOM      5  O   LIG A   1       0.475  -2.157   2.907  0.00  0.00    -0.371 OA
ATOM      6  C   LIG A   1      -0.295  -0.976   3.204  0.00  0.00    +0.167 C 
ATOM      7  C   LIG A   1       2.254   0.299   2.571  0.00  0.00    +0.167 C 
ATOM      8  O   LIG A   1       1.600   1.509   2.980  0.00  0.00    -0.371 OA
ENDROOT
BRANCH   1  13
ATOM      9  C   LIG A   1      -1.332   4.448   0.857  0.00  0.00    +0.166 A 
ATOM     10  C   LIG A   1      -0.579   4.511  -0.364  0.00  0.00    +0.203 A 
ATOM     11  C   LIG A   1       0.394   3.518  -0.589  0.00  0.00    +0.166 A 
ATOM     12  C   LIG A   1       0.648   2.570   0.398  0.00  0.00    +0.056 A 
ATOM     13  C   LIG A   1      -0.051   2.508   1.590  0.00  0.00    -0.011 A 
ATOM     14  C   LIG A   1      -1.062   3.463   1.792  0.00  0.00    +0.056 A 
BRANCH   9  16
ATOM     15  C   LIG A   1      -3.100   5.223   2.207  0.00  0.00    +0.277 C 
ATOM     16  O   LIG A   1      -2.362   5.362   1.021  0.00  0.00    -0.491 OA
ENDBRANCH   9  16
BRANCH  10  17
ATOM     17  O   LIG A   1      -0.782   5.532  -1.257  0.00  0.00    -0.488 OA
ATOM     18  C   LIG A   1       0.317   5.896  -2.092  0.00  0.00    +0.277 C 
ENDBRANCH  10  17
BRANCH  11  19
ATOM     19  O   LIG A   1       1.019   3.378  -1.822  0.00  0.00    -0.491 OA
ATOM     20  C   LIG A   1       2.431   3.079  -1.783  0.00  0.00    +0.277 C 
ENDBRANCH  11  19
ENDBRANCH   1  13
BRANCH   4  21
ATOM     21  C   LIG A   1       0.684  -2.629   0.509  0.00  0.00    -0.011 A 
ATOM     22  C   LIG A   1      -0.433  -3.471   0.639  0.00  0.00    +0.056 A 
ATOM     23  C   LIG A   1      -1.026  -4.079  -0.476  0.00  0.00    +0.166 A 
ATOM     24  C   LIG A   1      -0.508  -3.888  -1.783  0.00  0.00    +0.203 A 
ATOM     25  C   LIG A   1       0.630  -3.054  -1.929  0.00  0.00    +0.166 A 
ATOM     26  C   LIG A   1       1.207  -2.474  -0.778  0.00  0.00    +0.056 A 
BRANCH  23  27
ATOM     27  O   LIG A   1      -2.172  -4.848  -0.370  0.00  0.00    -0.491 OA
ATOM     28  C   LIG A   1      -2.683  -5.077   0.941  0.00  0.00    +0.277 C 
ENDBRANCH  23  27
BRANCH  24  29
ATOM     29  O   LIG A   1      -1.316  -4.302  -2.812  0.00  0.00    -0.488 OA
ATOM     30  C   LIG A   1      -0.822  -5.346  -3.655  0.00  0.00    +0.277 C 
ENDBRANCH  24  29
BRANCH  25  31
ATOM     31  O   LIG A   1       1.202  -2.523  -3.056  0.00  0.00    -0.491 OA
ATOM     32  C   LIG A   1       1.296  -3.224  -4.280  0.00  0.00    +0.277 C 
ENDBRANCH  25  31
ENDBRANCH   4  21
TORSDOF 8
