REMARK  Name = NuBBE_1943
REMARK  5 active torsions:
REMARK  status: ('A' for Active; 'I' for Inactive)
REMARK    1  A    between atoms: C_1  and  C_3
REMARK    2  A    between atoms: C_1  and  C_4
REMARK    3  A    between atoms: C_8  and  C_21
REMARK    4  A    between atoms: C_12  and  C_20
REMARK    5  A    between atoms: C_16  and  C_19
REMARK                            x       y       z     vdW  Elec       q    Type
REMARK                         _______ _______ _______ _____ _____    ______ ____
ROOT
ATOM      1  C   LIG A   1       1.160   1.415   0.527  0.00  0.00    +0.018 C 
ATOM      2  C   LIG A   1      -0.050   2.018   1.292  0.00  0.00    +0.012 C 
ATOM      3  C   LIG A   1      -1.030   1.023   1.940  0.00  0.00    +0.030 C 
ATOM      4  C   LIG A   1      -2.457   0.893   1.429  0.00  0.00    -0.076 C 
ATOM      5  C   LIG A   1      -2.911   0.859   0.159  0.00  0.00    -0.027 C 
ATOM      6  C   LIG A   1      -2.166   0.911  -1.143  0.00  0.00    +0.031 C 
ATOM      7  C   LIG A   1      -2.324  -0.349  -2.014  0.00  0.00    +0.034 C 
ATOM      8  C   LIG A   1      -1.774  -1.625  -1.397  0.00  0.00    -0.076 C 
ATOM      9  C   LIG A   1      -0.485  -1.981  -1.580  0.00  0.00    -0.027 C 
ATOM     10  C   LIG A   1       0.212  -3.164  -0.947  0.00  0.00    +0.031 C 
ATOM     11  C   LIG A   1       1.748  -3.013  -0.845  0.00  0.00    +0.034 C 
ATOM     12  C   LIG A   1       2.320  -1.776  -0.157  0.00  0.00    -0.076 C 
ATOM     13  C   LIG A   1       1.608  -1.043   0.721  0.00  0.00    -0.027 C 
ATOM     14  C   LIG A   1       1.943   0.315   1.299  0.00  0.00    +0.035 C 
ATOM     15  C   LIG A   1       3.713  -1.431  -0.617  0.00  0.00    +0.038 C 
ATOM     16  C   LIG A   1      -2.771  -2.459  -0.636  0.00  0.00    +0.038 C 
ATOM     17  C   LIG A   1      -3.458   0.693   2.550  0.00  0.00    +0.038 C 
ENDROOT
BRANCH   1  18
ATOM     18  C   LIG A   1       2.066   2.547   0.030  0.00  0.00    -0.076 C 
ATOM     19  C   LIG A   1       2.921   3.213   0.822  0.00  0.00    +0.007 C 
ATOM     20  C   LIG A   1       1.939   2.882  -1.433  0.00  0.00    +0.038 C 
ENDBRANCH   1  18
TORSDOF 1
