@<TRIPOS>MOLECULE
NuBBE_446
 55 58 0 0 0
SMALL
GASTEIGER

@<TRIPOS>ATOM
      1 O          -0.7578    1.3005    2.3187 O.2     1  LIG1       -0.2830
      2 C          -0.4710    0.1287    2.1493 C.ar    1  LIG1        0.2382
      3 C          -0.6742   -0.8047    3.2682 C.ar    1  LIG1        0.1092
      4 C          -1.2201   -0.3995    4.4873 C.ar    1  LIG1        0.1348
      5 O          -1.7374    0.8463    4.7056 O.3     1  LIG1       -0.5058
      6 C          -1.2577   -1.2883    5.5673 C.ar    1  LIG1        0.0223
      7 C          -0.7623   -2.5770    5.4020 C.ar    1  LIG1        0.1239
      8 O          -0.7386   -3.4691    6.4317 O.3     1  LIG1       -0.5065
      9 C          -0.2711   -2.9985    4.1741 C.ar    1  LIG1        0.0231
     10 C          -0.2371   -2.0941    3.1157 C.ar    1  LIG1        0.1465
     11 O           0.2464   -2.5704    1.9320 O.2     1  LIG1       -0.4507
     12 C           0.4760   -1.6988    0.8789 C.ar    1  LIG1        0.1810
     13 C           1.1649   -2.4517   -0.2146 C.ar    1  LIG1        0.0247
     14 C           1.9791   -3.5556    0.1134 C.ar    1  LIG1       -0.0473
     15 C           2.5725   -4.3498   -0.8695 C.ar    1  LIG1       -0.0159
     16 C           2.3867   -4.0227   -2.2064 C.ar    1  LIG1        0.1585
     17 O           3.0049   -4.7664   -3.1743 O.3     1  LIG1       -0.5033
     18 C           1.5857   -2.9316   -2.5655 C.ar    1  LIG1        0.1619
     19 O           1.4291   -2.6763   -3.9048 O.3     1  LIG1       -0.4914
     20 C           1.1702   -1.3121   -4.2231 C.3     1  LIG1        0.0790
     21 C           0.9528   -2.1755   -1.5655 C.ar    1  LIG1       -0.0055
     22 C           0.1338   -0.3903    0.8772 C.ar    1  LIG1        0.2138
     23 O           0.4261    0.4773   -0.1801 O.3     1  LIG1       -0.4532
     24 C          -0.4016    1.6455   -0.3828 C.3     1  LIG1        0.2311
     25 H          -1.2528    1.6753    0.2964 H       1  LIG1        0.1084
     26 C           0.4773    2.9203   -0.2432 C.3     1  LIG1        0.1454
     27 H           0.8997    3.0021    0.7638 H       1  LIG1        0.0683
     28 O           1.6116    2.8806   -1.1421 O.3     1  LIG1       -0.3829
     29 O          -0.9911    1.6001   -1.6975 O.3     1  LIG1       -0.3339
     30 C          -1.8753    2.7215   -1.8940 C.3     1  LIG1        0.0883
     31 H          -2.6110    2.7506   -1.0783 H       1  LIG1        0.0621
     32 C          -2.6585    2.5111   -3.1819 C.3     1  LIG1       -0.0360
     33 C          -1.0787    4.0329   -1.9135 C.3     1  LIG1        0.1096
     34 H          -0.3719    4.0422   -2.7525 H       1  LIG1        0.0646
     35 O          -1.9467    5.1590   -2.0854 O.3     1  LIG1       -0.3866
     36 C          -0.3180    4.1860   -0.5898 C.3     1  LIG1        0.1151
     37 H          -1.0224    4.4287    0.2146 H       1  LIG1        0.0648
     38 O           0.5645    5.3175   -0.7131 O.3     1  LIG1       -0.3864
     39 H          -1.6210    1.3724    3.8812 H       1  LIG1        0.2922
     40 H          -1.6555   -0.9523    6.5166 H       1  LIG1        0.0691
     41 H          -1.1083   -3.0439    7.2238 H       1  LIG1        0.2921
     42 H           0.0999   -4.0117    4.0523 H       1  LIG1        0.0691
     43 H           2.1469   -3.8346    1.1535 H       1  LIG1        0.0626
     44 H           3.1606   -5.2130   -0.5723 H       1  LIG1        0.0655
     45 H           3.6447   -5.3630   -2.7535 H       1  LIG1        0.2923
     46 H           1.1865   -1.2070   -5.3107 H       1  LIG1        0.0660
     47 H           1.9457   -0.6605   -3.8042 H       1  LIG1        0.0660
     48 H           0.1754   -1.0039   -3.8856 H       1  LIG1        0.0660
     49 H           0.2597   -1.3878   -1.8345 H       1  LIG1        0.0662
     50 H           1.9466    1.9638   -1.1133 H       1  LIG1        0.2102
     51 H          -3.2935    1.6233   -3.0907 H       1  LIG1        0.0255
     52 H          -1.9891    2.3420   -4.0308 H       1  LIG1        0.0255
     53 H          -3.3044    3.3669   -3.4026 H       1  LIG1        0.0255
     54 H          -1.3793    5.9486   -1.9786 H       1  LIG1        0.2100
     55 H           1.3593    4.9668   -1.1690 H       1  LIG1        0.2100
@<TRIPOS>BOND
     1     1     2    2
     2     2     3   ar
     3     3     4   ar
     4     4     5    1
     5     4     6   ar
     6     6     7   ar
     7     7     8    1
     8     7     9   ar
     9     9    10   ar
    10     3    10   ar
    11    10    11   ar
    12    11    12   ar
    13    12    13    1
    14    13    14   ar
    15    14    15   ar
    16    15    16   ar
    17    16    17    1
    18    16    18   ar
    19    18    19    1
    20    19    20    1
    21    18    21   ar
    22    13    21   ar
    23    12    22   ar
    24     2    22   ar
    25    22    23    1
    26    24    26    1
    27    26    27    1
    28    26    28    1
    29    24    29    1
    30    29    30    1
    31    30    31    1
    32    30    32    1
    33    30    33    1
    34    33    36    1
    35    36    37    1
    36    26    36    1
    37    36    38    1
    38    33    35    1
    39    33    34    1
    40    24    25    1
    41    24    23    1
    42     5    39    1
    43     6    40    1
    44     8    41    1
    45     9    42    1
    46    14    43    1
    47    15    44    1
    48    17    45    1
    49    20    46    1
    50    20    47    1
    51    20    48    1
    52    21    49    1
    53    28    50    1
    54    32    51    1
    55    32    52    1
    56    32    53    1
    57    35    54    1
    58    38    55    1
