@<TRIPOS>MOLECULE
NuBBE_1436
 27 30 0 0 0
SMALL
GASTEIGER

@<TRIPOS>ATOM
      1 C          -1.5081    2.2481   -2.0551 C.3     1  LIG1        0.0788
      2 O          -1.8722    1.7540   -0.7646 O.3     1  LIG1       -0.4937
      3 C          -1.2181    0.5649   -0.5149 C.ar    1  LIG1        0.1417
      4 C          -1.7415   -0.6503   -0.9794 C.ar    1  LIG1        0.0820
      5 C          -1.0312   -1.7997   -0.6600 C.ar    1  LIG1        0.2312
      6 O          -1.6570   -2.8894   -1.1893 O.2     1  LIG1       -0.4449
      7 C          -2.7678   -2.4437   -1.8312 C.ar    1  LIG1        0.0952
      8 C          -2.8682   -1.0758   -1.7314 C.ar    1  LIG1       -0.0109
      9 N           0.0984   -1.8819    0.0552 N.ar    1  LIG1       -0.2080
     10 C           0.5570   -0.7090    0.5279 C.ar    1  LIG1        0.1236
     11 C          -0.0588    0.5475    0.2887 C.ar    1  LIG1        0.0467
     12 C           0.4951    1.7328    0.8493 C.ar    1  LIG1       -0.0453
     13 C           1.6495    1.6993    1.6290 C.ar    1  LIG1       -0.0153
     14 C           2.2305    0.4729    1.8363 C.ar    1  LIG1        0.1684
     15 C           1.7017   -0.6844    1.3055 C.ar    1  LIG1        0.1922
     16 O           2.4527   -1.7766    1.6528 O.3     1  LIG1       -0.4504
     17 C           3.4869   -1.1745    2.4490 C.3     1  LIG1        0.2333
     18 O           3.3563    0.2552    2.5673 O.3     1  LIG1       -0.4525
     19 H          -2.0520    3.1829   -2.2201 H       1  LIG1        0.0660
     20 H          -1.7898    1.5490   -2.8495 H       1  LIG1        0.0660
     21 H          -0.4357    2.4664   -2.1038 H       1  LIG1        0.0660
     22 H          -3.3730   -3.2087   -2.2978 H       1  LIG1        0.1030
     23 H          -3.6539   -0.4591   -2.1437 H       1  LIG1        0.0657
     24 H           0.0110    2.6929    0.6758 H       1  LIG1        0.0626
     25 H           2.0711    2.6019    2.0566 H       1  LIG1        0.0655
     26 H           4.4580   -1.4013    1.9944 H       1  LIG1        0.1166
     27 H           3.4591   -1.6135    3.4530 H       1  LIG1        0.1166
@<TRIPOS>BOND
     1     1     2    1
     2     2     3    1
     3     3     4   ar
     4     4     5   ar
     5     5     6   ar
     6     6     7   ar
     7     7     8   ar
     8     4     8   ar
     9     5     9   ar
    10     9    10   ar
    11    10    11   ar
    12     3    11   ar
    13    11    12   ar
    14    12    13   ar
    15    13    14   ar
    16    14    15   ar
    17    10    15   ar
    18    15    16    1
    19    16    17    1
    20    17    18    1
    21    14    18    1
    22     1    19    1
    23     1    20    1
    24     1    21    1
    25     7    22    1
    26     8    23    1
    27    12    24    1
    28    13    25    1
    29    17    26    1
    30    17    27    1
