REMARK  Name = NuBBE_520
REMARK  12 active torsions:
REMARK  status: ('A' for Active; 'I' for Inactive)
REMARK    1  A    between atoms: C_4  and  C_6
REMARK    2  A    between atoms: C_8  and  C_9
REMARK    3  A    between atoms: C_9  and  C_10
REMARK    4  A    between atoms: C_10  and  C_12
REMARK    5  A    between atoms: C_10  and  C_13
REMARK    6  A    between atoms: C_13  and  O_15
REMARK    7  A    between atoms: C_13  and  C_16
REMARK    8  A    between atoms: C_25  and  C_26
REMARK    9  A    between atoms: C_27  and  C_28
REMARK   10  A    between atoms: C_28  and  C_30
REMARK   11  A    between atoms: C_28  and  C_31
REMARK   12  A    between atoms: C_31  and  C_32
REMARK                            x       y       z     vdW  Elec       q    Type
REMARK                         _______ _______ _______ _____ _____    ______ ____
ROOT
ATOM      1 CL   LIG A   1      -4.480   2.823  -1.150  0.00  0.00    -0.079 Cl
ATOM      2  C   LIG A   1      -2.812   2.667  -0.707  0.00  0.00    +0.096 C 
ATOM      3  C   LIG A   1      -1.994   3.932  -0.799  0.00  0.00    +0.222 C 
ATOM      4  C   LIG A   1      -0.577   3.915  -0.192  0.00  0.00    +0.200 C 
ATOM      5  O   LIG A   1       0.325   4.770  -0.877  0.00  0.00    -0.442 OA
ATOM      6  C   LIG A   1      -0.635   4.380   1.267  0.00  0.00    +0.070 C 
ATOM      7  C   LIG A   1       0.033   2.573  -0.352  0.00  0.00    +0.031 C 
ATOM      8  C   LIG A   1       1.208   2.625  -0.988  0.00  0.00    +0.110 C 
ATOM      9  C   LIG A   1       1.374   4.042  -1.347  0.00  0.00    +0.344 C 
ATOM     10  O   LIG A   1       2.281   4.519  -2.001  0.00  0.00    -0.245 OA
ATOM     11  O   LIG A   1      -2.464   4.955  -1.300  0.00  0.00    -0.286 OA
ATOM     12  C   LIG A   1      -2.256   1.509  -0.283  0.00  0.00    +0.011 C 
ATOM     13  C   LIG A   1      -0.812   1.470   0.033  0.00  0.00    +0.027 C 
ATOM     14  C   LIG A   1      -0.378   0.403   0.724  0.00  0.00    +0.204 C 
ATOM     15  O   LIG A   1      -1.166  -0.684   1.044  0.00  0.00    -0.463 OA
ATOM     16  C   LIG A   1      -2.432  -0.780   0.465  0.00  0.00    +0.128 C 
ATOM     17  C   LIG A   1      -3.002   0.257  -0.174  0.00  0.00    +0.056 C 
ENDROOT
BRANCH   8  18
ATOM     18  C   LIG A   1       2.128   1.511  -1.352  0.00  0.00    +0.176 C 
ATOM     19  O   LIG A   1       1.709   0.350  -1.356  0.00  0.00    -0.291 OA
BRANCH  18  20
ATOM     20  C   LIG A   1       3.622   1.813  -1.532  0.00  0.00    +0.085 C 
ATOM     21  C   LIG A   1       4.264   1.810  -0.144  0.00  0.00    +0.018 C 
BRANCH  20  22
ATOM     22  C   LIG A   1       4.284   0.806  -2.491  0.00  0.00    +0.122 C 
ATOM     23  C   LIG A   1       5.763   1.109  -2.728  0.00  0.00    +0.038 C 
BRANCH  22  24
ATOM     24  O   LIG A   1       3.636   0.895  -3.763  0.00  0.00    -0.391 OA
ATOM     25  H   LIG A   1       3.970   0.161  -4.308  0.00  0.00    +0.210 HD
ENDBRANCH  22  24
ENDBRANCH  20  22
ENDBRANCH  18  20
ENDBRANCH   8  18
BRANCH  16  26
ATOM     26  C   LIG A   1      -3.057  -2.084   0.567  0.00  0.00    +0.042 C 
ATOM     27  C   LIG A   1      -2.486  -3.143   1.171  0.00  0.00    -0.020 C 
BRANCH  27  28
ATOM     28  C   LIG A   1      -3.085  -4.524   1.221  0.00  0.00    +0.008 C 
ATOM     29  C   LIG A   1      -2.124  -5.522   0.569  0.00  0.00    +0.012 C 
BRANCH  28  30
ATOM     30  C   LIG A   1      -3.462  -4.940   2.656  0.00  0.00    +0.004 C 
ATOM     31  C   LIG A   1      -2.313  -4.950   3.659  0.00  0.00    +0.004 C 
ENDBRANCH  28  30
ENDBRANCH  27  28
ENDBRANCH  16  26
TORSDOF 7
