REMARK  Name = NuBBE_1564
REMARK  12 active torsions:
REMARK  status: ('A' for Active; 'I' for Inactive)
REMARK    1  A    between atoms: C_12  and  C_13
REMARK    2  A    between atoms: C_13  and  C_14
REMARK    3  A    between atoms: C_14  and  C_15
REMARK    4  A    between atoms: C_15  and  C_16
REMARK    5  A    between atoms: C_16  and  C_17
REMARK    6  A    between atoms: C_17  and  C_18
REMARK    7  A    between atoms: C_18  and  C_19
REMARK    8  A    between atoms: C_19  and  C_20
REMARK    9  A    between atoms: C_20  and  C_21
REMARK   10  A    between atoms: C_21  and  C_22
REMARK   11  A    between atoms: C_22  and  C_23
REMARK   12  A    between atoms: C_23  and  C_24
REMARK                            x       y       z     vdW  Elec       q    Type
REMARK                         _______ _______ _______ _____ _____    ______ ____
ROOT
ATOM      1  O   LIG A   1      -2.161   4.105   3.115  0.00  0.00    -0.287 OA
ATOM      2  C   LIG A   1      -1.352   3.417   3.759  0.00  0.00    +0.200 A 
ATOM      3  C   LIG A   1      -1.254   3.515   5.216  0.00  0.00    +0.064 A 
ATOM      4  C   LIG A   1      -2.202   4.222   5.960  0.00  0.00    +0.015 A 
ATOM      5  C   LIG A   1      -2.129   4.210   7.351  0.00  0.00    +0.001 A 
ATOM      6  C   LIG A   1      -1.102   3.516   7.997  0.00  0.00    +0.004 A 
ATOM      7  C   LIG A   1      -0.138   2.838   7.251  0.00  0.00    +0.047 A 
ATOM      8  C   LIG A   1      -0.222   2.830   5.861  0.00  0.00    +0.139 A 
ATOM      9  O   LIG A   1       0.716   2.105   5.179  0.00  0.00    -0.454 OA
ATOM     10  C   LIG A   1       0.486   1.869   3.845  0.00  0.00    +0.149 A 
ATOM     11  C   LIG A   1      -0.482   2.436   3.104  0.00  0.00    +0.083 A 
ATOM     12  C   LIG A   1      -0.685   2.117   1.649  0.00  0.00    +0.211 C 
ATOM     13  O   LIG A   1       0.521   1.623   1.028  0.00  0.00    -0.483 OA
ATOM     14  C   LIG A   1       1.367   0.869   1.796  0.00  0.00    +0.132 A 
ATOM     15  C   LIG A   1       1.379   0.920   3.186  0.00  0.00    +0.059 A 
ATOM     16  C   LIG A   1       2.263   0.084   3.885  0.00  0.00    +0.015 A 
ATOM     17  C   LIG A   1       3.086  -0.817   3.201  0.00  0.00    +0.001 A 
ATOM     18  C   LIG A   1       3.081  -0.841   1.811  0.00  0.00    +0.004 A 
ATOM     19  C   LIG A   1       2.259   0.043   1.116  0.00  0.00    +0.046 A 
ENDROOT
BRANCH  12  20
ATOM     20  C   LIG A   1      -1.884   1.153   1.430  0.00  0.00    +0.050 C 
BRANCH  20  21
ATOM     21  C   LIG A   1      -2.184   0.778  -0.033  0.00  0.00    +0.004 C 
BRANCH  21  22
ATOM     22  C   LIG A   1      -1.078   0.024  -0.780  0.00  0.00    +0.000 C 
BRANCH  22  23
ATOM     23  C   LIG A   1      -0.707  -1.308  -0.115  0.00  0.00    -0.000 C 
BRANCH  23  24
ATOM     24  C   LIG A   1       0.438  -2.058  -0.803  0.00  0.00    -0.000 C 
BRANCH  24  25
ATOM     25  C   LIG A   1       0.151  -2.414  -2.252  0.00  0.00    -0.000 C 
BRANCH  25  26
ATOM     26  C   LIG A   1       1.329  -3.153  -2.893  0.00  0.00    -0.000 C 
BRANCH  26  27
ATOM     27  C   LIG A   1       1.059  -3.521  -4.356  0.00  0.00    -0.000 C 
BRANCH  27  28
ATOM     28  C   LIG A   1       0.814  -2.300  -5.256  0.00  0.00    -0.000 C 
BRANCH  28  29
ATOM     29  C   LIG A   1       0.544  -2.708  -6.704  0.00  0.00    -0.000 C 
BRANCH  29  30
ATOM     30  C   LIG A   1       0.296  -1.528  -7.652  0.00  0.00    -0.003 C 
ATOM     31  C   LIG A   1      -0.901  -0.660  -7.285  0.00  0.00    +0.004 C 
ENDBRANCH  29  30
ENDBRANCH  28  29
ENDBRANCH  27  28
ENDBRANCH  26  27
ENDBRANCH  25  26
ENDBRANCH  24  25
ENDBRANCH  23  24
ENDBRANCH  22  23
ENDBRANCH  21  22
ENDBRANCH  20  21
ENDBRANCH  12  20
TORSDOF 11
