@<TRIPOS>MOLECULE
NuBBE_1130
 79 82 0 0 0
SMALL
GASTEIGER

@<TRIPOS>ATOM
      1 C          -2.2662   -0.1053   -1.5092 C.3     1  LIG1       -0.0553
      2 C          -0.9430    0.6217   -1.1440 C.3     1  LIG1       -0.0051
      3 C           0.1515   -0.2386   -1.8108 C.2     1  LIG1       -0.0634
      4 C           0.5394   -0.1018   -3.0958 C.2     1  LIG1       -0.0836
      5 C           1.2256   -1.1928   -3.8698 C.3     1  LIG1       -0.0302
      6 C           0.9411   -2.5621   -3.2134 C.3     1  LIG1       -0.0198
      7 H          -0.1575   -2.6318   -3.1191 H       1  LIG1        0.0318
      8 C           1.4515   -2.5308   -1.7320 C.3     1  LIG1       -0.0212
      9 C           2.9655   -2.2389   -1.6179 C.3     1  LIG1       -0.0587
     10 C           1.1432   -3.9002   -1.0708 C.3     1  LIG1       -0.0401
     11 C           1.6533   -5.0922   -1.8651 C.3     1  LIG1        0.0069
     12 C           1.1080   -5.0842   -3.2662 C.2     1  LIG1        0.1392
     13 C           1.3012   -3.8054   -4.0938 C.3     1  LIG1        0.0270
     14 C           2.7276   -3.8286   -4.6600 C.3     1  LIG1       -0.0528
     15 C           0.3274   -3.8485   -5.3034 C.3     1  LIG1       -0.0528
     16 O           0.5877   -6.1128   -3.7375 O.2     1  LIG1       -0.2968
     17 C           0.6006   -1.4291   -0.9743 C.3     1  LIG1       -0.0136
     18 H          -0.3213   -1.9368   -0.6606 H       1  LIG1        0.0351
     19 C           1.2472   -0.8434    0.2842 C.3     1  LIG1       -0.0455
     20 C           0.1782   -0.1748    1.1451 C.3     1  LIG1       -0.0460
     21 C          -0.7256    0.8780    0.4242 C.3     1  LIG1       -0.0199
     22 C          -0.0119    2.2999    0.4991 C.3     1  LIG1       -0.0322
     23 C          -0.4992    3.4117    1.4944 C.3     1  LIG1       -0.0402
     24 H           0.1422    4.2821    1.2864 H       1  LIG1        0.0301
     25 C          -1.9310    3.9198    1.2745 C.3     1  LIG1       -0.0621
     26 C          -0.2134    3.0476    2.9703 C.3     1  LIG1       -0.0467
     27 C          -0.6739    4.1057    3.9818 C.3     1  LIG1       -0.0343
     28 C          -0.3796    3.6607    5.3883 C.2     1  LIG1       -0.0853
     29 C          -1.2094    3.0106    6.2287 C.2     1  LIG1       -0.0796
     30 C          -2.6201    2.5957    5.9077 C.3     1  LIG1       -0.0440
     31 C          -0.7459    2.6071    7.6036 C.3     1  LIG1       -0.0440
     32 H           1.0437    2.1362    0.7630 H       1  LIG1        0.0309
     33 C           0.0253    2.8282   -0.9481 C.3     1  LIG1       -0.0486
     34 C          -1.0534    2.0644   -1.6831 C.3     1  LIG1       -0.0431
     35 C          -2.0849    0.8100    1.1599 C.3     1  LIG1       -0.0585
     36 H          -2.3433   -0.2685   -2.5917 H       1  LIG1        0.0238
     37 H          -3.1526    0.4731   -1.2297 H       1  LIG1        0.0238
     38 H          -2.3433   -1.0854   -1.0266 H       1  LIG1        0.0238
     39 H           0.2058    0.7329   -3.7036 H       1  LIG1        0.0572
     40 H           2.2943   -0.9766   -3.9588 H       1  LIG1        0.0311
     41 H           0.8164   -1.1736   -4.8849 H       1  LIG1        0.0311
     42 H           3.5703   -2.9195   -2.2153 H       1  LIG1        0.0235
     43 H           3.3178   -2.3590   -0.5874 H       1  LIG1        0.0235
     44 H           3.2162   -1.2198   -1.9263 H       1  LIG1        0.0235
     45 H           0.0566   -4.0200   -0.9676 H       1  LIG1        0.0275
     46 H           1.5522   -3.9349   -0.0531 H       1  LIG1        0.0275
     47 H           1.3309   -6.0139   -1.3663 H       1  LIG1        0.0342
     48 H           2.7513   -5.1163   -1.9079 H       1  LIG1        0.0342
     49 H           3.4799   -4.0563   -3.9039 H       1  LIG1        0.0239
     50 H           2.9938   -2.8876   -5.1474 H       1  LIG1        0.0239
     51 H           2.8243   -4.6218   -5.4127 H       1  LIG1        0.0239
     52 H          -0.7179   -3.8284   -4.9734 H       1  LIG1        0.0239
     53 H           0.4568   -4.7685   -5.8889 H       1  LIG1        0.0239
     54 H           0.4854   -3.0131   -5.9882 H       1  LIG1        0.0239
     55 H           2.0310   -0.1177    0.0299 H       1  LIG1        0.0271
     56 H           1.7199   -1.6306    0.8824 H       1  LIG1        0.0271
     57 H           0.6621    0.2785    2.0203 H       1  LIG1        0.0271
     58 H          -0.4436   -0.9831    1.5526 H       1  LIG1        0.0271
     59 H          -2.0308    4.9447    1.6501 H       1  LIG1        0.0233
     60 H          -2.6727    3.3214    1.8096 H       1  LIG1        0.0233
     61 H          -2.2063    3.9558    0.2188 H       1  LIG1        0.0233
     62 H           0.8674    2.8913    3.0855 H       1  LIG1        0.0271
     63 H          -0.6769    2.0950    3.2337 H       1  LIG1        0.0271
     64 H          -1.7397    4.3254    3.8723 H       1  LIG1        0.0307
     65 H          -0.1519    5.0519    3.7949 H       1  LIG1        0.0307
     66 H           0.6303    3.8910    5.7259 H       1  LIG1        0.0571
     67 H          -2.9766    2.9655    4.9438 H       1  LIG1        0.0274
     68 H          -3.3077    2.9714    6.6733 H       1  LIG1        0.0274
     69 H          -2.6929    1.5031    5.8875 H       1  LIG1        0.0274
     70 H           0.2711    2.9522    7.8170 H       1  LIG1        0.0274
     71 H          -0.7553    1.5162    7.6986 H       1  LIG1        0.0274
     72 H          -1.4067    3.0293    8.3678 H       1  LIG1        0.0274
     73 H           1.0046    2.6103   -1.3926 H       1  LIG1        0.0268
     74 H          -0.1220    3.9101   -1.0252 H       1  LIG1        0.0268
     75 H          -0.9491    2.1647   -2.7657 H       1  LIG1        0.0274
     76 H          -2.0341    2.4897   -1.4394 H       1  LIG1        0.0274
     77 H          -2.0058    1.0212    2.2258 H       1  LIG1        0.0235
     78 H          -2.5061   -0.2019    1.1062 H       1  LIG1        0.0235
     79 H          -2.8270    1.4813    0.7244 H       1  LIG1        0.0235
@<TRIPOS>BOND
     1     2     3    1
     2     3     4    2
     3     4     5    1
     4     5     6    1
     5     6     8    1
     6     8    10    1
     7    10    11    1
     8    11    12    1
     9    12    13    1
    10     6    13    1
    11     8    17    1
    12     3    17    1
    13    17    19    1
    14    19    20    1
    15    20    21    1
    16    21    22    1
    17    23    24    1
    18    23    25    1
    19    23    26    1
    20    26    27    1
    21    27    28    1
    22    28    29    2
    23    29    30    1
    24    29    31    1
    25    22    33    1
    26    33    34    1
    27     2    34    1
    28     2    21    1
    29     1     2    1
    30     6     7    1
    31     8     9    1
    32    12    16    2
    33    13    14    1
    34    13    15    1
    35    17    18    1
    36    21    35    1
    37    22    32    1
    38    22    23    1
    39     1    36    1
    40     1    37    1
    41     1    38    1
    42     4    39    1
    43     5    40    1
    44     5    41    1
    45     9    42    1
    46     9    43    1
    47     9    44    1
    48    10    45    1
    49    10    46    1
    50    11    47    1
    51    11    48    1
    52    14    49    1
    53    14    50    1
    54    14    51    1
    55    15    52    1
    56    15    53    1
    57    15    54    1
    58    19    55    1
    59    19    56    1
    60    20    57    1
    61    20    58    1
    62    25    59    1
    63    25    60    1
    64    25    61    1
    65    26    62    1
    66    26    63    1
    67    27    64    1
    68    27    65    1
    69    28    66    1
    70    30    67    1
    71    30    68    1
    72    30    69    1
    73    31    70    1
    74    31    71    1
    75    31    72    1
    76    33    73    1
    77    33    74    1
    78    34    75    1
    79    34    76    1
    80    35    77    1
    81    35    78    1
    82    35    79    1
