REMARK  Name = NuBBE_163
REMARK  6 active torsions:
REMARK  status: ('A' for Active; 'I' for Inactive)
REMARK    1  A    between atoms: C_1  and  O_2
REMARK    2  A    between atoms: O_2  and  C_3
REMARK    3  A    between atoms: C_9  and  O_11
REMARK    4  A    between atoms: C_19  and  O_21
REMARK    5  A    between atoms: C_23  and  O_24
REMARK    6  A    between atoms: O_24  and  C_25
REMARK                            x       y       z     vdW  Elec       q    Type
REMARK                         _______ _______ _______ _____ _____    ______ ____
ROOT
ATOM      1  C   LIG A   1      -1.167  -2.714  -0.297  0.00  0.00    +0.162 A 
ATOM      2  C   LIG A   1      -1.667  -1.482   0.163  0.00  0.00    +0.056 A 
ATOM      3  C   LIG A   1      -0.807  -0.401   0.184  0.00  0.00    -0.009 A 
ATOM      4  C   LIG A   1       0.491  -0.536  -0.243  0.00  0.00    -0.013 A 
ATOM      5  C   LIG A   1       0.864   0.830   0.010  0.00  0.00    +0.076 C 
ATOM      6  C   LIG A   1       0.666   1.029   1.992  0.00  0.00    +0.067 C 
ATOM      7  C   LIG A   1      -0.405   2.595   2.358  0.00  0.00    +0.140 C 
ATOM      8  C   LIG A   1      -1.160   3.505   0.955  0.00  0.00    +0.004 C 
ATOM      9  C   LIG A   1      -1.107   3.253  -0.479  0.00  0.00    +0.004 C 
ATOM     10  C   LIG A   1      -0.206   1.910  -1.240  0.00  0.00    -0.026 C 
ATOM     11  C   LIG A   1       0.642   2.244  -2.224  0.00  0.00    -0.006 C 
ATOM     12  C   LIG A   1       2.011   1.920  -1.693  0.00  0.00    +0.113 C 
ATOM     13  N   LIG A   1       1.965   1.615  -0.228  0.00  0.00    -0.282 NA
ATOM     14  C   LIG A   1       0.778   2.334   0.470  0.00  0.00    +0.122 C 
ATOM     15  C   LIG A   1      -1.007   1.152   0.647  0.00  0.00    +0.159 C 
ATOM     16  C   LIG A   1       1.037  -1.717  -0.665  0.00  0.00    +0.055 A 
ATOM     17  C   LIG A   1       0.200  -2.843  -0.674  0.00  0.00    +0.162 A 
ENDROOT
BRANCH   1  19
ATOM     18  C   LIG A   1      -2.010  -4.711  -1.269  0.00  0.00    +0.277 C 
ATOM     19  O   LIG A   1      -2.098  -3.723  -0.249  0.00  0.00    -0.491 OA
ENDBRANCH   1  19
BRANCH   7  20
ATOM     20  O   LIG A   1       0.348   3.543   3.113  0.00  0.00    -0.388 OA
ATOM     21  H   LIG A   1       0.867   3.049   3.770  0.00  0.00    +0.210 HD
ENDBRANCH   7  20
BRANCH  15  22
ATOM     22  O   LIG A   1      -2.310   1.309  -0.016  0.00  0.00    -0.386 OA
ATOM     23  H   LIG A   1      -2.873   1.861   0.550  0.00  0.00    +0.210 HD
ENDBRANCH  15  22
BRANCH  17  24
ATOM     24  O   LIG A   1       0.661  -4.081  -1.045  0.00  0.00    -0.491 OA
ATOM     25  C   LIG A   1       2.035  -4.338  -0.770  0.00  0.00    +0.277 C 
ENDBRANCH  17  24
TORSDOF 4
