@<TRIPOS>MOLECULE
NuBBE_1026
 79 83 0 0 0
SMALL
GASTEIGER

@<TRIPOS>ATOM
      1 O          -6.5433    0.6936    1.4063 O.3     1  LIG1       -0.3912
      2 C          -5.3166    0.1267    0.9477 C.3     1  LIG1        0.0606
      3 H          -5.5487   -0.4048    0.0147 H       1  LIG1        0.0599
      4 C          -4.8396   -0.9227    1.9600 C.3     1  LIG1       -0.0258
      5 C          -3.4515   -1.4975    1.6453 C.3     1  LIG1       -0.0444
      6 C          -2.3612   -0.4016    1.4582 C.3     1  LIG1       -0.0218
      7 C          -2.1935    0.2905    2.8399 C.3     1  LIG1       -0.0587
      8 C          -2.9068    0.5575    0.3517 C.3     1  LIG1       -0.0276
      9 C          -1.7603    1.4149   -0.1663 C.3     1  LIG1       -0.0486
     10 C          -0.8608    0.5502   -1.0599 C.3     1  LIG1       -0.0463
     11 C          -0.5521   -0.9061   -0.5388 C.3     1  LIG1       -0.0194
     12 C          -1.4030   -1.9070   -1.3838 C.3     1  LIG1       -0.0585
     13 C          -0.9535   -1.0760    1.0060 C.3     1  LIG1       -0.0113
     14 H          -1.1020   -2.1518    1.1747 H       1  LIG1        0.0354
     15 C           0.2268   -0.7470    1.9273 C.2     1  LIG1       -0.0835
     16 C           1.4565   -0.3813    1.5468 C.2     1  LIG1       -0.0837
     17 C           1.8748   -0.3053    0.1040 C.3     1  LIG1       -0.0131
     18 H           1.6025    0.7076   -0.1825 H       1  LIG1        0.0351
     19 C           1.0198   -1.2787   -0.7564 C.3     1  LIG1       -0.0196
     20 C           1.2698   -2.7641   -0.3499 C.3     1  LIG1       -0.0585
     21 C           1.5073   -1.0682   -2.2151 C.3     1  LIG1       -0.0461
     22 C           2.9621   -1.4851   -2.4614 C.3     1  LIG1       -0.0468
     23 C           3.9893   -1.1164   -1.3667 C.3     1  LIG1       -0.0281
     24 C           4.7542   -2.4108   -0.9601 C.3     1  LIG1       -0.0593
     25 C           3.4162   -0.4081   -0.0891 C.3     1  LIG1       -0.0224
     26 H           3.7942   -0.9865    0.7687 H       1  LIG1        0.0318
     27 C           4.1551    0.9765    0.0052 C.3     1  LIG1       -0.0165
     28 H           4.4057    1.1442    1.0622 H       1  LIG1        0.0348
     29 C           3.4359    2.2407   -0.4801 C.2     1  LIG1       -0.0763
     30 C           3.1299    3.2519    0.5964 C.3     1  LIG1       -0.0438
     31 C           3.0573    2.4974   -1.7448 C.2     1  LIG1       -0.0994
     32 C           5.4684    0.7298   -0.7420 C.3     1  LIG1       -0.0457
     33 C           5.0849   -0.1614   -1.9130 C.3     1  LIG1       -0.0468
     34 H          -3.1722   -0.0818   -0.4979 H       1  LIG1        0.0312
     35 C          -4.2835    1.2548    0.6264 C.3     1  LIG1       -0.0056
     36 C          -4.7718    1.9598   -0.6733 C.3     1  LIG1       -0.0572
     37 C          -4.2583    2.3563    1.7047 C.3     1  LIG1       -0.0572
     38 H          -7.1709   -0.0360    1.5455 H       1  LIG1        0.2098
     39 H          -5.5650   -1.7471    1.9801 H       1  LIG1        0.0290
     40 H          -4.8735   -0.5104    2.9745 H       1  LIG1        0.0290
     41 H          -3.5289   -2.1070    0.7369 H       1  LIG1        0.0272
     42 H          -3.1617   -2.1866    2.4486 H       1  LIG1        0.0272
     43 H          -3.1198    0.6675    3.2613 H       1  LIG1        0.0235
     44 H          -1.4939    1.1307    2.8004 H       1  LIG1        0.0235
     45 H          -1.8478   -0.4232    3.5968 H       1  LIG1        0.0235
     46 H          -1.1753    1.8417    0.6555 H       1  LIG1        0.0268
     47 H          -2.1085    2.2636   -0.7609 H       1  LIG1        0.0268
     48 H           0.0365    1.1381   -1.2583 H       1  LIG1        0.0271
     49 H          -1.3428    0.4764   -2.0450 H       1  LIG1        0.0271
     50 H          -2.4771   -1.7550   -1.2780 H       1  LIG1        0.0235
     51 H          -1.2185   -2.9469   -1.0983 H       1  LIG1        0.0235
     52 H          -1.1898   -1.8161   -2.4530 H       1  LIG1        0.0235
     53 H           0.0775   -0.8712    2.9976 H       1  LIG1        0.0572
     54 H           2.1982   -0.1494    2.3088 H       1  LIG1        0.0572
     55 H           2.2288   -2.8981    0.1484 H       1  LIG1        0.0235
     56 H           1.2362   -3.4302   -1.2188 H       1  LIG1        0.0235
     57 H           0.5370   -3.1547    0.3588 H       1  LIG1        0.0235
     58 H           1.4042   -0.0173   -2.5062 H       1  LIG1        0.0271
     59 H           0.8843   -1.6318   -2.9175 H       1  LIG1        0.0271
     60 H           3.2687   -1.0736   -3.4317 H       1  LIG1        0.0271
     61 H           2.9682   -2.5716   -2.6214 H       1  LIG1        0.0271
     62 H           4.0966   -3.1792   -0.5514 H       1  LIG1        0.0235
     63 H           5.5219   -2.2056   -0.2053 H       1  LIG1        0.0235
     64 H           5.2579   -2.8557   -1.8268 H       1  LIG1        0.0235
     65 H           2.6032    4.1287    0.2035 H       1  LIG1        0.0274
     66 H           4.0558    3.6026    1.0625 H       1  LIG1        0.0274
     67 H           2.4936    2.8038    1.3662 H       1  LIG1        0.0274
     68 H           2.5466    3.4203   -2.0063 H       1  LIG1        0.0534
     69 H           3.2124    1.8075   -2.5624 H       1  LIG1        0.0534
     70 H           6.1701    0.1980   -0.0870 H       1  LIG1        0.0271
     71 H           5.9644    1.6486   -1.0718 H       1  LIG1        0.0271
     72 H           5.9656   -0.6929   -2.2930 H       1  LIG1        0.0271
     73 H           4.7244    0.4405   -2.7496 H       1  LIG1        0.0271
     74 H          -4.7243    1.2874   -1.5369 H       1  LIG1        0.0236
     75 H          -4.1735    2.8474   -0.9040 H       1  LIG1        0.0236
     76 H          -5.8111    2.2954   -0.5776 H       1  LIG1        0.0236
     77 H          -3.3010    2.8866    1.7179 H       1  LIG1        0.0236
     78 H          -4.4642    1.9761    2.7069 H       1  LIG1        0.0236
     79 H          -5.0369    3.1083    1.5257 H       1  LIG1        0.0236
@<TRIPOS>BOND
     1     2     4    1
     2     4     5    1
     3     5     6    1
     4     6     8    1
     5     8     9    1
     6     9    10    1
     7    10    11    1
     8    11    13    1
     9     6    13    1
    10    13    15    1
    11    15    16    2
    12    16    17    1
    13    17    19    1
    14    11    19    1
    15    19    21    1
    16    21    22    1
    17    22    23    1
    18    23    25    1
    19    17    25    1
    20    25    27    1
    21    29    30    1
    22    29    31    2
    23    27    32    1
    24    32    33    1
    25    23    33    1
    26     8    35    1
    27     2    35    1
    28     1     2    1
    29     2     3    1
    30     6     7    1
    31     8    34    1
    32    11    12    1
    33    13    14    1
    34    17    18    1
    35    19    20    1
    36    23    24    1
    37    25    26    1
    38    35    36    1
    39    35    37    1
    40    27    29    1
    41    27    28    1
    42     1    38    1
    43     4    39    1
    44     4    40    1
    45     5    41    1
    46     5    42    1
    47     7    43    1
    48     7    44    1
    49     7    45    1
    50     9    46    1
    51     9    47    1
    52    10    48    1
    53    10    49    1
    54    12    50    1
    55    12    51    1
    56    12    52    1
    57    15    53    1
    58    16    54    1
    59    20    55    1
    60    20    56    1
    61    20    57    1
    62    21    58    1
    63    21    59    1
    64    22    60    1
    65    22    61    1
    66    24    62    1
    67    24    63    1
    68    24    64    1
    69    30    65    1
    70    30    66    1
    71    30    67    1
    72    31    68    1
    73    31    69    1
    74    32    70    1
    75    32    71    1
    76    33    72    1
    77    33    73    1
    78    36    74    1
    79    36    75    1
    80    36    76    1
    81    37    77    1
    82    37    78    1
    83    37    79    1
