@<TRIPOS>MOLECULE
NuBBE_880
 62 63 0 0 0
SMALL
GASTEIGER

@<TRIPOS>ATOM
      1 O          -1.6242    6.9068    3.5983 O.2     1  LIG1       -0.2833
      2 C          -1.4326    6.2241    2.6067 C.ar    1  LIG1        0.2310
      3 C          -0.9266    4.7960    2.6566 C.ar    1  LIG1        0.1864
      4 O          -0.6955    4.1189    3.8501 O.3     1  LIG1       -0.4897
      5 C          -1.0032    4.7948    5.0630 C.3     1  LIG1        0.0790
      6 C          -0.7293    4.1770    1.4729 C.ar    1  LIG1        0.0624
      7 C          -0.1810    2.7565    1.4072 C.3     1  LIG1       -0.0088
      8 C          -1.2982    1.7083    1.4419 C.3     1  LIG1       -0.0476
      9 C          -0.7204    0.2960    1.3689 C.3     1  LIG1       -0.0527
     10 C          -1.8147   -0.7753    1.3824 C.3     1  LIG1       -0.0530
     11 C          -1.2450   -2.1972    1.3140 C.3     1  LIG1       -0.0531
     12 C          -0.4546   -2.4474    0.0265 C.3     1  LIG1       -0.0531
     13 C           0.0918   -3.8738   -0.0466 C.3     1  LIG1       -0.0530
     14 C           0.8952   -4.0836   -1.3343 C.3     1  LIG1       -0.0505
     15 C           1.4957   -5.4974   -1.4276 C.3     1  LIG1       -0.0243
     16 C           2.2888   -5.7587   -2.7371 C.3     1  LIG1        0.0631
     17 C           2.8355   -7.2080   -2.7600 C.3     1  LIG1       -0.0271
     18 C           3.6161   -7.5639   -4.0261 C.3     1  LIG1       -0.0627
     19 O           1.4033   -5.5913   -3.8492 O.3     1  LIG1       -0.3889
     20 C           3.4182   -4.7365   -2.9021 C.3     1  LIG1       -0.0361
     21 N          -0.9672    4.7694    0.2467 N.ar    1  LIG1       -0.3549
     22 H          -0.8893    4.2034   -0.5854 H       1  LIG1        0.1657
     23 C          -1.4878    6.0664    0.1358 C.ar    1  LIG1        0.0505
     24 C          -1.7426    6.6419   -1.1071 C.ar    1  LIG1       -0.0377
     25 C          -2.2257    7.9532   -1.1907 C.ar    1  LIG1       -0.0598
     26 C          -2.4493    8.7002   -0.0368 C.ar    1  LIG1       -0.0610
     27 C          -2.1916    8.1333    1.2114 C.ar    1  LIG1       -0.0488
     28 C          -1.7117    6.8237    1.2867 C.ar    1  LIG1        0.0487
     29 H          -0.2649    5.5798    5.2603 H       1  LIG1        0.0660
     30 H          -0.9480    4.0708    5.8805 H       1  LIG1        0.0660
     31 H          -2.0263    5.1849    5.0676 H       1  LIG1        0.0660
     32 H           0.5309    2.5758    2.2227 H       1  LIG1        0.0329
     33 H           0.4050    2.6367    0.4854 H       1  LIG1        0.0329
     34 H          -1.9807    1.8646    0.5971 H       1  LIG1        0.0269
     35 H          -1.8854    1.8149    2.3609 H       1  LIG1        0.0269
     36 H          -0.0376    0.1270    2.2105 H       1  LIG1        0.0265
     37 H          -0.1284    0.2205    0.4511 H       1  LIG1        0.0265
     38 H          -2.5020   -0.6185    0.5421 H       1  LIG1        0.0265
     39 H          -2.4096   -0.6775    2.2994 H       1  LIG1        0.0265
     40 H          -2.0747   -2.9124    1.3777 H       1  LIG1        0.0265
     41 H          -0.6052   -2.3770    2.1866 H       1  LIG1        0.0265
     42 H           0.3925   -1.7559   -0.0331 H       1  LIG1        0.0265
     43 H          -1.0975   -2.2458   -0.8390 H       1  LIG1        0.0265
     44 H          -0.7372   -4.5879   -0.0036 H       1  LIG1        0.0265
     45 H           0.7352   -4.0575    0.8223 H       1  LIG1        0.0265
     46 H           1.6965   -3.3366   -1.3645 H       1  LIG1        0.0266
     47 H           0.2468   -3.8981   -2.1983 H       1  LIG1        0.0266
     48 H           0.6723   -6.2198   -1.3526 H       1  LIG1        0.0293
     49 H           2.1502   -5.6661   -0.5625 H       1  LIG1        0.0293
     50 H           1.9968   -7.9131   -2.6887 H       1  LIG1        0.0290
     51 H           3.4781   -7.3835   -1.8890 H       1  LIG1        0.0290
     52 H           3.0252   -7.3754   -4.9278 H       1  LIG1        0.0231
     53 H           3.8928   -8.6228   -4.0190 H       1  LIG1        0.0231
     54 H           4.5471   -6.9938   -4.0982 H       1  LIG1        0.0231
     55 H           0.7261   -6.2878   -3.8029 H       1  LIG1        0.2101
     56 H           4.0720   -4.7199   -2.0244 H       1  LIG1        0.0257
     57 H           3.0215   -3.7307   -3.0729 H       1  LIG1        0.0257
     58 H           4.0289   -4.9422   -3.7854 H       1  LIG1        0.0257
     59 H          -1.5691    6.0830   -2.0222 H       1  LIG1        0.0638
     60 H          -2.4250    8.3966   -2.1638 H       1  LIG1        0.0618
     61 H          -2.8187    9.7197   -0.0980 H       1  LIG1        0.0618
     62 H          -2.3619    8.7110    2.1156 H       1  LIG1        0.0625
@<TRIPOS>BOND
     1     1     2    2
     2     2     3   ar
     3     3     4    1
     4     4     5    1
     5     3     6   ar
     6     6     7    1
     7     7     8    1
     8     8     9    1
     9     9    10    1
    10    10    11    1
    11    11    12    1
    12    12    13    1
    13    13    14    1
    14    14    15    1
    15    15    16    1
    16    16    17    1
    17    17    18    1
    18    16    19    1
    19    16    20    1
    20     6    21   ar
    21    21    22    1
    22    21    23   ar
    23    23    24   ar
    24    24    25   ar
    25    25    26   ar
    26    26    27   ar
    27    27    28   ar
    28    23    28   ar
    29     2    28   ar
    30     5    29    1
    31     5    30    1
    32     5    31    1
    33     7    32    1
    34     7    33    1
    35     8    34    1
    36     8    35    1
    37     9    36    1
    38     9    37    1
    39    10    38    1
    40    10    39    1
    41    11    40    1
    42    11    41    1
    43    12    42    1
    44    12    43    1
    45    13    44    1
    46    13    45    1
    47    14    46    1
    48    14    47    1
    49    15    48    1
    50    15    49    1
    51    17    50    1
    52    17    51    1
    53    18    52    1
    54    18    53    1
    55    18    54    1
    56    19    55    1
    57    20    56    1
    58    20    57    1
    59    20    58    1
    60    24    59    1
    61    25    60    1
    62    26    61    1
    63    27    62    1
