@<TRIPOS>MOLECULE
NuBBE_2269
 44 47 0 0 0
SMALL
GASTEIGER

@<TRIPOS>ATOM
      1 C           3.4688    0.4881    0.1490 C.ar    1  LIG1       -0.0427
      2 C           2.0736    0.2052    0.1212 C.ar    1  LIG1       -0.0122
      3 C           1.1168    1.2581    0.1146 C.ar    1  LIG1        0.0128
      4 C           1.6240    2.6034    0.1420 C.ar    1  LIG1       -0.0406
      5 C           3.0055    2.8537    0.1694 C.ar    1  LIG1       -0.0579
      6 C           3.9150    1.8109    0.1722 C.ar    1  LIG1       -0.0580
      7 C           0.7283    3.8212    0.1436 C.3     1  LIG1       -0.0391
      8 C          -0.2732    0.9230    0.0774 C.ar    1  LIG1        0.0982
      9 C          -0.6895   -0.4346    0.0578 C.ar    1  LIG1        0.0964
     10 C           0.2522   -1.4647    0.0799 C.ar    1  LIG1        0.0114
     11 C           1.6126   -1.1224    0.0981 C.ar    1  LIG1       -0.0457
     12 C          -0.1808   -2.9417    0.0279 C.3     1  LIG1        0.0874
     13 C          -0.5461   -3.3253   -1.4139 C.3     1  LIG1       -0.0321
     14 C           0.8599   -3.9421    0.5570 C.3     1  LIG1       -0.0321
     15 O          -1.3361   -3.1728    0.8462 O.3     1  LIG1       -0.3844
     16 N          -2.0017   -0.7668    0.0190 N.ar    1  LIG1       -0.2432
     17 C          -2.9188    0.2125   -0.0045 C.ar    1  LIG1        0.0899
     18 C          -2.5260    1.5554    0.0147 C.ar    1  LIG1        0.0899
     19 N          -1.2263    1.8875    0.0548 N.ar    1  LIG1       -0.2430
     20 C          -3.4992    2.5484   -0.0087 C.ar    1  LIG1       -0.0342
     21 C          -4.8576    2.2322   -0.0511 C.ar    1  LIG1       -0.0596
     22 C          -5.2472    0.8998   -0.0704 C.ar    1  LIG1       -0.0596
     23 C          -4.2736   -0.0996   -0.0470 C.ar    1  LIG1       -0.0342
     24 C           4.5168   -0.5990    0.1564 C.3     1  LIG1       -0.0391
     25 H           3.3818    3.8747    0.1895 H       1  LIG1        0.0620
     26 H           4.9782    2.0401    0.1942 H       1  LIG1        0.0620
     27 H           0.0850    3.8257    1.0289 H       1  LIG1        0.0278
     28 H           0.1320    3.8623   -0.7731 H       1  LIG1        0.0278
     29 H           1.3102    4.7494    0.1784 H       1  LIG1        0.0278
     30 H           2.3459   -1.9239    0.0901 H       1  LIG1        0.0628
     31 H           0.3056   -3.2032   -2.0922 H       1  LIG1        0.0260
     32 H          -1.3739   -2.7183   -1.7975 H       1  LIG1        0.0260
     33 H          -0.8844   -4.3668   -1.4663 H       1  LIG1        0.0260
     34 H           1.7472   -4.0035   -0.0815 H       1  LIG1        0.0260
     35 H           0.4315   -4.9499    0.6224 H       1  LIG1        0.0260
     36 H           1.1771   -3.6777    1.5729 H       1  LIG1        0.0260
     37 H          -1.9405   -2.4196    0.6798 H       1  LIG1        0.2106
     38 H          -3.1883    3.5902    0.0068 H       1  LIG1        0.0639
     39 H          -5.6021    3.0241   -0.0683 H       1  LIG1        0.0618
     40 H          -6.3010    0.6349   -0.1030 H       1  LIG1        0.0618
     41 H          -4.5760   -1.1440   -0.0618 H       1  LIG1        0.0639
     42 H           4.4036   -1.2319    1.0426 H       1  LIG1        0.0278
     43 H           5.5305   -0.1844    0.1826 H       1  LIG1        0.0278
     44 H           4.4401   -1.2085   -0.7498 H       1  LIG1        0.0278
@<TRIPOS>BOND
     1     1     2   ar
     2     2     3   ar
     3     3     4   ar
     4     4     5   ar
     5     5     6   ar
     6     1     6   ar
     7     4     7    1
     8     3     8   ar
     9     8     9   ar
    10     9    10   ar
    11    10    11   ar
    12     2    11   ar
    13    10    12    1
    14    12    13    1
    15    12    14    1
    16    12    15    1
    17     9    16   ar
    18    16    17   ar
    19    17    18   ar
    20    18    19   ar
    21     8    19   ar
    22    18    20   ar
    23    20    21   ar
    24    21    22   ar
    25    22    23   ar
    26    17    23   ar
    27     1    24    1
    28     5    25    1
    29     6    26    1
    30     7    27    1
    31     7    28    1
    32     7    29    1
    33    11    30    1
    34    13    31    1
    35    13    32    1
    36    13    33    1
    37    14    34    1
    38    14    35    1
    39    14    36    1
    40    15    37    1
    41    20    38    1
    42    21    39    1
    43    22    40    1
    44    23    41    1
    45    24    42    1
    46    24    43    1
    47    24    44    1
