@<TRIPOS>MOLECULE
NuBBE_2060
 40 42 0 0 0
SMALL
GASTEIGER

@<TRIPOS>ATOM
      1 O          -5.0570    3.1724    1.9895 O.2     1  LIG1       -0.2452
      2 C          -3.8793    3.1974    1.6375 C.ar    1  LIG1        0.3373
      3 O          -3.0717    2.0582    1.6858 O.2     1  LIG1       -0.4183
      4 C          -1.7792    2.0409    1.1436 C.ar    1  LIG1        0.1843
      5 C          -1.0681    0.8279    1.0399 C.ar    1  LIG1        0.2086
      6 O          -1.5353   -0.3983    1.4297 O.3     1  LIG1       -0.4884
      7 C          -2.9321   -0.6295    1.5318 C.3     1  LIG1        0.0791
      8 C           0.2526    0.8561    0.5227 C.ar    1  LIG1        0.2076
      9 O           1.0730   -0.2534    0.4010 O.3     1  LIG1       -0.4824
     10 C           0.4754   -1.5194    0.0664 C.3     1  LIG1        0.1187
     11 C           1.1233   -2.1321   -1.1487 C.3     1  LIG1        0.1216
     12 O           0.4800   -3.3826   -1.4944 O.3     1  LIG1       -0.3618
     13 C           1.8818   -3.4566   -1.2305 C.3     1  LIG1        0.0938
     14 C           2.6754   -3.7549   -2.4779 C.3     1  LIG1       -0.0335
     15 C           2.2252   -4.1782    0.0381 C.3     1  LIG1       -0.0335
     16 C           0.7970    2.1037    0.1280 C.ar    1  LIG1        0.1660
     17 C           0.0498    3.2780    0.2118 C.ar    1  LIG1       -0.0054
     18 C          -1.2400    3.2522    0.7152 C.ar    1  LIG1        0.0250
     19 C          -2.0091    4.4766    0.7414 C.ar    1  LIG1       -0.0441
     20 C          -3.2739    4.4706    1.1697 C.ar    1  LIG1        0.0236
     21 O           2.0396    2.3583   -0.3921 O.3     1  LIG1       -0.4913
     22 C           2.5975    1.3051   -1.1518 C.3     1  LIG1        0.0790
     23 H          -3.1271   -1.6702    1.2510 H       1  LIG1        0.0660
     24 H          -3.5432   -0.0195    0.8600 H       1  LIG1        0.0660
     25 H          -3.2164   -0.4982    2.5777 H       1  LIG1        0.0660
     26 H          -0.5684   -1.4180   -0.2281 H       1  LIG1        0.0724
     27 H           0.5485   -2.1688    0.9458 H       1  LIG1        0.0724
     28 H           1.2222   -1.4216   -1.9571 H       1  LIG1        0.0659
     29 H           2.9362   -4.8160   -2.5550 H       1  LIG1        0.0258
     30 H           3.5992   -3.1689   -2.5152 H       1  LIG1        0.0258
     31 H           2.1037   -3.5060   -3.3830 H       1  LIG1        0.0258
     32 H           2.9028   -3.5703    0.6459 H       1  LIG1        0.0258
     33 H           2.7019   -5.1463   -0.1459 H       1  LIG1        0.0258
     34 H           1.3305   -4.3740    0.6422 H       1  LIG1        0.0258
     35 H           0.4707    4.2089   -0.1606 H       1  LIG1        0.0662
     36 H          -1.5623    5.3974    0.3913 H       1  LIG1        0.0627
     37 H          -3.8990    5.3276    1.1668 H       1  LIG1        0.0689
     38 H           3.2229    1.7411   -1.9332 H       1  LIG1        0.0660
     39 H           1.8309    0.7168   -1.6624 H       1  LIG1        0.0660
     40 H           3.2221    0.6936   -0.4968 H       1  LIG1        0.0660
@<TRIPOS>BOND
     1     1     2    2
     2     2     3   ar
     3     3     4   ar
     4     4     5   ar
     5     5     6    1
     6     6     7    1
     7     5     8   ar
     8     8     9    1
     9     9    10    1
    10    10    11    1
    11    11    12    1
    12    11    13    1
    13    13    14    1
    14    12    13    1
    15    13    15    1
    16     8    16   ar
    17    16    17   ar
    18    17    18   ar
    19     4    18   ar
    20    18    19   ar
    21    19    20   ar
    22     2    20   ar
    23    16    21    1
    24    21    22    1
    25     7    23    1
    26     7    24    1
    27     7    25    1
    28    10    26    1
    29    10    27    1
    30    11    28    1
    31    14    29    1
    32    14    30    1
    33    14    31    1
    34    15    32    1
    35    15    33    1
    36    15    34    1
    37    17    35    1
    38    19    36    1
    39    20    37    1
    40    22    38    1
    41    22    39    1
    42    22    40    1
