@<TRIPOS>MOLECULE
NuBBE_1658
 33 34 0 0 0
SMALL
GASTEIGER

@<TRIPOS>ATOM
      1 C          -0.2684   -1.5292   -0.0897 C.3     1  LIG1        0.0308
      2 H          -0.5142   -2.0023    0.8726 H       1  LIG1        0.0441
      3 C          -0.9927   -2.3644   -1.1373 C.2     1  LIG1       -0.0793
      4 C          -2.1013   -3.0801   -0.8933 C.2     1  LIG1       -0.1017
      5 C          -0.7687   -0.0942   -0.0451 C.2     1  LIG1        0.0142
      6 C          -1.1700    0.6165   -1.1116 C.2     1  LIG1       -0.0036
      7 C          -1.6469    2.0082   -1.0249 C.2     1  LIG1        0.2208
      8 O          -2.0303    2.5764   -2.0418 O.2     1  LIG1       -0.2840
      9 C          -1.6268    2.6722    0.3140 C.2     1  LIG1        0.1702
     10 C          -1.2537    1.9506    1.3811 C.2     1  LIG1        0.0309
     11 C          -0.8525    0.5331    1.2976 C.2     1  LIG1        0.1867
     12 O          -0.6111   -0.0830    2.3286 O.2     1  LIG1       -0.2875
     13 O          -2.0089    3.9998    0.3289 O.2     1  LIG1       -0.4912
     14 C          -1.9870    4.6902    1.5713 C.3     1  LIG1        0.0790
     15 C           1.2546   -1.5932   -0.2443 C.ar    1  LIG1       -0.0361
     16 C           1.9205   -1.0176   -1.3421 C.ar    1  LIG1       -0.0577
     17 C           3.3154   -1.0517   -1.4338 C.ar    1  LIG1       -0.0615
     18 C           4.0670   -1.6653   -0.4367 C.ar    1  LIG1       -0.0617
     19 C           3.4255   -2.2517    0.6518 C.ar    1  LIG1       -0.0615
     20 C           2.0310   -2.2166    0.7470 C.ar    1  LIG1       -0.0577
     21 H          -0.5879   -2.3709   -2.1474 H       1  LIG1        0.0576
     22 H          -2.5591   -3.1126    0.0921 H       1  LIG1        0.0532
     23 H          -2.5856   -3.6449   -1.6842 H       1  LIG1        0.0532
     24 H          -1.1508    0.2103   -2.1165 H       1  LIG1        0.0661
     25 H          -1.2268    2.3527    2.3854 H       1  LIG1        0.0694
     26 H          -2.2943    5.7242    1.3896 H       1  LIG1        0.0660
     27 H          -0.9763    4.7079    1.9919 H       1  LIG1        0.0660
     28 H          -2.6966    4.2451    2.2761 H       1  LIG1        0.0660
     29 H           1.3643   -0.5272   -2.1373 H       1  LIG1        0.0621
     30 H           3.8152   -0.5918   -2.2829 H       1  LIG1        0.0618
     31 H           5.1512   -1.6869   -0.5055 H       1  LIG1        0.0618
     32 H           4.0103   -2.7316    1.4324 H       1  LIG1        0.0618
     33 H           1.5549   -2.6720    1.6137 H       1  LIG1        0.0621
@<TRIPOS>BOND
     1     3     4    2
     2     1     5    1
     3     5     6    2
     4     6     7    1
     5     7     8    2
     6     7     9    1
     7     9    10    2
     8    10    11    1
     9     5    11    1
    10    11    12    2
    11     9    13    1
    12    13    14    1
    13     1    15    1
    14    15    16   ar
    15    16    17   ar
    16    17    18   ar
    17    18    19   ar
    18    19    20   ar
    19    15    20   ar
    20     1     3    1
    21     1     2    1
    22     3    21    1
    23     4    22    1
    24     4    23    1
    25     6    24    1
    26    10    25    1
    27    14    26    1
    28    14    27    1
    29    14    28    1
    30    16    29    1
    31    17    30    1
    32    18    31    1
    33    19    32    1
    34    20    33    1
