@<TRIPOS>MOLECULE
NuBBE_273
 42 43 0 0 0
SMALL
GASTEIGER

@<TRIPOS>ATOM
      1 O           3.9367    1.7224   -5.1966 O.3     1  LIG1       -0.5033
      2 C           2.7267    2.2620   -4.8615 C.ar    1  LIG1        0.1588
      3 C           2.0776    1.8594   -3.6927 C.ar    1  LIG1       -0.0094
      4 C           0.8305    2.4072   -3.3542 C.ar    1  LIG1       -0.0211
      5 C           0.1139    2.0344   -2.1277 C.2     1  LIG1       -0.0477
      6 C           0.1993    0.8294   -1.5444 C.2     1  LIG1        0.0231
      7 C          -0.5792    0.5491   -0.3220 C.2     1  LIG1        0.3342
      8 O          -0.2953   -0.7157    0.0584 O.3     1  LIG1       -0.4292
      9 C          -0.9791   -1.1319    1.2455 C.3     1  LIG1        0.2340
     10 H          -2.0178   -0.7740    1.2231 H       1  LIG1        0.1085
     11 O          -0.2913   -0.6018    2.3838 O.3     1  LIG1       -0.3312
     12 C          -0.9059   -0.9691    3.6187 C.3     1  LIG1        0.1140
     13 H          -1.9517   -0.6328    3.6305 H       1  LIG1        0.0647
     14 C          -0.8539   -2.4957    3.8000 C.3     1  LIG1        0.1120
     15 H           0.1849   -2.8433    3.8588 H       1  LIG1        0.0647
     16 C          -1.5404   -3.1665    2.6084 C.3     1  LIG1        0.1152
     17 H          -2.6231   -2.9897    2.6424 H       1  LIG1        0.0648
     18 C          -0.9696   -2.6719    1.2799 C.3     1  LIG1        0.1455
     19 H           0.0523   -3.0465    1.1433 H       1  LIG1        0.0683
     20 O          -1.7523   -3.2230    0.2091 O.3     1  LIG1       -0.3829
     21 O          -1.3831   -4.5926    2.6868 O.3     1  LIG1       -0.3864
     22 O          -1.5177   -2.9355    4.9894 O.3     1  LIG1       -0.3865
     23 C          -0.1711   -0.2418    4.7506 C.3     1  LIG1        0.0731
     24 O          -0.7401   -0.5590    6.0183 O.3     1  LIG1       -0.3924
     25 O          -1.3386    1.3330    0.2233 O.2     1  LIG1       -0.2455
     26 C           0.2668    3.3816   -4.1923 C.ar    1  LIG1       -0.0509
     27 C           0.9205    3.7842   -5.3618 C.ar    1  LIG1       -0.0160
     28 C           2.1475    3.2189   -5.6924 C.ar    1  LIG1        0.1582
     29 O           2.8002    3.5990   -6.8331 O.3     1  LIG1       -0.5033
     30 H           4.2002    1.0840   -4.5167 H       1  LIG1        0.2923
     31 H           2.5477    1.1291   -3.0440 H       1  LIG1        0.0661
     32 H          -0.5354    2.7976   -1.7034 H       1  LIG1        0.0626
     33 H           0.8063    0.0216   -1.9325 H       1  LIG1        0.0689
     34 H          -1.8055   -4.1811    0.3999 H       1  LIG1        0.2102
     35 H          -1.6070   -4.8192    3.6131 H       1  LIG1        0.2100
     36 H          -1.1555   -2.3941    5.7256 H       1  LIG1        0.2100
     37 H          -0.2021    0.8440    4.6021 H       1  LIG1        0.0584
     38 H           0.8869   -0.5258    4.7657 H       1  LIG1        0.0584
     39 H          -1.5155    0.0221    6.1345 H       1  LIG1        0.2095
     40 H          -0.6932    3.8323   -3.9470 H       1  LIG1        0.0625
     41 H           0.4575    4.5343   -5.9945 H       1  LIG1        0.0655
     42 H           2.2687    4.2655   -7.2945 H       1  LIG1        0.2923
@<TRIPOS>BOND
     1     1     2    1
     2     2     3   ar
     3     3     4   ar
     4     4     5    1
     5     5     6    2
     6     6     7    1
     7     7     8    1
     8     9    11    1
     9    11    12    1
    10    12    13    1
    11    12    14    1
    12    14    16    1
    13    16    17    1
    14    16    18    1
    15     9    18    1
    16    16    21    1
    17    12    23    1
    18    23    24    1
    19     7    25    2
    20     4    26   ar
    21    26    27   ar
    22    27    28   ar
    23     2    28   ar
    24    28    29    1
    25     9    10    1
    26     9     8    1
    27    14    22    1
    28    14    15    1
    29    18    20    1
    30    18    19    1
    31     1    30    1
    32     3    31    1
    33     5    32    1
    34     6    33    1
    35    20    34    1
    36    21    35    1
    37    22    36    1
    38    23    37    1
    39    23    38    1
    40    24    39    1
    41    26    40    1
    42    27    41    1
    43    29    42    1
