@<TRIPOS>MOLECULE
NuBBE_7
 38 40 0 0 0
SMALL
GASTEIGER

@<TRIPOS>ATOM
      1 C          -5.1252    0.7576   -0.4336 C.3     1  LIG1       -0.0396
      2 C          -3.6295    0.8194   -0.4708 C.ar    1  LIG1       -0.0463
      3 C          -2.9631    2.0235   -0.2306 C.ar    1  LIG1       -0.0169
      4 C          -1.5712    2.0563   -0.2386 C.ar    1  LIG1        0.1234
      5 O          -0.9184    3.2217    0.0533 O.3     1  LIG1       -0.5064
      6 C          -2.8819   -0.3380   -0.7210 C.ar    1  LIG1       -0.0478
      7 C          -1.4768   -0.2949   -0.7052 C.ar    1  LIG1        0.0270
      8 C          -0.8048    0.9055   -0.4804 C.ar    1  LIG1        0.0331
      9 C           0.6992    0.9726   -0.3932 C.3     1  LIG1        0.0901
     10 H           1.0451    1.8502   -0.9540 H       1  LIG1        0.0649
     11 O           1.0592    1.1661    0.9737 O.3     1  LIG1       -0.3867
     12 C           1.4253   -0.2653   -0.9616 C.3     1  LIG1        0.0275
     13 H           1.3422   -0.1898   -2.0571 H       1  LIG1        0.0362
     14 C           0.7597   -1.5757   -0.5340 C.3     1  LIG1        0.0301
     15 C          -0.7214   -1.5669   -0.8633 C.2     1  LIG1        0.1671
     16 O          -1.3105   -2.5953   -1.1817 O.2     1  LIG1       -0.2917
     17 H           1.2042   -2.3819   -1.1407 H       1  LIG1        0.0385
     18 C           0.9666   -1.9113    0.9434 C.3     1  LIG1       -0.0403
     19 C           2.4406   -1.8947    1.3417 C.3     1  LIG1       -0.0238
     20 C           3.2019   -0.6508    0.8820 C.3     1  LIG1        0.0815
     21 H           2.9731    0.2013    1.5257 H       1  LIG1        0.0619
     22 O           4.6024   -0.8810    1.0727 O.3     1  LIG1       -0.3892
     23 C           2.9254   -0.3137   -0.6043 C.3     1  LIG1        0.0872
     24 H           3.4096   -1.0823   -1.2209 H       1  LIG1        0.0623
     25 O           3.5349    0.9237   -0.9883 O.3     1  LIG1       -0.3888
     26 H          -5.5649    1.7345   -0.1982 H       1  LIG1        0.0278
     27 H          -5.4589    0.0495    0.3295 H       1  LIG1        0.0278
     28 H          -5.5133    0.4458   -1.4095 H       1  LIG1        0.0278
     29 H          -3.5330    2.9239   -0.0163 H       1  LIG1        0.0657
     30 H          -1.5674    3.9257    0.2248 H       1  LIG1        0.2921
     31 H          -3.3946   -1.2845   -0.8952 H       1  LIG1        0.0627
     32 H           0.2512    1.3490    1.4842 H       1  LIG1        0.2102
     33 H           0.5501   -2.9048    1.1562 H       1  LIG1        0.0273
     34 H           0.4019   -1.2199    1.5799 H       1  LIG1        0.0273
     35 H           2.9324   -2.7880    0.9360 H       1  LIG1        0.0291
     36 H           2.5242   -1.9880    2.4317 H       1  LIG1        0.0291
     37 H           4.7855   -0.7509    2.0195 H       1  LIG1        0.2099
     38 H           3.4001    1.5514   -0.2556 H       1  LIG1        0.2099
@<TRIPOS>BOND
     1     1     2    1
     2     2     3   ar
     3     3     4   ar
     4     4     5    1
     5     2     6   ar
     6     6     7   ar
     7     7     8   ar
     8     4     8   ar
     9     8     9    1
    10     9    12    1
    11    12    13    1
    12    12    14    1
    13    14    15    1
    14     7    15    1
    15    15    16    2
    16    14    17    1
    17    14    18    1
    18    18    19    1
    19    19    20    1
    20    20    21    1
    21    20    22    1
    22    20    23    1
    23    12    23    1
    24     9    11    1
    25     9    10    1
    26    23    25    1
    27    23    24    1
    28     1    26    1
    29     1    27    1
    30     1    28    1
    31     3    29    1
    32     5    30    1
    33     6    31    1
    34    11    32    1
    35    18    33    1
    36    18    34    1
    37    19    35    1
    38    19    36    1
    39    22    37    1
    40    25    38    1
