@<TRIPOS>MOLECULE
NuBBE_261
 56 59 0 0 0
SMALL
GASTEIGER

@<TRIPOS>ATOM
      1 C          -4.1170    1.4353    0.1821 C.3     1  LIG1        0.0790
      2 O          -3.9518    1.5964   -1.2226 O.3     1  LIG1       -0.4913
      3 C          -2.7175    2.0484   -1.6175 C.ar    1  LIG1        0.1653
      4 C          -2.7304    2.8280   -2.7760 C.ar    1  LIG1        0.2010
      5 O          -3.9433    3.0030   -3.3826 O.3     1  LIG1       -0.5009
      6 C          -1.5464    3.3667   -3.3095 C.ar    1  LIG1        0.1653
      7 O          -1.4831    4.1702   -4.4203 O.3     1  LIG1       -0.4913
      8 C          -2.6148    5.0122   -4.6464 C.3     1  LIG1        0.0790
      9 C          -0.3364    3.0225   -2.7083 C.ar    1  LIG1       -0.0104
     10 C          -0.3001    2.1920   -1.5675 C.ar    1  LIG1       -0.0114
     11 C           1.0244    1.7656   -0.9629 C.3     1  LIG1        0.0892
     12 H           1.7180    2.6157   -1.0469 H       1  LIG1        0.0650
     13 O           0.8935    1.5251    0.4447 O.3     1  LIG1       -0.3712
     14 C           2.0323    0.7591    0.8265 C.3     1  LIG1        0.0544
     15 C           2.3597   -0.1674   -0.3373 C.3     1  LIG1        0.0205
     16 C           1.7130    0.5181   -1.5451 C.3     1  LIG1        0.0205
     17 C           0.8092   -0.5558   -2.1316 C.3     1  LIG1        0.0544
     18 O           0.5230   -1.4680   -1.0734 O.3     1  LIG1       -0.3712
     19 C           1.7329   -1.5777   -0.3135 C.3     1  LIG1        0.0892
     20 H           2.3857   -2.2552   -0.8831 H       1  LIG1        0.0650
     21 C           1.5039   -2.2344    1.0286 C.ar    1  LIG1       -0.0114
     22 C           2.5759   -2.3655    1.9233 C.ar    1  LIG1       -0.0104
     23 C           2.3630   -2.8163    3.2269 C.ar    1  LIG1        0.1653
     24 O           3.3327   -2.8400    4.1998 O.3     1  LIG1       -0.4913
     25 C           4.4188   -1.9391    3.9840 C.3     1  LIG1        0.0790
     26 C           1.0852   -3.2555    3.5983 C.ar    1  LIG1        0.2010
     27 O           0.8475   -3.6490    4.8923 O.3     1  LIG1       -0.5009
     28 C           0.0260   -3.2503    2.6866 C.ar    1  LIG1        0.1653
     29 O          -1.1965   -3.6701    3.1423 O.3     1  LIG1       -0.4913
     30 C          -2.0400   -4.2825    2.1744 C.3     1  LIG1        0.0790
     31 C           0.2387   -2.7123    1.4145 C.ar    1  LIG1       -0.0104
     32 C          -1.5075    1.7293   -1.0183 C.ar    1  LIG1       -0.0104
     33 H          -5.1496    1.1162    0.3534 H       1  LIG1        0.0660
     34 H          -3.9656    2.3854    0.7060 H       1  LIG1        0.0660
     35 H          -3.4638    0.6538    0.5770 H       1  LIG1        0.0660
     36 H          -4.5694    2.4638   -2.8629 H       1  LIG1        0.2924
     37 H          -2.4126    5.6284   -5.5269 H       1  LIG1        0.0660
     38 H          -2.7827    5.6757   -3.7916 H       1  LIG1        0.0660
     39 H          -3.5183    4.4575   -4.9026 H       1  LIG1        0.0660
     40 H           0.5892    3.4178   -3.1267 H       1  LIG1        0.0659
     41 H           1.8425    0.2768    1.7863 H       1  LIG1        0.0564
     42 H           2.8600    1.4635    0.9816 H       1  LIG1        0.0564
     43 H           3.4486   -0.2625   -0.4238 H       1  LIG1        0.0356
     44 H           2.4393    0.8306   -2.3040 H       1  LIG1        0.0356
     45 H           1.3492   -1.1166   -2.9050 H       1  LIG1        0.0564
     46 H          -0.1201   -0.2057   -2.5820 H       1  LIG1        0.0564
     47 H           3.5651   -2.0661    1.5926 H       1  LIG1        0.0659
     48 H           4.9987   -1.8737    4.9082 H       1  LIG1        0.0660
     49 H           4.0565   -0.9316    3.7464 H       1  LIG1        0.0660
     50 H           5.0858   -2.3080    3.1969 H       1  LIG1        0.0660
     51 H           1.5670   -3.2615    5.4206 H       1  LIG1        0.2924
     52 H          -2.9330   -4.6435    2.6945 H       1  LIG1        0.0660
     53 H          -1.5485   -5.1445    1.7108 H       1  LIG1        0.0660
     54 H          -2.3772   -3.5681    1.4180 H       1  LIG1        0.0660
     55 H          -0.5885   -2.6123    0.7185 H       1  LIG1        0.0659
     56 H          -1.4710    1.0761   -0.1469 H       1  LIG1        0.0659
@<TRIPOS>BOND
     1     1     2    1
     2     2     3    1
     3     3     4   ar
     4     4     5    1
     5     4     6   ar
     6     6     7    1
     7     7     8    1
     8     6     9   ar
     9     9    10   ar
    10    11    13    1
    11    13    14    1
    12    14    15    1
    13    15    16    1
    14    11    16    1
    15    16    17    1
    16    17    18    1
    17    18    19    1
    18    15    19    1
    19    21    22   ar
    20    22    23   ar
    21    23    24    1
    22    24    25    1
    23    23    26   ar
    24    26    27    1
    25    26    28   ar
    26    28    29    1
    27    29    30    1
    28    28    31   ar
    29    21    31   ar
    30    10    32   ar
    31     3    32   ar
    32    11    12    1
    33    11    10    1
    34    19    21    1
    35    19    20    1
    36     1    33    1
    37     1    34    1
    38     1    35    1
    39     5    36    1
    40     8    37    1
    41     8    38    1
    42     8    39    1
    43     9    40    1
    44    14    41    1
    45    14    42    1
    46    15    43    1
    47    16    44    1
    48    17    45    1
    49    17    46    1
    50    22    47    1
    51    25    48    1
    52    25    49    1
    53    25    50    1
    54    27    51    1
    55    30    52    1
    56    30    53    1
    57    30    54    1
    58    31    55    1
    59    32    56    1
