REMARK  Name = NuBBE_2360
REMARK  8 active torsions:
REMARK  status: ('A' for Active; 'I' for Inactive)
REMARK    1  A    between atoms: C_1  and  C_2
REMARK    2  A    between atoms: C_2  and  C_3
REMARK    3  A    between atoms: C_3  and  O_4
REMARK    4  A    between atoms: C_9  and  C_10
REMARK    5  A    between atoms: C_18  and  O_19
REMARK    6  A    between atoms: C_20  and  C_21
REMARK    7  A    between atoms: C_21  and  C_22
REMARK    8  A    between atoms: C_21  and  C_23
REMARK                            x       y       z     vdW  Elec       q    Type
REMARK                         _______ _______ _______ _____ _____    ______ ____
ROOT
ATOM      1  C   LIG A   1      -3.816  -1.700   1.823  0.00  0.00    +0.023 C 
ATOM      2  C   LIG A   1      -2.262  -1.703   1.869  0.00  0.00    +0.068 C 
ATOM      3  C   LIG A   1      -1.891  -1.348   3.326  0.00  0.00    +0.018 C 
ATOM      4  C   LIG A   1      -0.403  -1.109   3.564  0.00  0.00    +0.002 C 
ATOM      5  C   LIG A   1       0.388  -0.699   2.324  0.00  0.00    +0.012 C 
ATOM      6  C   LIG A   1      -0.401   0.159   1.306  0.00  0.00    -0.003 C 
ATOM      7  C   LIG A   1      -0.811   1.500   1.982  0.00  0.00    +0.016 C 
ATOM      8  C   LIG A   1      -1.724  -0.607   0.870  0.00  0.00    +0.016 C 
ATOM      9  C   LIG A   1      -1.666  -1.138  -0.574  0.00  0.00    +0.010 C 
ATOM     10  C   LIG A   1      -1.293  -0.028  -1.539  0.00  0.00    +0.036 C 
ATOM     11  C   LIG A   1       0.077   0.485  -1.211  0.00  0.00    -0.043 A 
ATOM     12  C   LIG A   1       0.513   0.566   0.122  0.00  0.00    -0.035 A 
ATOM     13  C   LIG A   1       1.802   1.088   0.349  0.00  0.00    +0.050 A 
ATOM     14  C   LIG A   1       2.630   1.484  -0.707  0.00  0.00    +0.121 A 
ATOM     15  C   LIG A   1       2.204   1.400  -2.033  0.00  0.00    -0.003 A 
ATOM     16  C   LIG A   1       0.911   0.910  -2.265  0.00  0.00    +0.011 A 
ENDROOT
BRANCH  15  17
ATOM     17  C   LIG A   1       3.111   1.800  -3.186  0.00  0.00    +0.016 C 
ATOM     18  C   LIG A   1       2.520   2.940  -4.019  0.00  0.00    +0.012 C 
ATOM     19  C   LIG A   1       3.442   0.595  -4.072  0.00  0.00    +0.012 C 
ENDBRANCH  15  17
BRANCH   2  20
ATOM     20  C   LIG A   1      -1.725  -3.135   1.589  0.00  0.00    +0.311 C 
ATOM     21  O   LIG A   1      -0.729  -3.611   2.110  0.00  0.00    -0.250 OA
BRANCH  20  22
ATOM     22  O   LIG A   1      -2.422  -3.868   0.693  0.00  0.00    -0.480 OA
ATOM     23  H   LIG A   1      -3.191  -3.451   0.275  0.00  0.00    +0.295 HD
ENDBRANCH  20  22
ENDBRANCH   2  20
BRANCH  14  24
ATOM     24  O   LIG A   1       3.880   1.967  -0.437  0.00  0.00    -0.506 OA
ATOM     25  H   LIG A   1       4.044   1.896   0.517  0.00  0.00    +0.292 HD
ENDBRANCH  14  24
TORSDOF 4
