@<TRIPOS>MOLECULE
NuBBE_403
 20 20 0 0 0
SMALL
GASTEIGER

@<TRIPOS>ATOM
      1 O           1.4944   -0.6229   -3.4977 O.3     1  LIG1       -0.3845
      2 C           0.5411   -0.5185   -2.4554 C.3     1  LIG1        0.0902
      3 S           0.5460   -2.0426   -1.4886 S.3     1  LIG1       -0.1285
      4 C          -0.7680   -1.6341   -0.2946 C.3     1  LIG1        0.0209
      5 C          -0.4724   -0.4179    0.5477 C.ar    1  LIG1       -0.0375
      6 C          -1.3313    0.6921    0.5115 C.ar    1  LIG1       -0.0578
      7 C          -1.0622    1.8222    1.2860 C.ar    1  LIG1       -0.0615
      8 C           0.0639    1.8579    2.1036 C.ar    1  LIG1       -0.0617
      9 C           0.9201    0.7590    2.1569 C.ar    1  LIG1       -0.0615
     10 C           0.6489   -0.3748    1.3892 C.ar    1  LIG1       -0.0578
     11 H           2.2055   -1.1689   -3.1200 H       1  LIG1        0.2105
     12 H          -0.4411   -0.3441   -2.9022 H       1  LIG1        0.0673
     13 H           0.8201    0.3354   -1.8342 H       1  LIG1        0.0673
     14 H          -0.9089   -2.4944    0.3697 H       1  LIG1        0.0426
     15 H          -1.7063   -1.5119   -0.8467 H       1  LIG1        0.0426
     16 H          -2.2167    0.6864   -0.1197 H       1  LIG1        0.0621
     17 H          -1.7340    2.6770    1.2509 H       1  LIG1        0.0618
     18 H           0.2752    2.7400    2.7026 H       1  LIG1        0.0618
     19 H           1.7984    0.7851    2.7956 H       1  LIG1        0.0618
     20 H           1.3273   -1.2250    1.4454 H       1  LIG1        0.0621
@<TRIPOS>BOND
     1     1     2    1
     2     2     3    1
     3     3     4    1
     4     4     5    1
     5     5     6   ar
     6     6     7   ar
     7     7     8   ar
     8     8     9   ar
     9     9    10   ar
    10     5    10   ar
    11     1    11    1
    12     2    12    1
    13     2    13    1
    14     4    14    1
    15     4    15    1
    16     6    16    1
    17     7    17    1
    18     8    18    1
    19     9    19    1
    20    10    20    1
