REMARK  Name = NuBBE_2112
REMARK  11 active torsions:
REMARK  status: ('A' for Active; 'I' for Inactive)
REMARK    1  A    between atoms: C_2  and  C_3
REMARK    2  A    between atoms: C_3  and  C_4
REMARK    3  A    between atoms: C_4  and  C_5
REMARK    4  A    between atoms: C_5  and  C_6
REMARK    5  A    between atoms: C_6  and  C_7
REMARK    6  A    between atoms: C_7  and  C_8
REMARK    7  A    between atoms: C_8  and  C_9
REMARK    8  A    between atoms: C_9  and  C_10
REMARK    9  A    between atoms: C_10  and  C_11
REMARK   10  A    between atoms: C_11  and  C_12
REMARK   11  A    between atoms: C_12  and  C_13
REMARK                            x       y       z     vdW  Elec       q    Type
REMARK                         _______ _______ _______ _____ _____    ______ ____
ROOT
ATOM      1  C   LIG A   1       0.435  -1.373  -0.008  0.00  0.00    -0.000 C 
ENDROOT
BRANCH   1   2
ATOM      2  C   LIG A   1      -0.771  -1.424   0.912  0.00  0.00    +0.000 C 
BRANCH   2   3
ATOM      3  C   LIG A   1      -0.985  -0.035   1.550  0.00  0.00    +0.000 C 
BRANCH   3   4
ATOM      4  C   LIG A   1      -2.183  -0.052   2.492  0.00  0.00    +0.004 C 
BRANCH   4   5
ATOM      5  C   LIG A   1      -2.484   1.284   3.188  0.00  0.00    +0.026 C 
BRANCH   5   7
ATOM      6  C   LIG A   1      -1.611   2.003   5.437  0.00  0.00    +0.004 C 
ATOM      7  C   LIG A   1      -1.419   1.791   4.103  0.00  0.00    -0.035 C 
ENDBRANCH   5   7
ENDBRANCH   4   5
ENDBRANCH   3   4
ENDBRANCH   2   3
ENDBRANCH   1   2
BRANCH   1   8
ATOM      8  C   LIG A   1       0.619  -2.574  -0.928  0.00  0.00    -0.000 C 
BRANCH   8   9
ATOM      9  C   LIG A   1       1.783  -2.413  -1.924  0.00  0.00    -0.000 C 
BRANCH   9  10
ATOM     10  C   LIG A   1       1.626  -1.334  -3.021  0.00  0.00    -0.000 C 
BRANCH  10  11
ATOM     11  C   LIG A   1       1.538   0.122  -2.548  0.00  0.00    -0.000 C 
BRANCH  11  12
ATOM     12  C   LIG A   1       1.416   1.153  -3.661  0.00  0.00    -0.003 C 
ATOM     13  C   LIG A   1       1.267   2.562  -3.085  0.00  0.00    +0.004 C 
ENDBRANCH  11  12
ENDBRANCH  10  11
ENDBRANCH   9  10
ENDBRANCH   8   9
ENDBRANCH   1   8
TORSDOF 10
