@<TRIPOS>MOLECULE
NuBBE_1766
 40 44 0 0 0
SMALL
GASTEIGER

@<TRIPOS>ATOM
      1 O          -2.0624   -2.1374   -1.0855 O.3     1  LIG1       -0.3723
      2 C          -3.4807   -2.1545   -1.1787 C.3     1  LIG1        0.0373
      3 C          -1.5092   -0.8479   -1.3968 C.3     1  LIG1        0.1165
      4 C          -1.1737   -0.1083   -0.0958 C.3     1  LIG1        0.1302
      5 C           0.1764   -0.6062    0.4404 C.3     1  LIG1        0.1543
      6 C           0.5665    0.2032    1.6610 C.ar    1  LIG1        0.0043
      7 C           0.0230    1.4925    1.8356 C.ar    1  LIG1        0.0302
      8 C          -0.9937    2.0554    0.8818 C.3     1  LIG1        0.0773
      9 O          -1.1283    1.3117   -0.3371 O.3     1  LIG1       -0.3649
     10 C           0.4301    2.2065    2.9490 C.ar    1  LIG1        0.1719
     11 C           1.3420    1.7006    3.8472 C.ar    1  LIG1        0.1666
     12 C           1.9007    0.4501    3.6934 C.ar    1  LIG1       -0.0157
     13 C           1.5096   -0.3034    2.5845 C.ar    1  LIG1       -0.0510
     14 O           1.6075    2.5633    4.8645 O.3     1  LIG1       -0.4526
     15 C           0.7793    3.6827    4.4940 C.3     1  LIG1        0.2332
     16 O           0.0042    3.4524    3.2993 O.3     1  LIG1       -0.4522
     17 O           1.2534   -0.4395   -0.4899 O.3     1  LIG1       -0.4810
     18 C           0.9938   -0.8747   -1.7576 C.ar    1  LIG1        0.1307
     19 C          -0.2936   -1.0928   -2.2522 C.ar    1  LIG1        0.0256
     20 C          -0.4458   -1.5431   -3.5755 C.ar    1  LIG1       -0.0491
     21 C           0.6679   -1.7484   -4.3920 C.ar    1  LIG1       -0.0196
     22 C           1.9380   -1.5014   -3.8843 C.ar    1  LIG1        0.1204
     23 C           2.1076   -1.0640   -2.5766 C.ar    1  LIG1        0.0219
     24 O           3.0541   -1.6809   -4.6472 O.3     1  LIG1       -0.5066
     25 H          -3.8327   -3.1448   -0.8777 H       1  LIG1        0.0524
     26 H          -3.7943   -1.9741   -2.2116 H       1  LIG1        0.0524
     27 H          -3.9227   -1.4072   -0.5131 H       1  LIG1        0.0524
     28 H          -2.2189   -0.2487   -1.9845 H       1  LIG1        0.0675
     29 H          -1.9676   -0.2981    0.6403 H       1  LIG1        0.0666
     30 H           0.1051   -1.6668    0.7178 H       1  LIG1        0.0812
     31 H          -0.7181    3.0767    0.5989 H       1  LIG1        0.0611
     32 H          -1.9750    2.0876    1.3694 H       1  LIG1        0.0611
     33 H           2.6248    0.0703    4.4048 H       1  LIG1        0.0655
     34 H           1.9493   -1.2869    2.4263 H       1  LIG1        0.0623
     35 H           1.4209    4.5569    4.3327 H       1  LIG1        0.1166
     36 H           0.0923    3.8992    5.3200 H       1  LIG1        0.1166
     37 H          -1.4404   -1.7342   -3.9724 H       1  LIG1        0.0623
     38 H           0.5243   -2.0945   -5.4103 H       1  LIG1        0.0654
     39 H           3.1051   -0.8745   -2.1915 H       1  LIG1        0.0691
     40 H           2.7811   -1.9771   -5.5306 H       1  LIG1        0.2921
@<TRIPOS>BOND
     1     1     2    1
     2     1     3    1
     3     3     4    1
     4     4     5    1
     5     5     6    1
     6     6     7   ar
     7     7     8    1
     8     8     9    1
     9     4     9    1
    10     7    10   ar
    11    10    11   ar
    12    11    12   ar
    13    12    13   ar
    14     6    13   ar
    15    11    14    1
    16    14    15    1
    17    15    16    1
    18    10    16    1
    19     5    17    1
    20    17    18    1
    21    18    19   ar
    22     3    19    1
    23    19    20   ar
    24    20    21   ar
    25    21    22   ar
    26    22    23   ar
    27    18    23   ar
    28    22    24    1
    29     2    25    1
    30     2    26    1
    31     2    27    1
    32     3    28    1
    33     4    29    1
    34     5    30    1
    35     8    31    1
    36     8    32    1
    37    12    33    1
    38    13    34    1
    39    15    35    1
    40    15    36    1
    41    20    37    1
    42    21    38    1
    43    23    39    1
    44    24    40    1
