@<TRIPOS>MOLECULE
NuBBE_924
 72 76 0 0 0
SMALL
GASTEIGER

@<TRIPOS>ATOM
      1 C          -0.8537    3.1309    0.1592 C.3     1  LIG1       -0.0521
      2 C          -1.2572    1.8082    0.8539 C.3     1  LIG1        0.0387
      3 C          -1.2022    0.5504   -0.1895 C.3     1  LIG1        0.0176
      4 H          -2.2192    0.4409   -0.5939 H       1  LIG1        0.0353
      5 C          -0.8400   -0.7820    0.5334 C.3     1  LIG1        0.0162
      6 C          -2.0458   -1.1724    1.4618 C.3     1  LIG1       -0.0555
      7 C           0.5037   -0.6322    1.2707 C.3     1  LIG1        0.1094
      8 O           0.6711   -1.7149    2.1929 O.3     1  LIG1       -0.4608
      9 C           0.6354   -2.9773    1.6963 C.2     1  LIG1        0.3077
     10 C          -0.1959   -3.2357    0.4461 C.3     1  LIG1        0.0493
     11 C          -0.6329   -2.0230   -0.4060 C.3     1  LIG1       -0.0096
     12 H          -1.6404   -2.2735   -0.7764 H       1  LIG1        0.0322
     13 C           0.2006   -1.8224   -1.7228 C.3     1  LIG1        0.0339
     14 C           1.7686   -1.8723   -1.5909 C.2     1  LIG1        0.1464
     15 C           2.5311   -3.1925   -1.7717 C.3     1  LIG1        0.0622
     16 H           1.9418   -4.0406   -1.4198 H       1  LIG1        0.0416
     17 C           2.9347   -3.4002   -3.2178 C.3     1  LIG1        0.1025
     18 O           4.1354   -4.1583   -3.2064 O.3     1  LIG1       -0.4639
     19 C           4.7208   -4.0853   -1.9694 C.2     1  LIG1        0.3079
     20 C           3.8650   -3.2410   -1.0554 C.3     1  LIG1        0.0576
     21 O           5.7843   -4.6092   -1.6670 O.2     1  LIG1       -0.2508
     22 O           2.3990   -0.8392   -1.3531 O.2     1  LIG1       -0.2964
     23 C          -0.2237   -2.8971   -2.7608 C.3     1  LIG1       -0.0524
     24 C          -0.2194   -0.4765   -2.3658 C.3     1  LIG1       -0.0030
     25 C          -0.3035    0.7601   -1.4560 C.3     1  LIG1        0.1083
     26 H           0.6968    1.0858   -1.1518 H       1  LIG1        0.0737
     27 O          -0.9340    1.8031   -2.2504 O.3     1  LIG1       -0.4612
     28 C          -0.1662    2.4904   -3.1369 C.2     1  LIG1        0.3042
     29 C          -0.9139    3.6785   -3.6641 C.3     1  LIG1        0.0332
     30 O           0.9798    2.1985   -3.4572 O.2     1  LIG1       -0.2512
     31 O           1.1687   -3.9074    2.2926 O.2     1  LIG1       -0.2508
     32 H           1.3340   -0.7456    0.5838 H       1  LIG1        0.0739
     33 C           0.8068    0.7259    1.9229 C.3     1  LIG1       -0.0112
     34 C          -0.4538    1.5297    2.1796 C.3     1  LIG1       -0.0224
     35 H          -1.0443    0.8736    2.8288 H       1  LIG1        0.0314
     36 C          -0.3094    2.8094    3.0417 C.3     1  LIG1       -0.0373
     37 H           0.1038    3.6333    2.4532 H       1  LIG1        0.0302
     38 C          -1.7207    3.1824    3.5434 C.3     1  LIG1       -0.0170
     39 C          -2.8181    3.1948    2.4714 C.3     1  LIG1        0.1138
     40 H          -2.8139    4.1540    1.9443 H       1  LIG1        0.0673
     41 O          -4.0748    3.1089    3.1422 O.3     1  LIG1       -0.3843
     42 C          -2.6798    2.0805    1.4001 C.2     1  LIG1        0.1680
     43 O          -3.6761    1.4604    1.0225 O.2     1  LIG1       -0.2941
     44 C           0.6362    2.6564    4.2354 C.3     1  LIG1       -0.0620
     45 H          -1.5341    3.3478   -0.6689 H       1  LIG1        0.0239
     46 H           0.1810    3.1098   -0.1928 H       1  LIG1        0.0239
     47 H          -0.9477    4.0210    0.7858 H       1  LIG1        0.0239
     48 H          -2.3098   -0.4291    2.2088 H       1  LIG1        0.0236
     49 H          -1.8851   -2.0938    2.0265 H       1  LIG1        0.0236
     50 H          -2.9484   -1.3283    0.8565 H       1  LIG1        0.0236
     51 H          -1.1042   -3.7423    0.8012 H       1  LIG1        0.0381
     52 H           0.3228   -3.9812   -0.1557 H       1  LIG1        0.0381
     53 H           3.1128   -2.4635   -3.7573 H       1  LIG1        0.0704
     54 H           2.1829   -3.9742   -3.7654 H       1  LIG1        0.0704
     55 H           4.3575   -2.2769   -0.9354 H       1  LIG1        0.0385
     56 H           3.7813   -3.7442   -0.0855 H       1  LIG1        0.0385
     57 H          -1.2977   -2.8509   -2.9729 H       1  LIG1        0.0239
     58 H          -0.0111   -3.9162   -2.4275 H       1  LIG1        0.0239
     59 H           0.2912   -2.7377   -3.7152 H       1  LIG1        0.0239
     60 H          -1.2049   -0.5916   -2.8402 H       1  LIG1        0.0310
     61 H           0.4590   -0.2575   -3.2017 H       1  LIG1        0.0310
     62 H          -1.5608    4.0962   -2.8866 H       1  LIG1        0.0342
     63 H          -1.5123    3.3976   -4.5324 H       1  LIG1        0.0342
     64 H          -0.1976    4.4588   -3.9379 H       1  LIG1        0.0342
     65 H           1.4583    1.3121    1.2623 H       1  LIG1        0.0304
     66 H           1.3658    0.5522    2.8476 H       1  LIG1        0.0304
     67 H          -1.6926    4.1650    4.0330 H       1  LIG1        0.0297
     68 H          -2.0136    2.4813    4.3381 H       1  LIG1        0.0297
     69 H          -4.5203    2.3058    2.8035 H       1  LIG1        0.2104
     70 H           1.6707    2.5312    3.8988 H       1  LIG1        0.0233
     71 H           0.3658    1.7970    4.8565 H       1  LIG1        0.0233
     72 H           0.6119    3.5537    4.8635 H       1  LIG1        0.0233
@<TRIPOS>BOND
     1     2     3    1
     2     3     5    1
     3     5     7    1
     4     7     8    1
     5     8     9    1
     6     9    10    1
     7    10    11    1
     8     5    11    1
     9    11    13    1
    10    14    15    1
    11    15    16    1
    12    15    17    1
    13    17    18    1
    14    18    19    1
    15    19    20    1
    16    15    20    1
    17    19    21    2
    18    14    22    2
    19    13    24    1
    20    24    25    1
    21     3    25    1
    22    27    28    1
    23    28    29    1
    24    28    30    2
    25     7    33    1
    26    33    34    1
    27     2    34    1
    28    34    36    1
    29    36    38    1
    30    38    39    1
    31    39    42    1
    32     2    42    1
    33     1     2    1
    34     3     4    1
    35     5     6    1
    36     7    32    1
    37     9    31    2
    38    11    12    1
    39    25    26    1
    40    25    27    1
    41    34    35    1
    42    42    43    2
    43    13    23    1
    44    13    14    1
    45    36    44    1
    46    36    37    1
    47    39    41    1
    48    39    40    1
    49     1    45    1
    50     1    46    1
    51     1    47    1
    52     6    48    1
    53     6    49    1
    54     6    50    1
    55    10    51    1
    56    10    52    1
    57    17    53    1
    58    17    54    1
    59    20    55    1
    60    20    56    1
    61    23    57    1
    62    23    58    1
    63    23    59    1
    64    24    60    1
    65    24    61    1
    66    29    62    1
    67    29    63    1
    68    29    64    1
    69    33    65    1
    70    33    66    1
    71    38    67    1
    72    38    68    1
    73    41    69    1
    74    44    70    1
    75    44    71    1
    76    44    72    1
