@<TRIPOS>MOLECULE
NuBBE_2241
 54 57 0 0 0
SMALL
GASTEIGER

@<TRIPOS>ATOM
      1 C          -1.8741    0.1057    4.0838 C.3     1  LIG1       -0.0568
      2 C          -0.8106   -0.5659    3.1886 C.3     1  LIG1        0.0012
      3 C           0.6061   -0.3361    3.7673 C.3     1  LIG1       -0.0568
      4 C          -1.0948   -2.0974    3.2774 C.3     1  LIG1       -0.0447
      5 C          -0.2177   -2.9016    2.3319 C.3     1  LIG1       -0.0497
      6 C          -0.5695   -2.6019    0.8862 C.3     1  LIG1       -0.0197
      7 C          -0.6969   -1.1155    0.5788 C.3     1  LIG1        0.1157
      8 O          -2.0144   -0.6867    1.0268 O.3     1  LIG1       -0.3546
      9 C          -0.9209   -0.0612    1.7106 C.3     1  LIG1        0.1328
     10 C          -0.6267    1.3789    1.3525 C.2     1  LIG1        0.0218
     11 C          -0.7689    1.7264   -0.0705 C.2     1  LIG1        0.1223
     12 O          -1.0189    3.0605   -0.3497 O.2     1  LIG1       -0.5064
     13 C          -0.6261    0.8591   -1.0873 C.2     1  LIG1       -0.0158
     14 C          -0.4186   -0.6545   -0.8931 C.3     1  LIG1        0.0506
     15 C          -1.4002   -1.4507   -1.8015 C.3     1  LIG1       -0.0506
     16 C           1.0706   -0.8950   -1.3325 C.3     1  LIG1        0.0679
     17 H           1.7412   -0.4184   -0.6061 H       1  LIG1        0.0603
     18 O           1.4166   -2.2834   -1.3603 O.3     1  LIG1       -0.3908
     19 C           1.3762   -0.3705   -2.7568 C.3     1  LIG1       -0.0168
     20 C           0.9657    1.0947   -3.0389 C.3     1  LIG1       -0.0081
     21 C           0.9552    1.3059   -4.5696 C.3     1  LIG1       -0.0557
     22 C           1.9637    2.0236   -2.3374 C.2     1  LIG1       -0.0848
     23 C           2.8484    2.8597   -2.8992 C.2     1  LIG1       -0.1021
     24 C          -0.4739    1.3607   -2.5137 C.3     1  LIG1       -0.0184
     25 C          -0.2406    2.3656    2.1876 C.2     1  LIG1       -0.0892
     26 H          -1.8424   -0.2992    5.1021 H       1  LIG1        0.0236
     27 H          -2.8821   -0.0636    3.6877 H       1  LIG1        0.0236
     28 H          -1.7447    1.1863    4.1673 H       1  LIG1        0.0236
     29 H           0.7991   -0.9946    4.6225 H       1  LIG1        0.0236
     30 H           0.7564    0.6763    4.1452 H       1  LIG1        0.0236
     31 H           1.3821   -0.5233    3.0172 H       1  LIG1        0.0236
     32 H          -2.1497   -2.3067    3.0537 H       1  LIG1        0.0271
     33 H          -0.9308   -2.4522    4.3034 H       1  LIG1        0.0271
     34 H          -0.3610   -3.9722    2.5206 H       1  LIG1        0.0266
     35 H           0.8432   -2.6970    2.5106 H       1  LIG1        0.0266
     36 H          -1.5257   -3.0889    0.6508 H       1  LIG1        0.0294
     37 H           0.1705   -3.1028    0.2659 H       1  LIG1        0.0294
     38 H          -1.6095    3.3862    0.3516 H       1  LIG1        0.2921
     39 H          -2.4422   -1.2195   -1.5504 H       1  LIG1        0.0240
     40 H          -1.2713   -2.5321   -1.6859 H       1  LIG1        0.0240
     41 H          -1.2716   -1.2438   -2.8672 H       1  LIG1        0.0240
     42 H           2.3653   -2.3435   -1.5687 H       1  LIG1        0.2098
     43 H           0.8874   -1.0370   -3.4813 H       1  LIG1        0.0299
     44 H           2.4491   -0.5051   -2.9582 H       1  LIG1        0.0299
     45 H           0.2217    0.6496   -5.0530 H       1  LIG1        0.0238
     46 H           1.9307    1.0800   -5.0155 H       1  LIG1        0.0238
     47 H           0.6890    2.3369   -4.8305 H       1  LIG1        0.0238
     48 H           1.9436    2.0057   -1.2471 H       1  LIG1        0.0572
     49 H           2.9585    2.9707   -3.9719 H       1  LIG1        0.0532
     50 H           3.4945    3.4716   -2.2760 H       1  LIG1        0.0532
     51 H          -1.2219    0.8758   -3.1511 H       1  LIG1        0.0320
     52 H          -0.6934    2.4323   -2.6022 H       1  LIG1        0.0320
     53 H          -0.1231    2.2453    3.2523 H       1  LIG1        0.0540
     54 H           0.0072    3.3630    1.8336 H       1  LIG1        0.0540
@<TRIPOS>BOND
     1     1     2    1
     2     2     3    1
     3     2     4    1
     4     4     5    1
     5     5     6    1
     6     6     7    1
     7     7     8    1
     8     7     9    1
     9     8     9    1
    10     2     9    1
    11     9    10    1
    12    10    11    1
    13    11    12    1
    14    11    13    2
    15    13    14    1
    16    14    15    1
    17     7    14    1
    18    14    16    1
    19    16    17    1
    20    16    18    1
    21    16    19    1
    22    19    20    1
    23    22    23    2
    24    20    24    1
    25    13    24    1
    26    10    25    2
    27    20    22    1
    28    20    21    1
    29     1    26    1
    30     1    27    1
    31     1    28    1
    32     3    29    1
    33     3    30    1
    34     3    31    1
    35     4    32    1
    36     4    33    1
    37     5    34    1
    38     5    35    1
    39     6    36    1
    40     6    37    1
    41    12    38    1
    42    15    39    1
    43    15    40    1
    44    15    41    1
    45    18    42    1
    46    19    43    1
    47    19    44    1
    48    21    45    1
    49    21    46    1
    50    21    47    1
    51    22    48    1
    52    23    49    1
    53    23    50    1
    54    24    51    1
    55    24    52    1
    56    25    53    1
    57    25    54    1
