@<TRIPOS>MOLECULE
NuBBE_1999
 48 50 0 0 0
SMALL
GASTEIGER

@<TRIPOS>ATOM
      1 C          -2.9979   -0.4056   -1.3227 C.3     1  LIG1       -0.0327
      2 C          -1.5536   -0.6778   -1.6304 C.ar    1  LIG1        0.0340
      3 C          -0.6770    0.4152   -1.7984 C.ar    1  LIG1        0.1418
      4 C           0.6299    0.2303   -2.2529 C.ar    1  LIG1        0.1012
      5 C           1.4347    1.4278   -2.5765 C.2     1  LIG1        0.1740
      6 C           0.8251    2.7658   -2.2716 C.3     1  LIG1        0.0520
      7 C          -0.1276    2.6033   -1.0924 C.3     1  LIG1        0.1323
      8 H          -0.6446    3.5616   -0.9525 H       1  LIG1        0.0789
      9 C           0.4930    2.2720    0.2686 C.ar    1  LIG1       -0.0033
     10 C           1.7764    2.7053    0.6210 C.ar    1  LIG1       -0.0514
     11 C           2.3012    2.4245    1.8851 C.ar    1  LIG1       -0.0159
     12 C           1.5660    1.7040    2.8311 C.ar    1  LIG1        0.1615
     13 O           2.2191    1.5521    4.0269 O.3     1  LIG1       -0.4915
     14 C           1.9317    0.3723    4.7671 C.3     1  LIG1        0.0790
     15 C           0.2709    1.2767    2.5103 C.ar    1  LIG1        0.1619
     16 O          -0.4798    0.6752    3.4856 O.3     1  LIG1       -0.4914
     17 C          -1.4448   -0.2733    3.0487 C.3     1  LIG1        0.0790
     18 C          -0.2538    1.5768    1.2416 C.ar    1  LIG1       -0.0096
     19 O          -1.1600    1.6676   -1.4828 O.3     1  LIG1       -0.4826
     20 O           2.5259    1.3090   -3.1298 O.2     1  LIG1       -0.2917
     21 C           1.1381   -1.0556   -2.4089 C.ar    1  LIG1        0.1372
     22 O           2.4257   -1.2732   -2.8370 O.3     1  LIG1       -0.5056
     23 C           0.3350   -2.1691   -2.1247 C.ar    1  LIG1        0.0337
     24 C           0.9162   -3.5616   -2.1545 C.3     1  LIG1       -0.0327
     25 C          -1.0228   -1.9815   -1.7627 C.ar    1  LIG1        0.1329
     26 O          -1.7568   -3.1377   -1.6908 O.3     1  LIG1       -0.4943
     27 C          -2.6644   -3.2870   -0.6086 C.3     1  LIG1        0.0788
     28 H          -3.2863    0.6276   -1.5301 H       1  LIG1        0.0280
     29 H          -3.2055   -0.5942   -0.2636 H       1  LIG1        0.0280
     30 H          -3.6475   -1.0205   -1.9568 H       1  LIG1        0.0280
     31 H           0.2827    3.0922   -3.1660 H       1  LIG1        0.0385
     32 H           1.6168    3.4908   -2.0667 H       1  LIG1        0.0385
     33 H           2.3960    3.2810   -0.0614 H       1  LIG1        0.0623
     34 H           3.2987    2.7766    2.1406 H       1  LIG1        0.0655
     35 H           2.7112    0.2631    5.5279 H       1  LIG1        0.0660
     36 H           1.9583   -0.5214    4.1340 H       1  LIG1        0.0660
     37 H           0.9831    0.4600    5.3030 H       1  LIG1        0.0660
     38 H          -1.7938   -0.8174    3.9317 H       1  LIG1        0.0660
     39 H          -1.0072   -1.0009    2.3567 H       1  LIG1        0.0660
     40 H          -2.3141    0.2219    2.6056 H       1  LIG1        0.0660
     41 H          -1.2752    1.2955    1.0015 H       1  LIG1        0.0659
     42 H           2.8188   -0.4054   -3.0918 H       1  LIG1        0.2922
     43 H           1.9654   -3.5772   -2.4653 H       1  LIG1        0.0280
     44 H           0.3606   -4.2007   -2.8480 H       1  LIG1        0.0280
     45 H           0.8766   -3.9941   -1.1477 H       1  LIG1        0.0280
     46 H          -2.7832   -4.3604   -0.4186 H       1  LIG1        0.0660
     47 H          -3.6545   -2.9152   -0.8864 H       1  LIG1        0.0660
     48 H          -2.3066   -2.8183    0.3125 H       1  LIG1        0.0660
@<TRIPOS>BOND
     1     1     2    1
     2     2     3   ar
     3     3     4   ar
     4     4     5    1
     5     5     6    1
     6     6     7    1
     7     9    10   ar
     8    10    11   ar
     9    11    12   ar
    10    12    13    1
    11    13    14    1
    12    12    15   ar
    13    15    16    1
    14    16    17    1
    15    15    18   ar
    16     9    18   ar
    17     7    19    1
    18     3    19    1
    19     5    20    2
    20     4    21   ar
    21    21    22    1
    22    21    23   ar
    23    23    24    1
    24    23    25   ar
    25     2    25   ar
    26    25    26    1
    27    26    27    1
    28     7     9    1
    29     7     8    1
    30     1    28    1
    31     1    29    1
    32     1    30    1
    33     6    31    1
    34     6    32    1
    35    10    33    1
    36    11    34    1
    37    14    35    1
    38    14    36    1
    39    14    37    1
    40    17    38    1
    41    17    39    1
    42    17    40    1
    43    18    41    1
    44    22    42    1
    45    24    43    1
    46    24    44    1
    47    24    45    1
    48    27    46    1
    49    27    47    1
    50    27    48    1
