REMARK  Name = NuBBE_2098
REMARK  7 active torsions:
REMARK  status: ('A' for Active; 'I' for Inactive)
REMARK    1  A    between atoms: C_1  and  C_2
REMARK    2  A    between atoms: C_1  and  C_4
REMARK    3  A    between atoms: C_5  and  O_6
REMARK    4  A    between atoms: C_8  and  C_13
REMARK    5  A    between atoms: C_10  and  C_12
REMARK    6  A    between atoms: C_17  and  O_19
REMARK    7  A    between atoms: O_19  and  C_20
REMARK                            x       y       z     vdW  Elec       q    Type
REMARK                         _______ _______ _______ _____ _____    ______ ____
ROOT
ATOM      1  C   LIG A   1      -0.800   1.954   0.792  0.00  0.00    +0.044 C 
ATOM      2  C   LIG A   1       0.579   1.543   1.346  0.00  0.00    +0.239 C 
ATOM      3  O   LIG A   1       1.347   1.249   0.200  0.00  0.00    -0.334 OA
ATOM      4  C   LIG A   1       0.483   0.561  -0.747  0.00  0.00    +0.156 C 
ATOM      5  C   LIG A   1      -0.991   0.882  -0.319  0.00  0.00    +0.032 C 
ATOM      6  C   LIG A   1      -1.884  -0.292   0.086  0.00  0.00    +0.011 C 
ATOM      7  C   LIG A   1       1.062   2.578   2.404  0.00  0.00    +0.215 C 
ATOM      8  O   LIG A   1       2.221   2.927   2.550  0.00  0.00    -0.287 OA
ATOM      9  C   LIG A   1       0.001   3.074   3.352  0.00  0.00    +0.048 C 
ATOM     10  C   LIG A   1      -1.290   2.768   3.147  0.00  0.00    -0.022 C 
ATOM     11  C   LIG A   1      -1.797   1.960   1.975  0.00  0.00    +0.040 C 
ENDROOT
BRANCH   4  12
ATOM     12  C   LIG A   1       0.922  -0.888  -0.935  0.00  0.00    -0.011 A 
ATOM     13  C   LIG A   1       2.067  -1.395  -0.297  0.00  0.00    +0.056 A 
ATOM     14  C   LIG A   1       2.418  -2.718  -0.497  0.00  0.00    +0.170 A 
ATOM     15  C   LIG A   1       1.692  -3.564  -1.305  0.00  0.00    +0.207 A 
ATOM     16  C   LIG A   1       0.578  -3.104  -1.981  0.00  0.00    +0.166 A 
ATOM     17  C   LIG A   1       0.219  -1.755  -1.806  0.00  0.00    +0.056 A 
ATOM     18  O   LIG A   1       2.212  -4.823  -1.300  0.00  0.00    -0.449 OA
ATOM     19  C   LIG A   1       3.370  -4.655  -0.460  0.00  0.00    +0.467 C 
ATOM     20  O   LIG A   1       3.490  -3.329   0.082  0.00  0.00    -0.453 OA
BRANCH  16  21
ATOM     21  O   LIG A   1      -0.268  -3.822  -2.778  0.00  0.00    -0.491 OA
ATOM     22  C   LIG A   1       0.289  -4.952  -3.438  0.00  0.00    +0.277 C 
ENDBRANCH  16  21
ENDBRANCH   4  12
BRANCH   2  23
ATOM     23  O   LIG A   1       0.497   0.316   2.085  0.00  0.00    -0.358 OA
ATOM     24  H   LIG A   1       1.413   0.154   2.378  0.00  0.00    +0.213 HD
ENDBRANCH   2  23
BRANCH   1  25
ATOM     25  C   LIG A   1      -0.740   3.381   0.120  0.00  0.00    +0.040 C 
BRANCH  25  26
ATOM     26  C   LIG A   1      -2.046   3.854  -0.477  0.00  0.00    -0.034 C 
ATOM     27  C   LIG A   1      -2.933   4.625   0.167  0.00  0.00    +0.004 C 
ENDBRANCH  25  26
ENDBRANCH   1  25
TORSDOF 5
