@<TRIPOS>MOLECULE
NuBBE_254
 23 24 0 0 0
SMALL
GASTEIGER

@<TRIPOS>ATOM
      1 O          -2.7787   -1.6238   -0.0716 O.3     1  LIG1       -0.5061
      2 C          -1.4126   -1.5358   -0.0832 C.ar    1  LIG1        0.1277
      3 C          -0.7187   -0.3178   -0.0518 C.ar    1  LIG1        0.0644
      4 C           0.6875   -0.3095   -0.0911 C.ar    1  LIG1       -0.0052
      5 C           1.4706    0.9791   -0.0647 C.3     1  LIG1        0.0813
      6 H           2.3405    0.8984   -0.7270 H       1  LIG1        0.0644
      7 O           1.9484    1.2165    1.2545 O.3     1  LIG1       -0.3871
      8 C           0.6355    2.1772   -0.5071 C.3     1  LIG1       -0.0157
      9 C          -0.6789    2.2328    0.2558 C.3     1  LIG1        0.0132
     10 C          -1.4672    0.9630    0.0468 C.2     1  LIG1        0.1671
     11 O          -2.6974    0.9543    0.0176 O.2     1  LIG1       -0.2919
     12 C           1.3735   -1.5369   -0.1303 C.ar    1  LIG1       -0.0552
     13 C           0.6737   -2.7443   -0.1417 C.ar    1  LIG1       -0.0579
     14 C          -0.7193   -2.7437   -0.1245 C.ar    1  LIG1       -0.0195
     15 H          -3.1401   -0.7081   -0.0577 H       1  LIG1        0.2922
     16 H           2.2541    0.3701    1.6234 H       1  LIG1        0.2102
     17 H           0.4287    2.1068   -1.5825 H       1  LIG1        0.0297
     18 H           1.1887    3.1074   -0.3327 H       1  LIG1        0.0297
     19 H          -1.2740    3.0763   -0.1105 H       1  LIG1        0.0346
     20 H          -0.5194    2.3682    1.3313 H       1  LIG1        0.0346
     21 H           2.4620   -1.5601   -0.1514 H       1  LIG1        0.0621
     22 H           1.2119   -3.6888   -0.1643 H       1  LIG1        0.0619
     23 H          -1.2688   -3.6813   -0.1374 H       1  LIG1        0.0654
@<TRIPOS>BOND
     1     1     2    1
     2     2     3   ar
     3     3     4   ar
     4     4     5    1
     5     5     6    1
     6     5     7    1
     7     5     8    1
     8     8     9    1
     9     9    10    1
    10     3    10    1
    11    10    11    2
    12     4    12   ar
    13    12    13   ar
    14    13    14   ar
    15     2    14   ar
    16     1    15    1
    17     7    16    1
    18     8    17    1
    19     8    18    1
    20     9    19    1
    21     9    20    1
    22    12    21    1
    23    13    22    1
    24    14    23    1
