@<TRIPOS>MOLECULE
NuBBE_1856
 47 49 0 0 0
SMALL
GASTEIGER

@<TRIPOS>ATOM
      1 O           3.2614    1.2854    6.7516 O.3     1  LIG1       -0.5068
      2 C           2.4609    1.1330    5.6581 C.ar    1  LIG1        0.1169
      3 C           2.9935    0.8636    4.4015 C.ar    1  LIG1       -0.0199
      4 C           2.1335    0.6876    3.3135 C.ar    1  LIG1       -0.0551
      5 C           0.7427    0.7719    3.4804 C.ar    1  LIG1       -0.0471
      6 C           0.2290    1.0697    4.7508 C.ar    1  LIG1       -0.0551
      7 C           1.0884    1.2465    5.8378 C.ar    1  LIG1       -0.0199
      8 C          -0.1854    0.5078    2.3173 C.3     1  LIG1       -0.0253
      9 C          -0.5002    1.7606    1.4898 C.3     1  LIG1       -0.0226
     10 C          -1.4721    1.4468    0.3400 C.3     1  LIG1        0.0598
     11 H          -2.3969    1.0313    0.7605 H       1  LIG1        0.0596
     12 O          -0.8704    0.4639   -0.5045 O.3     1  LIG1       -0.3688
     13 C          -1.7278    0.0232   -1.5683 C.3     1  LIG1        0.0840
     14 H          -2.6330   -0.4014   -1.1148 H       1  LIG1        0.0646
     15 C          -2.0913    1.2039   -2.4775 C.3     1  LIG1       -0.0223
     16 C          -2.6928    2.3465   -1.6625 C.3     1  LIG1       -0.0481
     17 C          -1.7899    2.6987   -0.4825 C.3     1  LIG1       -0.0265
     18 C          -1.0158   -1.0735   -2.3388 C.ar    1  LIG1       -0.0187
     19 C           0.3816   -1.0796   -2.4444 C.ar    1  LIG1       -0.0527
     20 C           1.0493   -2.0909   -3.1395 C.ar    1  LIG1       -0.0196
     21 C           0.3293   -3.1145   -3.7542 C.ar    1  LIG1        0.1201
     22 O           0.8778   -4.1553   -4.4551 O.3     1  LIG1       -0.4951
     23 C           2.3003   -4.1869   -4.5167 C.3     1  LIG1        0.0788
     24 C          -1.0632   -3.1114   -3.6698 C.ar    1  LIG1       -0.0196
     25 C          -1.7353   -2.0994   -2.9679 C.ar    1  LIG1       -0.0527
     26 H           4.1803    1.1204    6.4857 H       1  LIG1        0.2921
     27 H           4.0645    0.7762    4.2510 H       1  LIG1        0.0654
     28 H           2.5524    0.4627    2.3355 H       1  LIG1        0.0621
     29 H          -0.8440    1.1442    4.9074 H       1  LIG1        0.0621
     30 H           0.6862    1.4572    6.8248 H       1  LIG1        0.0654
     31 H          -1.1175    0.0723    2.6986 H       1  LIG1        0.0314
     32 H           0.2657   -0.2662    1.6835 H       1  LIG1        0.0314
     33 H           0.4366    2.1634    1.0833 H       1  LIG1        0.0293
     34 H          -0.9335    2.5347    2.1350 H       1  LIG1        0.0293
     35 H          -2.7922    0.8939   -3.2618 H       1  LIG1        0.0293
     36 H          -1.1914    1.5797   -2.9825 H       1  LIG1        0.0293
     37 H          -3.6810    2.0491   -1.2904 H       1  LIG1        0.0267
     38 H          -2.8409    3.2258   -2.2992 H       1  LIG1        0.0267
     39 H          -2.2686    3.4612    0.1415 H       1  LIG1        0.0290
     40 H          -0.8607    3.1294   -0.8776 H       1  LIG1        0.0290
     41 H           0.9684   -0.2992   -1.9672 H       1  LIG1        0.0622
     42 H           2.1302   -2.0474   -3.1699 H       1  LIG1        0.0654
     43 H           2.5990   -5.0688   -5.0900 H       1  LIG1        0.0660
     44 H           2.7355   -4.2783   -3.5153 H       1  LIG1        0.0660
     45 H           2.6904   -3.3049   -5.0365 H       1  LIG1        0.0660
     46 H          -1.6326   -3.9049   -4.1474 H       1  LIG1        0.0654
     47 H          -2.8203   -2.1279   -2.9133 H       1  LIG1        0.0622
@<TRIPOS>BOND
     1     1     2    1
     2     2     3   ar
     3     3     4   ar
     4     4     5   ar
     5     5     6   ar
     6     6     7   ar
     7     2     7   ar
     8     5     8    1
     9     8     9    1
    10    10    12    1
    11    12    13    1
    12    13    14    1
    13    13    15    1
    14    15    16    1
    15    16    17    1
    16    10    17    1
    17    13    18    1
    18    18    19   ar
    19    19    20   ar
    20    20    21   ar
    21    21    22    1
    22    22    23    1
    23    21    24   ar
    24    24    25   ar
    25    18    25   ar
    26    10    11    1
    27    10     9    1
    28     1    26    1
    29     3    27    1
    30     4    28    1
    31     6    29    1
    32     7    30    1
    33     8    31    1
    34     8    32    1
    35     9    33    1
    36     9    34    1
    37    15    35    1
    38    15    36    1
    39    16    37    1
    40    16    38    1
    41    17    39    1
    42    17    40    1
    43    19    41    1
    44    20    42    1
    45    23    43    1
    46    23    44    1
    47    23    45    1
    48    24    46    1
    49    25    47    1
