@<TRIPOS>MOLECULE
NuBBE_465
 39 40 0 0 0
SMALL
GASTEIGER

@<TRIPOS>ATOM
      1 O           0.0019    0.3139   -2.8808 O.2     1  LIG1       -0.2875
      2 C           0.1294    0.2131   -1.6590 C.2     1  LIG1        0.2139
      3 C          -0.5483    1.1937   -0.6689 C.3     1  LIG1        0.2130
      4 O           0.2845    2.0739    0.1192 O.3     1  LIG1       -0.4463
      5 C           1.2472    2.8024   -0.4964 C.2     1  LIG1        0.3050
      6 C           1.6615    3.9281    0.4043 C.3     1  LIG1        0.0333
      7 O           1.6626    2.6175   -1.6314 O.2     1  LIG1       -0.2511
      8 C          -1.5319    2.1091   -1.4141 C.3     1  LIG1       -0.0134
      9 C          -1.2627    0.2602    0.3460 C.3     1  LIG1        0.1779
     10 H          -1.8317    0.8370    1.0881 H       1  LIG1        0.0832
     11 O          -2.1191   -0.7069   -0.3046 O.3     1  LIG1       -0.4521
     12 C          -3.3487   -0.2985   -0.7170 C.2     1  LIG1        0.3047
     13 C          -3.9955   -1.3930   -1.5119 C.3     1  LIG1        0.0333
     14 O          -3.8533    0.7784   -0.4831 O.2     1  LIG1       -0.2511
     15 C          -0.1808   -0.5416    1.0509 C.2     1  LIG1        0.0399
     16 C          -0.0634   -0.6475    2.3870 C.2     1  LIG1        0.0994
     17 O           0.9355   -1.3589    3.0279 O.2     1  LIG1       -0.4677
     18 C           1.8092   -2.1158    2.2505 C.2     1  LIG1        0.1023
     19 C           2.8453   -2.8720    3.0211 C.3     1  LIG1       -0.0064
     20 C           1.7520   -2.1254    0.9058 C.2     1  LIG1       -0.0155
     21 C           0.8407   -1.2084    0.2178 C.2     1  LIG1        0.0015
     22 C           0.9278   -0.9300   -1.1044 C.2     1  LIG1        0.0684
     23 C           1.7962   -1.6618   -2.0724 C.2     1  LIG1        0.1543
     24 O           2.2468   -2.7878   -1.8974 O.2     1  LIG1       -0.2956
     25 H           1.8986    3.5428    1.3991 H       1  LIG1        0.0342
     26 H           0.8448    4.6543    0.4660 H       1  LIG1        0.0342
     27 H           2.5486    4.4238    0.0023 H       1  LIG1        0.0342
     28 H          -1.0078    2.8473   -2.0295 H       1  LIG1        0.0274
     29 H          -2.1335    2.6828   -0.6988 H       1  LIG1        0.0274
     30 H          -2.1908    1.5632   -2.0935 H       1  LIG1        0.0274
     31 H          -3.2386   -1.9418   -2.0820 H       1  LIG1        0.0342
     32 H          -4.6939   -0.9550   -2.2304 H       1  LIG1        0.0342
     33 H          -4.5182   -2.0637   -0.8314 H       1  LIG1        0.0342
     34 H          -0.7212   -0.1896    3.1137 H       1  LIG1        0.1033
     35 H           3.6205   -2.1789    3.3665 H       1  LIG1        0.0308
     36 H           3.3318   -3.6401    2.4102 H       1  LIG1        0.0308
     37 H           2.4085   -3.3638    3.8947 H       1  LIG1        0.0308
     38 H           2.4566   -2.7354    0.3523 H       1  LIG1        0.0657
     39 H           1.9892   -1.1257   -3.0163 H       1  LIG1        0.1083
@<TRIPOS>BOND
     1     1     2    2
     2     2     3    1
     3     3     4    1
     4     4     5    1
     5     5     6    1
     6     5     7    2
     7     3     8    1
     8     3     9    1
     9     9    10    1
    10     9    11    1
    11    11    12    1
    12    12    13    1
    13    12    14    2
    14     9    15    1
    15    15    16    2
    16    16    17    1
    17    17    18    1
    18    18    19    1
    19    18    20    2
    20    20    21    1
    21    15    21    1
    22    21    22    2
    23     2    22    1
    24    22    23    1
    25    23    24    2
    26     6    25    1
    27     6    26    1
    28     6    27    1
    29     8    28    1
    30     8    29    1
    31     8    30    1
    32    13    31    1
    33    13    32    1
    34    13    33    1
    35    16    34    1
    36    19    35    1
    37    19    36    1
    38    19    37    1
    39    20    38    1
    40    23    39    1
