@<TRIPOS>MOLECULE
NuBBE_2412
 86 88 0 0 0
SMALL
GASTEIGER

@<TRIPOS>ATOM
      1 C           3.4647   -1.0386    0.7172 C.3     1  LIG1       -0.0276
      2 C           2.0423   -0.6494    1.0748 C.3     1  LIG1       -0.0491
      3 C           1.3973   -1.2166    2.3461 C.3     1  LIG1       -0.0528
      4 C           1.3108   -2.7105    2.4540 C.3     1  LIG1       -0.0530
      5 C           0.6451   -3.4493    1.2733 C.3     1  LIG1       -0.0531
      6 C          -0.8616   -3.3940    0.9562 C.3     1  LIG1       -0.0531
      7 C          -1.5028   -2.1336    0.5184 C.3     1  LIG1       -0.0531
      8 C          -1.0286   -1.7547   -0.8073 C.3     1  LIG1       -0.0531
      9 C          -1.8771   -0.6235   -1.2155 C.3     1  LIG1       -0.0531
     10 C          -3.2939   -0.6294   -1.7188 C.3     1  LIG1       -0.0531
     11 C          -4.3642    0.1600   -0.9846 C.3     1  LIG1       -0.0531
     12 C          -4.3842    1.4418   -0.0844 C.3     1  LIG1       -0.0531
     13 C          -3.2795    1.6168    0.9065 C.3     1  LIG1       -0.0531
     14 C          -3.0728    0.4963    1.8428 C.3     1  LIG1       -0.0531
     15 C          -1.8056    0.7740    2.6423 C.3     1  LIG1       -0.0531
     16 C          -0.4744    1.0266    1.8818 C.3     1  LIG1       -0.0531
     17 C          -0.0251    2.2317    1.0075 C.3     1  LIG1       -0.0530
     18 C          -0.6037    2.5959   -0.4216 C.3     1  LIG1       -0.0522
     19 C          -0.3944    1.5022   -1.4868 C.3     1  LIG1       -0.0376
     20 C          -1.4417    1.4359   -2.9582 C.3     1  LIG1        0.0857
     21 H          -0.9995    2.2620   -3.5367 H       1  LIG1        0.0440
     22 C          -1.4083   -0.0279   -3.9686 C.3     1  LIG1        0.1046
     23 H          -0.5314    0.0677   -4.6041 H       1  LIG1        0.0638
     24 O          -1.1623   -1.4232   -3.5726 O.3     1  LIG1       -0.3873
     25 C          -2.8011   -0.1100   -4.6244 C.3     1  LIG1        0.1268
     26 H          -3.2754   -1.1278   -4.5048 H       1  LIG1        0.0757
     27 O          -3.6531    0.9560   -4.1231 O.3     1  LIG1       -0.4587
     28 C          -3.0355    1.8050   -3.2288 C.2     1  LIG1        0.3132
     29 O          -3.8572    2.7358   -2.5449 O.2     1  LIG1       -0.2504
     30 C          -2.6719    0.1094   -6.0804 C.3     1  LIG1       -0.0252
     31 C           4.6007   -0.4215    1.4934 C.ar    1  LIG1       -0.0437
     32 C           4.5884    0.9181    1.9163 C.ar    1  LIG1       -0.0130
     33 C           5.7600    1.4572    2.4081 C.ar    1  LIG1        0.1665
     34 C           6.9172    0.7218    2.5025 C.ar    1  LIG1        0.1662
     35 C           6.9658   -0.5987    2.1183 C.ar    1  LIG1       -0.0159
     36 C           5.7962   -1.1687    1.6082 C.ar    1  LIG1       -0.0549
     37 O           7.9593    1.4548    2.9785 O.3     1  LIG1       -0.4526
     38 C           7.2949    2.7007    3.2751 C.3     1  LIG1        0.2332
     39 O           5.9322    2.7475    2.8053 O.3     1  LIG1       -0.4526
     40 H           3.6261   -0.7025   -0.3185 H       1  LIG1        0.0313
     41 H           3.5422   -2.1287    0.7024 H       1  LIG1        0.0313
     42 H           1.4407   -0.9346    0.2199 H       1  LIG1        0.0268
     43 H           2.0071    0.4327    1.0970 H       1  LIG1        0.0268
     44 H           0.3425   -1.0013    2.4488 H       1  LIG1        0.0265
     45 H           1.8334   -0.7214    3.2218 H       1  LIG1        0.0265
     46 H           0.7779   -2.9408    3.3850 H       1  LIG1        0.0265
     47 H           2.3399   -3.0554    2.5703 H       1  LIG1        0.0265
     48 H           0.7917   -4.5060    1.5069 H       1  LIG1        0.0265
     49 H           1.2220   -3.2518    0.3633 H       1  LIG1        0.0265
     50 H          -1.4633   -3.7192    1.7988 H       1  LIG1        0.0265
     51 H          -1.0377   -4.0889    0.1237 H       1  LIG1        0.0265
     52 H          -1.3442   -1.3664    1.2514 H       1  LIG1        0.0265
     53 H          -2.5843   -2.2650    0.3895 H       1  LIG1        0.0265
     54 H          -1.0936   -2.5722   -1.5114 H       1  LIG1        0.0265
     55 H           0.0250   -1.4438   -0.8504 H       1  LIG1        0.0265
     56 H          -1.1537   -0.3413   -1.9497 H       1  LIG1        0.0265
     57 H          -1.9254    0.2014   -0.5620 H       1  LIG1        0.0265
     58 H          -3.6277   -1.3510   -2.3879 H       1  LIG1        0.0265
     59 H          -3.0161    0.1235   -2.4843 H       1  LIG1        0.0265
     60 H          -4.5756   -0.6652   -0.3227 H       1  LIG1        0.0265
     61 H          -5.1855    0.2796   -1.7029 H       1  LIG1        0.0265
     62 H          -5.3248    1.3867    0.4653 H       1  LIG1        0.0265
     63 H          -4.4430    2.4223   -0.5744 H       1  LIG1        0.0265
     64 H          -3.2502    2.6058    1.3753 H       1  LIG1        0.0265
     65 H          -2.3956    1.5456    0.3430 H       1  LIG1        0.0265
     66 H          -2.9793   -0.3947    1.2370 H       1  LIG1        0.0265
     67 H          -3.9579    0.3311    2.4521 H       1  LIG1        0.0265
     68 H          -1.6834   -0.1130    3.2881 H       1  LIG1        0.0265
     69 H          -1.9681    1.6268    3.2976 H       1  LIG1        0.0265
     70 H          -0.3094    0.1783    1.2364 H       1  LIG1        0.0265
     71 H           0.2738    0.9883    2.6972 H       1  LIG1        0.0265
     72 H           1.0299    2.0300    0.7816 H       1  LIG1        0.0265
     73 H          -0.0321    3.0957    1.6680 H       1  LIG1        0.0265
     74 H          -0.1420    3.4929   -0.8075 H       1  LIG1        0.0265
     75 H          -1.6369    2.8947   -0.3057 H       1  LIG1        0.0265
     76 H          -0.3489    0.6934   -0.7557 H       1  LIG1        0.0274
     77 H           0.6440    1.2424   -1.7701 H       1  LIG1        0.0274
     78 H          -1.9162   -1.8350   -3.0920 H       1  LIG1        0.2100
     79 H          -1.8608   -0.5002   -6.4798 H       1  LIG1        0.0266
     80 H          -2.4620    1.1723   -6.1672 H       1  LIG1        0.0266
     81 H          -3.6148   -0.1331   -6.5789 H       1  LIG1        0.0266
     82 H           3.7139    1.5516    1.8247 H       1  LIG1        0.0658
     83 H           7.8842   -1.1702    2.1792 H       1  LIG1        0.0655
     84 H           5.8236   -2.1970    1.2515 H       1  LIG1        0.0621
     85 H           7.8581    3.5248    2.8219 H       1  LIG1        0.1166
     86 H           7.2874    2.8388    4.3627 H       1  LIG1        0.1166
@<TRIPOS>BOND
     1     1     2    1
     2     2     3    1
     3     3     4    1
     4     4     5    1
     5     5     6    1
     6     6     7    1
     7     7     8    1
     8     8     9    1
     9     9    10    1
    10    10    11    1
    11    11    12    1
    12    12    13    1
    13    13    14    1
    14    14    15    1
    15    15    16    1
    16    16    17    1
    17    17    18    1
    18    18    19    1
    19    19    20    1
    20    20    21    1
    21    20    22    1
    22    22    23    1
    23    22    24    1
    24    22    25    1
    25    25    26    1
    26    25    27    1
    27    27    28    1
    28    20    28    1
    29    28    29    2
    30    25    30    1
    31     1    31    1
    32    31    32   ar
    33    32    33   ar
    34    33    34   ar
    35    34    35   ar
    36    35    36   ar
    37    31    36   ar
    38    34    37    1
    39    37    38    1
    40    38    39    1
    41    33    39    1
    42     1    40    1
    43     1    41    1
    44     2    42    1
    45     2    43    1
    46     3    44    1
    47     3    45    1
    48     4    46    1
    49     4    47    1
    50     5    48    1
    51     5    49    1
    52     6    50    1
    53     6    51    1
    54     7    52    1
    55     7    53    1
    56     8    54    1
    57     8    55    1
    58     9    56    1
    59     9    57    1
    60    10    58    1
    61    10    59    1
    62    11    60    1
    63    11    61    1
    64    12    62    1
    65    12    63    1
    66    13    64    1
    67    13    65    1
    68    14    66    1
    69    14    67    1
    70    15    68    1
    71    15    69    1
    72    16    70    1
    73    16    71    1
    74    17    72    1
    75    17    73    1
    76    18    74    1
    77    18    75    1
    78    19    76    1
    79    19    77    1
    80    24    78    1
    81    30    79    1
    82    30    80    1
    83    30    81    1
    84    32    82    1
    85    35    83    1
    86    36    84    1
    87    38    85    1
    88    38    86    1
