REMARK  Name = NuBBE_1813
REMARK  10 active torsions:
REMARK  status: ('A' for Active; 'I' for Inactive)
REMARK    1  A    between atoms: C_1  and  C_2
REMARK    2  A    between atoms: C_2  and  C_3
REMARK    3  A    between atoms: C_4  and  C_5
REMARK    4  A    between atoms: C_5  and  C_6
REMARK    5  A    between atoms: C_7  and  O_8
REMARK    6  A    between atoms: O_8  and  C_9
REMARK    7  A    between atoms: C_11  and  C_12
REMARK    8  A    between atoms: C_13  and  C_14
REMARK    9  A    between atoms: C_21  and  O_22
REMARK   10  A    between atoms: O_22  and  C_23
REMARK                            x       y       z     vdW  Elec       q    Type
REMARK                         _______ _______ _______ _____ _____    ______ ____
ROOT
ATOM      1  C   LIG A   1      -0.676   1.627   0.812  0.00  0.00    +0.040 A 
ATOM      2  C   LIG A   1       0.549   1.132   1.323  0.00  0.00    +0.128 A 
ATOM      3  C   LIG A   1       0.840  -0.239   1.230  0.00  0.00    +0.054 A 
ATOM      4  C   LIG A   1      -0.054  -1.121   0.638  0.00  0.00    -0.018 A 
ATOM      5  C   LIG A   1      -1.258  -0.654   0.138  0.00  0.00    +0.054 A 
ATOM      6  C   LIG A   1      -1.595   0.702   0.247  0.00  0.00    +0.128 A 
ENDROOT
BRANCH   2   7
ATOM      7  O   LIG A   1       1.417   2.020   1.915  0.00  0.00    -0.495 OA
ATOM      8  C   LIG A   1       2.657   1.477   2.375  0.00  0.00    +0.277 C 
ENDBRANCH   2   7
BRANCH   4   9
ATOM      9  C   LIG A   1       0.273  -2.546   0.575  0.00  0.00    +0.009 C 
ATOM     10  C   LIG A   1       0.956  -3.076  -0.439  0.00  0.00    +0.008 C 
BRANCH  10  11
ATOM     11  C   LIG A   1       1.317  -4.501  -0.501  0.00  0.00    -0.025 A 
ATOM     12  C   LIG A   1       1.424  -5.135  -1.748  0.00  0.00    +0.008 A 
ATOM     13  C   LIG A   1       1.768  -6.485  -1.826  0.00  0.00    +0.001 A 
ATOM     14  C   LIG A   1       2.020  -7.212  -0.664  0.00  0.00    +0.000 A 
ATOM     15  C   LIG A   1       1.944  -6.591   0.576  0.00  0.00    +0.001 A 
ATOM     16  C   LIG A   1       1.600  -5.236   0.656  0.00  0.00    +0.008 A 
ENDBRANCH  10  11
ENDBRANCH   4   9
BRANCH   6  17
ATOM     17  O   LIG A   1      -2.811   1.194  -0.167  0.00  0.00    -0.495 OA
ATOM     18  C   LIG A   1      -3.761   0.245  -0.644  0.00  0.00    +0.277 C 
ENDBRANCH   6  17
BRANCH   1  19
ATOM     19  C   LIG A   1      -1.030   3.118   0.883  0.00  0.00    +0.069 C 
BRANCH  19  23
ATOM     20  C   LIG A   1      -1.161   5.470  -2.280  0.00  0.00    +0.038 C 
ATOM     21  C   LIG A   1      -0.978   5.048  -0.844  0.00  0.00    -0.079 C 
ATOM     22  C   LIG A   1      -0.537   6.157   0.068  0.00  0.00    +0.038 C 
ATOM     23  C   LIG A   1      -1.204   3.769  -0.476  0.00  0.00    -0.023 C 
ENDBRANCH  19  23
ENDBRANCH   1  19
TORSDOF 6
