REMARK  Name = NuBBE_1462
REMARK  13 active torsions:
REMARK  status: ('A' for Active; 'I' for Inactive)
REMARK    1  A    between atoms: C_3  and  C_4
REMARK    2  A    between atoms: C_3  and  C_41
REMARK    3  A    between atoms: C_5  and  C_36
REMARK    4  A    between atoms: C_7  and  C_35
REMARK    5  A    between atoms: C_9  and  C_13
REMARK    6  A    between atoms: C_15  and  O_31
REMARK    7  A    between atoms: C_17  and  C_30
REMARK    8  A    between atoms: C_22  and  C_24
REMARK    9  A    between atoms: O_31  and  C_32
REMARK   10  A    between atoms: C_32  and  C_33
REMARK   11  A    between atoms: C_36  and  C_37
REMARK   12  A    between atoms: C_37  and  O_38
REMARK   13  A    between atoms: O_38  and  C_39
REMARK                            x       y       z     vdW  Elec       q    Type
REMARK                         _______ _______ _______ _____ _____    ______ ____
ROOT
ATOM      1  O   LIG A   1       1.259  -4.157   3.892  0.00  0.00    -0.292 OA
ATOM      2  C   LIG A   1       1.181  -3.579   2.809  0.00  0.00    +0.165 C 
ATOM      3  C   LIG A   1       2.415  -3.251   1.955  0.00  0.00    +0.032 C 
ATOM      4  C   LIG A   1       2.610  -4.476   1.034  0.00  0.00    +0.019 C 
ATOM      5  C   LIG A   1       2.195  -1.896   1.143  0.00  0.00    +0.030 C 
ATOM      6  C   LIG A   1       0.799  -1.846   0.387  0.00  0.00    +0.055 C 
ATOM      7  C   LIG A   1       0.139  -0.522   0.026  0.00  0.00    -0.010 C 
ATOM      8  C   LIG A   1      -1.321  -0.582   0.439  0.00  0.00    +0.152 C 
ATOM      9  O   LIG A   1      -1.551  -1.953   0.858  0.00  0.00    -0.480 OA
ATOM     10  C   LIG A   1      -0.302  -2.467   1.200  0.00  0.00    +0.113 C 
ATOM     11  C   LIG A   1      -0.163  -3.240   2.281  0.00  0.00    +0.088 C 
ATOM     12  C   LIG A   1      -1.684   0.304   1.639  0.00  0.00    +0.066 C 
ATOM     13  C   LIG A   1       0.581   0.424  -0.819  0.00  0.00    +0.022 C 
ATOM     14  C   LIG A   1      -0.331   1.485  -1.407  0.00  0.00    +0.213 C 
ATOM     15  C   LIG A   1      -1.871   1.093  -1.517  0.00  0.00    +0.075 C 
ATOM     16  C   LIG A   1      -2.180  -0.234  -0.781  0.00  0.00    -0.002 C 
ATOM     17  C   LIG A   1      -3.110  -1.075  -1.269  0.00  0.00    +0.096 C 
ATOM     18  C   LIG A   1      -3.925  -0.771  -2.451  0.00  0.00    +0.333 C 
ATOM     19  O   LIG A   1      -3.543   0.290  -3.190  0.00  0.00    -0.452 OA
ATOM     20  C   LIG A   1      -2.216   0.849  -3.037  0.00  0.00    +0.224 C 
ATOM     21  O   LIG A   1      -4.912  -1.441  -2.720  0.00  0.00    -0.246 OA
ATOM     22  C   LIG A   1      -2.814   2.189  -0.952  0.00  0.00    +0.024 C 
ATOM     23  C   LIG A   1       0.890  -2.604  -0.970  0.00  0.00    +0.024 C 
ATOM     24  C   LIG A   1       3.669  -3.221   2.863  0.00  0.00    +0.019 C 
ENDROOT
BRANCH  20  25
ATOM     25  C   LIG A   1      -2.128   2.085  -3.913  0.00  0.00    +0.031 A 
ATOM     26  C   LIG A   1      -3.169   2.926  -4.269  0.00  0.00    +0.202 A 
ATOM     27  O   LIG A   1      -2.737   3.935  -5.064  0.00  0.00    -0.471 OA
ATOM     28  C   LIG A   1      -1.411   3.741  -5.261  0.00  0.00    +0.195 A 
ATOM     29  C   LIG A   1      -0.989   2.615  -4.595  0.00  0.00    +0.048 A 
ENDBRANCH  20  25
BRANCH  14  30
ATOM     30  O   LIG A   1      -0.147   2.698  -0.656  0.00  0.00    -0.456 OA
BRANCH  30  31
ATOM     31  C   LIG A   1       0.911   3.462  -1.051  0.00  0.00    +0.304 C 
ATOM     32  C   LIG A   1       0.898   4.796  -0.375  0.00  0.00    +0.136 C 
ATOM     33  O   LIG A   1       1.746   3.134  -1.883  0.00  0.00    -0.251 OA
ENDBRANCH  30  31
ENDBRANCH  14  30
BRANCH   5  34
ATOM     34  C   LIG A   1       2.542  -0.618   1.956  0.00  0.00    +0.126 C 
BRANCH  34  35
ATOM     35  C   LIG A   1       1.741  -0.345   3.211  0.00  0.00    +0.307 C 
ATOM     36  O   LIG A   1       0.791  -0.975   3.604  0.00  0.00    -0.251 OA
BRANCH  35  37
ATOM     37  O   LIG A   1       2.160   0.836   3.754  0.00  0.00    -0.468 OA
ATOM     38  C   LIG A   1       1.095   1.499   4.429  0.00  0.00    +0.280 C 
ENDBRANCH  35  37
ENDBRANCH  34  35
ENDBRANCH   5  34
TORSDOF 6
