REMARK  Name = NuBBE_478
REMARK  11 active torsions:
REMARK  status: ('A' for Active; 'I' for Inactive)
REMARK    1  A    between atoms: C_2  and  C_3
REMARK    2  A    between atoms: C_2  and  O_13
REMARK    3  A    between atoms: C_4  and  C_5
REMARK    4  A    between atoms: C_7  and  O_8
REMARK    5  A    between atoms: C_9  and  O_12
REMARK    6  A    between atoms: O_13  and  C_14
REMARK    7  A    between atoms: C_14  and  C_15
REMARK    8  A    between atoms: C_15  and  C_16
REMARK    9  A    between atoms: C_15  and  C_19
REMARK   10  A    between atoms: C_16  and  C_17
REMARK   11  A    between atoms: C_17  and  O_18
REMARK                            x       y       z     vdW  Elec       q    Type
REMARK                         _______ _______ _______ _____ _____    ______ ____
ROOT
ATOM      1  C   LIG A   1      -0.176   0.728  -0.630  0.00  0.00    +0.092 C 
ATOM      2  C   LIG A   1      -0.831   0.663  -1.799  0.00  0.00    +0.015 C 
ENDROOT
BRANCH   2   3
ATOM      3  C   LIG A   1      -0.120   0.668  -3.083  0.00  0.00    -0.021 A 
ATOM      4  C   LIG A   1       1.152   0.086  -3.197  0.00  0.00    +0.057 A 
ATOM      5  C   LIG A   1       1.829   0.132  -4.406  0.00  0.00    +0.159 A 
ATOM      6  C   LIG A   1       1.241   0.730  -5.514  0.00  0.00    +0.158 A 
ATOM      7  C   LIG A   1      -0.030   1.280  -5.435  0.00  0.00    +0.050 A 
ATOM      8  C   LIG A   1      -0.716   1.245  -4.216  0.00  0.00    +0.012 A 
BRANCH   5   9
ATOM      9  O   LIG A   1       3.082  -0.396  -4.544  0.00  0.00    -0.503 OA
ATOM     10  H   LIG A   1       3.345  -0.779  -3.688  0.00  0.00    +0.292 HD
ENDBRANCH   5   9
BRANCH   6  11
ATOM     11  O   LIG A   1       1.923   0.778  -6.695  0.00  0.00    -0.503 OA
ATOM     12  H   LIG A   1       2.778   0.346  -6.498  0.00  0.00    +0.292 HD
ENDBRANCH   6  11
ENDBRANCH   2   3
BRANCH   1  14
ATOM     13  O   LIG A   1      -2.115   0.693   0.745  0.00  0.00    -0.246 OA
ATOM     14  C   LIG A   1      -0.909   0.742   0.646  0.00  0.00    +0.332 C 
BRANCH  14  15
ATOM     15  O   LIG A   1       0.005   0.817   1.647  0.00  0.00    -0.461 OA
BRANCH  15  16
ATOM     16  C   LIG A   1      -0.512   0.955   2.982  0.00  0.00    +0.235 C 
BRANCH  16  17
ATOM     17  C   LIG A   1      -0.083  -0.229   3.864  0.00  0.00    +0.026 C 
ATOM     18  C   LIG A   1       1.438  -0.234   4.068  0.00  0.00    +0.011 C 
BRANCH  17  19
ATOM     19  C   LIG A   1      -0.558  -1.579   3.284  0.00  0.00    +0.034 C 
BRANCH  19  20
ATOM     20  C   LIG A   1      -2.079  -1.689   3.167  0.00  0.00    +0.156 C 
BRANCH  20  21
ATOM     21  O   LIG A   1      -2.690  -1.549   4.441  0.00  0.00    -0.395 OA
ATOM     22  H   LIG A   1      -2.459  -2.334   4.963  0.00  0.00    +0.209 HD
ENDBRANCH  20  21
ENDBRANCH  19  20
ENDBRANCH  17  19
ENDBRANCH  16  17
ENDBRANCH  15  16
ENDBRANCH  14  15
ENDBRANCH   1  14
TORSDOF 10
