REMARK  Name = NuBBE_2333
REMARK  5 active torsions:
REMARK  status: ('A' for Active; 'I' for Inactive)
REMARK    1  A    between atoms: C_1  and  C_2
REMARK    2  A    between atoms: C_10  and  C_11
REMARK    3  A    between atoms: C_10  and  O_12
REMARK    4  A    between atoms: C_19  and  C_20
REMARK    5  A    between atoms: C_19  and  C_21
REMARK                            x       y       z     vdW  Elec       q    Type
REMARK                         _______ _______ _______ _____ _____    ______ ____
ROOT
ATOM      1  C   LIG A   1      -2.301  -1.682  -1.746  0.00  0.00    +0.008 C 
ATOM      2  C   LIG A   1      -0.775  -1.590  -1.637  0.00  0.00    -0.010 C 
ATOM      3  C   LIG A   1      -0.145  -2.943  -1.290  0.00  0.00    +0.004 C 
ATOM      4  C   LIG A   1       0.261  -2.819   0.167  0.00  0.00    +0.007 C 
ATOM      5  C   LIG A   1      -0.388  -0.610  -0.487  0.00  0.00    +0.002 C 
ATOM      6  C   LIG A   1       0.685  -1.342   0.310  0.00  0.00    +0.024 C 
ATOM      7  C   LIG A   1       0.790  -0.883   1.780  0.00  0.00    +0.066 C 
ATOM      8  C   LIG A   1      -0.382  -1.314   2.683  0.00  0.00    +0.041 C 
ATOM      9  C   LIG A   1       0.993   0.644   1.845  0.00  0.00    +0.035 C 
ATOM     10  C   LIG A   1      -0.251   1.485   1.485  0.00  0.00    +0.007 C 
ATOM     11  C   LIG A   1      -0.473   1.779  -0.017  0.00  0.00    -0.001 C 
ATOM     12  C   LIG A   1      -0.158   0.785  -1.011  0.00  0.00    +0.002 C 
ATOM     13  C   LIG A   1       0.694   2.243  -0.869  0.00  0.00    -0.028 C 
ATOM     14  C   LIG A   1       0.681   2.755  -2.325  0.00  0.00    +0.011 C 
ATOM     15  C   LIG A   1       0.983   3.532  -0.047  0.00  0.00    +0.011 C 
ENDROOT
BRANCH   7  16
ATOM     16  O   LIG A   1       1.945  -1.516   2.358  0.00  0.00    -0.389 OA
ATOM     17  H   LIG A   1       2.710  -1.347   1.783  0.00  0.00    +0.210 HD
ENDBRANCH   7  16
TORSDOF 1
