REMARK  Name = NuBBE_210
REMARK  11 active torsions:
REMARK  status: ('A' for Active; 'I' for Inactive)
REMARK    1  A    between atoms: O_1  and  C_2
REMARK    2  A    between atoms: C_2  and  C_3
REMARK    3  A    between atoms: C_3  and  O_5
REMARK    4  A    between atoms: C_3  and  C_6
REMARK    5  A    between atoms: C_6  and  C_8
REMARK    6  A    between atoms: C_6  and  O_16
REMARK    7  A    between atoms: C_8  and  O_10
REMARK    8  A    between atoms: C_8  and  C_11
REMARK    9  A    between atoms: C_11  and  O_13
REMARK   10  A    between atoms: C_11  and  C_14
REMARK   11  A    between atoms: C_14  and  O_15
REMARK                            x       y       z     vdW  Elec       q    Type
REMARK                         _______ _______ _______ _____ _____    ______ ____
ROOT
ATOM      1  C   LIG A   1       0.245   0.384  -0.815  0.00  0.00    +0.176 C 
ENDROOT
BRANCH   1   2
ATOM      2  O   LIG A   1      -1.135   0.711  -0.589  0.00  0.00    -0.387 OA
ATOM      3  H   LIG A   1      -1.545   0.670  -1.489  0.00  0.00    +0.210 HD
ENDBRANCH   1   2
BRANCH   1   4
ATOM      4  C   LIG A   1       0.295  -0.813  -1.777  0.00  0.00    +0.171 C 
BRANCH   4   5
ATOM      5  O   LIG A   1      -0.381  -0.382  -2.984  0.00  0.00    -0.387 OA
ATOM      6  H   LIG A   1      -0.604  -1.207  -3.456  0.00  0.00    +0.210 HD
ENDBRANCH   4   5
BRANCH   4   7
ATOM      7  C   LIG A   1      -0.436  -2.068  -1.279  0.00  0.00    +0.190 C 
BRANCH   7   8
ATOM      8  O   LIG A   1      -0.408  -3.051  -2.321  0.00  0.00    -0.392 OA
ATOM      9  H   LIG A   1      -0.858  -3.837  -1.957  0.00  0.00    +0.209 HD
ENDBRANCH   7   8
ENDBRANCH   4   7
ENDBRANCH   1   4
BRANCH   1  10
ATOM     10  C   LIG A   1       0.962   0.156   0.525  0.00  0.00    +0.176 C 
BRANCH  10  11
ATOM     11  O   LIG A   1       0.275  -0.871   1.282  0.00  0.00    -0.387 OA
ATOM     12  H   LIG A   1      -0.624  -0.508   1.413  0.00  0.00    +0.210 HD
ENDBRANCH  10  11
BRANCH  10  13
ATOM     13  C   LIG A   1       1.084   1.434   1.391  0.00  0.00    +0.171 C 
BRANCH  13  14
ATOM     14  O   LIG A   1       1.787   1.078   2.595  0.00  0.00    -0.387 OA
ATOM     15  H   LIG A   1       1.258   0.346   2.977  0.00  0.00    +0.210 HD
ENDBRANCH  13  14
BRANCH  13  16
ATOM     16  C   LIG A   1      -0.243   2.091   1.800  0.00  0.00    +0.190 C 
BRANCH  16  17
ATOM     17  O   LIG A   1      -1.088   1.139   2.449  0.00  0.00    -0.392 OA
ATOM     18  H   LIG A   1      -1.988   1.522   2.432  0.00  0.00    +0.209 HD
ENDBRANCH  16  17
ENDBRANCH  13  16
ENDBRANCH  10  13
ENDBRANCH   1  10
TORSDOF 11
