@<TRIPOS>MOLECULE
NuBBE_1370
 44 46 0 0 0
SMALL
GASTEIGER

@<TRIPOS>ATOM
      1 O          -1.0348   -1.7346    0.5129 O.2     1  LIG1       -0.2507
      2 C          -1.4675   -0.6045    0.6754 C.2     1  LIG1        0.3111
      3 O          -2.0950    0.1444   -0.2649 O.3     1  LIG1       -0.4588
      4 C          -2.1934   -0.2984   -1.6458 C.3     1  LIG1        0.1052
      5 C          -2.9952   -1.5967   -1.7970 C.3     1  LIG1       -0.0254
      6 C          -2.9414    0.8407   -2.3535 C.3     1  LIG1       -0.0254
      7 C          -0.8058   -0.4351   -2.2785 C.3     1  LIG1       -0.0254
      8 C          -1.3644    0.1509    1.9765 C.3     1  LIG1        0.0852
      9 C           0.0637    0.5735    2.3400 C.3     1  LIG1        0.1635
     10 O          -0.0305    1.2909    3.5966 O.3     1  LIG1       -0.3754
     11 C           0.6892    1.5135    1.3213 C.ar    1  LIG1       -0.0003
     12 C           0.3088    2.8709    1.2861 C.ar    1  LIG1       -0.0548
     13 C           0.8277    3.7358    0.3279 C.ar    1  LIG1       -0.0614
     14 C           1.7479    3.2614   -0.5958 C.ar    1  LIG1       -0.0612
     15 C           2.1494    1.9228   -0.5578 C.ar    1  LIG1       -0.0536
     16 C           1.6182    1.0159    0.3806 C.ar    1  LIG1       -0.0109
     17 C           1.9929   -0.4180    0.4009 C.ar    1  LIG1       -0.0069
     18 C           2.5778   -1.0669   -0.7011 C.ar    1  LIG1       -0.0533
     19 C           2.8810   -2.4338   -0.6723 C.ar    1  LIG1       -0.0611
     20 C           2.6311   -3.1851    0.4707 C.ar    1  LIG1       -0.0611
     21 C           2.0554   -2.5770    1.5802 C.ar    1  LIG1       -0.0506
     22 C           1.7179   -1.2164    1.5276 C.ar    1  LIG1        0.0284
     23 C           0.9394   -0.6456    2.6447 C.2     1  LIG1        0.2000
     24 O           0.9504   -1.1679    3.7635 O.2     1  LIG1       -0.2886
     25 H          -3.9834   -1.5101   -1.3334 H       1  LIG1        0.0268
     26 H          -2.4966   -2.4453   -1.3188 H       1  LIG1        0.0268
     27 H          -3.1292   -1.8548   -2.8541 H       1  LIG1        0.0268
     28 H          -3.9597    0.9427   -1.9604 H       1  LIG1        0.0268
     29 H          -3.0034    0.6815   -3.4349 H       1  LIG1        0.0268
     30 H          -2.4432    1.8006   -2.1711 H       1  LIG1        0.0268
     31 H          -0.2683   -1.3028   -1.8842 H       1  LIG1        0.0268
     32 H          -0.1937    0.4478   -2.0687 H       1  LIG1        0.0268
     33 H          -0.8726   -0.5593   -3.3648 H       1  LIG1        0.0268
     34 H          -1.7937   -0.4875    2.7601 H       1  LIG1        0.0414
     35 H          -2.0239    1.0289    1.9384 H       1  LIG1        0.0414
     36 H           0.0434    0.6095    4.2992 H       1  LIG1        0.2112
     37 H          -0.3971    3.2589    2.0195 H       1  LIG1        0.0621
     38 H           0.5178    4.7774    0.3069 H       1  LIG1        0.0618
     39 H           2.1597    3.9312   -1.3469 H       1  LIG1        0.0618
     40 H           2.8936    1.6079   -1.2848 H       1  LIG1        0.0624
     41 H           2.7669   -0.5344   -1.6295 H       1  LIG1        0.0624
     42 H           3.2935   -2.9137   -1.5562 H       1  LIG1        0.0618
     43 H           2.8508   -4.2497    0.4867 H       1  LIG1        0.0618
     44 H           1.8165   -3.1697    2.4587 H       1  LIG1        0.0625
@<TRIPOS>BOND
     1     1     2    2
     2     2     3    1
     3     3     4    1
     4     4     5    1
     5     4     6    1
     6     4     7    1
     7     2     8    1
     8     8     9    1
     9     9    10    1
    10     9    11    1
    11    11    12   ar
    12    12    13   ar
    13    13    14   ar
    14    14    15   ar
    15    15    16   ar
    16    11    16   ar
    17    16    17    1
    18    17    18   ar
    19    18    19   ar
    20    19    20   ar
    21    20    21   ar
    22    21    22   ar
    23    17    22   ar
    24    22    23    1
    25     9    23    1
    26    23    24    2
    27     5    25    1
    28     5    26    1
    29     5    27    1
    30     6    28    1
    31     6    29    1
    32     6    30    1
    33     7    31    1
    34     7    32    1
    35     7    33    1
    36     8    34    1
    37     8    35    1
    38    10    36    1
    39    12    37    1
    40    13    38    1
    41    14    39    1
    42    15    40    1
    43    18    41    1
    44    19    42    1
    45    20    43    1
    46    21    44    1
