@<TRIPOS>MOLECULE
NuBBE_616
 40 43 0 0 0
SMALL
GASTEIGER

@<TRIPOS>ATOM
      1 O          -2.1233    2.8599   -1.0415 O.2     1  LIG1       -0.2894
      2 C          -1.3454    1.9575   -0.7400 C.2     1  LIG1        0.1932
      3 C          -1.7329    0.5275   -0.8223 C.3     1  LIG1        0.1909
      4 C          -3.1961    0.1839   -0.4527 C.3     1  LIG1        0.1539
      5 O          -3.5409   -1.2218   -0.5485 O.3     1  LIG1       -0.3623
      6 C          -4.1859   -0.3471   -1.4755 C.3     1  LIG1        0.0832
      7 C          -3.7315    0.7896    0.8207 C.3     1  LIG1        0.0787
      8 O          -3.1509    0.1167    1.9345 O.3     1  LIG1       -0.3920
      9 O          -1.2147   -0.1172   -2.0053 O.3     1  LIG1       -0.3523
     10 C          -0.6402   -0.5295   -0.7555 C.3     1  LIG1        0.1086
     11 H          -0.9179   -1.5101   -0.3979 H       1  LIG1        0.0640
     12 C           0.8271   -0.1446   -0.5336 C.3     1  LIG1        0.0237
     13 C           1.6019   -0.3653   -1.8566 C.3     1  LIG1       -0.0530
     14 C           1.4073   -1.0678    0.6144 C.3     1  LIG1       -0.0062
     15 H           0.6930   -1.0477    1.4518 H       1  LIG1        0.0332
     16 C           1.5364   -2.5510    0.2024 C.3     1  LIG1       -0.0592
     17 C           2.7723   -0.5840    1.1601 C.3     1  LIG1        0.0590
     18 H           3.5623   -0.7379    0.4151 H       1  LIG1        0.0596
     19 O           3.1356   -1.3256    2.3247 O.3     1  LIG1       -0.3915
     20 C           2.7451    0.8851    1.5594 C.3     1  LIG1       -0.0229
     21 C           2.3348    1.7576    0.3891 C.3     1  LIG1       -0.0284
     22 C           0.9835    1.3354   -0.1328 C.2     1  LIG1       -0.0573
     23 C           0.0062    2.2563   -0.2312 C.2     1  LIG1       -0.0162
     24 H          -5.2428   -0.1581   -1.3368 H       1  LIG1        0.0591
     25 H          -3.8786   -0.4034   -2.5129 H       1  LIG1        0.0591
     26 H          -3.4941    1.8532    0.9033 H       1  LIG1        0.0588
     27 H          -4.8204    0.6945    0.8919 H       1  LIG1        0.0588
     28 H          -3.3213   -0.8322    1.7860 H       1  LIG1        0.2095
     29 H           1.3989   -1.3558   -2.2792 H       1  LIG1        0.0239
     30 H           2.6847   -0.2739   -1.7253 H       1  LIG1        0.0239
     31 H           1.3056    0.3670   -2.6180 H       1  LIG1        0.0239
     32 H           2.3661   -2.7002   -0.4968 H       1  LIG1        0.0233
     33 H           0.6297   -2.9385   -0.2683 H       1  LIG1        0.0233
     34 H           1.7270   -3.1808    1.0779 H       1  LIG1        0.0233
     35 H           3.4483   -2.2010    2.0399 H       1  LIG1        0.2098
     36 H           3.7355    1.1870    1.9223 H       1  LIG1        0.0293
     37 H           2.0626    1.0312    2.4075 H       1  LIG1        0.0293
     38 H           3.0770    1.6880   -0.4149 H       1  LIG1        0.0311
     39 H           2.3304    2.8053    0.7139 H       1  LIG1        0.0311
     40 H           0.1656    3.2975    0.0306 H       1  LIG1        0.0653
@<TRIPOS>BOND
     1     1     2    2
     2     2     3    1
     3     4     5    1
     4     5     6    1
     5     4     6    1
     6     7     8    1
     7     3     9    1
     8     9    10    1
     9    10    11    1
    10     3    10    1
    11    10    12    1
    12    12    13    1
    13    12    14    1
    14    14    17    1
    15    17    18    1
    16    17    19    1
    17    17    20    1
    18    20    21    1
    19    21    22    1
    20    12    22    1
    21    22    23    2
    22     2    23    1
    23    14    16    1
    24    14    15    1
    25     4     7    1
    26     4     3    1
    27     6    24    1
    28     6    25    1
    29     7    26    1
    30     7    27    1
    31     8    28    1
    32    13    29    1
    33    13    30    1
    34    13    31    1
    35    16    32    1
    36    16    33    1
    37    16    34    1
    38    19    35    1
    39    20    36    1
    40    20    37    1
    41    21    38    1
    42    21    39    1
    43    23    40    1
