REMARK  Name = NuBBE_56
REMARK  15 active torsions:
REMARK  status: ('A' for Active; 'I' for Inactive)
REMARK    1  A    between atoms: O_1  and  C_2
REMARK    2  A    between atoms: C_4  and  O_51
REMARK    3  A    between atoms: C_6  and  O_50
REMARK    4  A    between atoms: C_8  and  C_49
REMARK    5  A    between atoms: C_11  and  O_13
REMARK    6  A    between atoms: O_13  and  C_14
REMARK    7  A    between atoms: C_16  and  O_17
REMARK    8  A    between atoms: C_20  and  O_21
REMARK    9  A    between atoms: O_21  and  C_22
REMARK   10  A    between atoms: C_25  and  C_36
REMARK   11  A    between atoms: C_27  and  O_35
REMARK   12  A    between atoms: C_29  and  O_34
REMARK   13  A    between atoms: C_31  and  O_33
REMARK   14  A    between atoms: C_37  and  C_41
REMARK   15  A    between atoms: C_44  and  O_47
REMARK                            x       y       z     vdW  Elec       q    Type
REMARK                         _______ _______ _______ _____ _____    ______ ____
ROOT
ATOM      1  C   LIG A   1      -2.271  -1.330   0.727  0.00  0.00    +0.131 A 
ATOM      2  C   LIG A   1      -1.382  -1.856  -0.219  0.00  0.00    +0.092 A 
ATOM      3  C   LIG A   1      -0.013  -1.632  -0.102  0.00  0.00    +0.135 A 
ATOM      4  C   LIG A   1       0.458  -0.859   0.945  0.00  0.00    +0.109 A 
ATOM      5  C   LIG A   1       1.882  -0.592   1.161  0.00  0.00    +0.238 A 
ATOM      6  C   LIG A   1       2.180   0.792   1.627  0.00  0.00    +0.214 A 
ATOM      7  C   LIG A   1       1.248   1.304   2.468  0.00  0.00    +0.181 A 
ATOM      8  O   LIG A   1       0.057   0.616   2.784  0.00  0.00    -0.451 OA
ATOM      9  C   LIG A   1      -0.411  -0.260   1.834  0.00  0.00    +0.146 A 
ATOM     10  C   LIG A   1      -1.778  -0.520   1.760  0.00  0.00    +0.093 A 
ATOM     11  O   LIG A   1       2.732  -1.442   1.003  0.00  0.00    -0.283 OA
ENDROOT
BRANCH   7  12
ATOM     12  C   LIG A   1       1.330   2.601   3.193  0.00  0.00    +0.021 A 
ATOM     13  C   LIG A   1       0.154   3.269   3.600  0.00  0.00    +0.015 A 
ATOM     14  C   LIG A   1       0.204   4.456   4.345  0.00  0.00    +0.046 A 
ATOM     15  C   LIG A   1       1.440   4.987   4.689  0.00  0.00    +0.117 A 
ATOM     16  C   LIG A   1       2.611   4.347   4.310  0.00  0.00    +0.046 A 
ATOM     17  C   LIG A   1       2.557   3.161   3.571  0.00  0.00    +0.015 A 
BRANCH  15  18
ATOM     18  O   LIG A   1       1.553   6.137   5.410  0.00  0.00    -0.507 OA
ATOM     19  H   LIG A   1       0.687   6.573   5.441  0.00  0.00    +0.292 HD
ENDBRANCH  15  18
ENDBRANCH   7  12
BRANCH   3  20
ATOM     20  O   LIG A   1       0.839  -2.111  -1.052  0.00  0.00    -0.506 OA
ATOM     21  H   LIG A   1       0.362  -2.678  -1.679  0.00  0.00    +0.292 HD
ENDBRANCH   3  20
BRANCH   1  22
ATOM     22  O   LIG A   1      -3.625  -1.532   0.742  0.00  0.00    -0.461 OA
BRANCH  22  28
ATOM     23  C   LIG A   1      -5.426  -3.045   0.262  0.00  0.00    +0.214 C 
ATOM     24  C   LIG A   1      -6.187  -3.763  -0.855  0.00  0.00    +0.180 C 
ATOM     25  C   LIG A   1      -6.480  -2.810  -2.014  0.00  0.00    +0.174 C 
ATOM     26  C   LIG A   1      -5.212  -2.087  -2.506  0.00  0.00    +0.150 C 
ATOM     27  O   LIG A   1      -4.550  -1.445  -1.405  0.00  0.00    -0.334 OA
ATOM     28  C   LIG A   1      -4.200  -2.315  -0.320  0.00  0.00    +0.339 C 
ATOM     29  C   LIG A   1      -4.255  -2.940  -3.333  0.00  0.00    +0.040 C 
BRANCH  23  30
ATOM     30  O   LIG A   1      -5.024  -4.056   1.211  0.00  0.00    -0.383 OA
ATOM     31  H   LIG A   1      -5.202  -3.696   2.099  0.00  0.00    +0.210 HD
ENDBRANCH  23  30
BRANCH  25  32
ATOM     32  O   LIG A   1      -7.426  -1.828  -1.556  0.00  0.00    -0.387 OA
ATOM     33  H   LIG A   1      -6.934  -1.010  -1.351  0.00  0.00    +0.210 HD
ENDBRANCH  25  32
BRANCH  24  34
ATOM     34  O   LIG A   1      -5.428  -4.895  -1.301  0.00  0.00    -0.386 OA
ATOM     35  H   LIG A   1      -5.128  -5.338  -0.479  0.00  0.00    +0.210 HD
ENDBRANCH  24  34
ENDBRANCH  22  28
ENDBRANCH   1  22
BRANCH   6  36
ATOM     36  O   LIG A   1       3.354   1.426   1.233  0.00  0.00    -0.453 OA
BRANCH  36  37
ATOM     37  C   LIG A   1       3.862   1.097  -0.087  0.00  0.00    +0.340 C 
ATOM     38  O   LIG A   1       5.301   1.151  -0.064  0.00  0.00    -0.334 OA
ATOM     39  C   LIG A   1       5.943   0.849  -1.315  0.00  0.00    +0.150 C 
ATOM     40  C   LIG A   1       5.422   1.713  -2.482  0.00  0.00    +0.174 C 
ATOM     41  C   LIG A   1       3.894   1.792  -2.509  0.00  0.00    +0.180 C 
ATOM     42  C   LIG A   1       3.322   2.112  -1.121  0.00  0.00    +0.214 C 
ATOM     43  C   LIG A   1       5.937  -0.640  -1.656  0.00  0.00    +0.040 C 
BRANCH  42  44
ATOM     44  O   LIG A   1       1.883   2.056  -1.221  0.00  0.00    -0.383 OA
ATOM     45  H   LIG A   1       1.606   2.899  -1.626  0.00  0.00    +0.210 HD
ENDBRANCH  42  44
BRANCH  41  46
ATOM     46  O   LIG A   1       3.336   0.561  -2.992  0.00  0.00    -0.386 OA
ATOM     47  H   LIG A   1       2.404   0.548  -2.689  0.00  0.00    +0.210 HD
ENDBRANCH  41  46
BRANCH  40  48
ATOM     48  O   LIG A   1       5.936   3.048  -2.361  0.00  0.00    -0.387 OA
ATOM     49  H   LIG A   1       6.902   2.976  -2.253  0.00  0.00    +0.210 HD
ENDBRANCH  40  48
ENDBRANCH  36  37
ENDBRANCH   6  36
TORSDOF 13
