REMARK  Name = NuBBE_1271
REMARK  8 active torsions:
REMARK  status: ('A' for Active; 'I' for Inactive)
REMARK    1  A    between atoms: C_1  and  C_2
REMARK    2  A    between atoms: C_2  and  C_3
REMARK    3  A    between atoms: C_15  and  C_20
REMARK    4  A    between atoms: C_21  and  O_22
REMARK    5  A    between atoms: O_22  and  C_23
REMARK    6  A    between atoms: C_23  and  C_24
REMARK    7  A    between atoms: C_28  and  C_29
REMARK    8  A    between atoms: C_30  and  C_32
REMARK                            x       y       z     vdW  Elec       q    Type
REMARK                         _______ _______ _______ _____ _____    ______ ____
ROOT
ATOM      1  C   LIG A   1      -4.973  -0.023  -1.957  0.00  0.00    +0.041 C 
ATOM      2  C   LIG A   1      -3.809   0.314  -0.988  0.00  0.00    +0.068 C 
ATOM      3  C   LIG A   1      -4.157   1.689  -0.408  0.00  0.00    +0.041 C 
ATOM      4  C   LIG A   1      -2.419   0.044  -1.704  0.00  0.00    +0.036 C 
ATOM      5  C   LIG A   1      -1.477   1.211  -2.001  0.00  0.00    +0.052 C 
ATOM      6  O   LIG A   1      -3.833  -0.652   0.104  0.00  0.00    -0.369 OA
ATOM      7  C   LIG A   1      -3.094  -1.767  -0.376  0.00  0.00    +0.140 C 
ATOM      8  C   LIG A   1      -1.803  -1.178  -0.958  0.00  0.00    +0.041 C 
ATOM      9  C   LIG A   1      -1.395  -2.315  -1.915  0.00  0.00    +0.242 C 
ATOM     10  O   LIG A   1      -1.379  -3.626  -1.278  0.00  0.00    -0.464 OA
ATOM     11  C   LIG A   1      -0.659  -0.807   0.148  0.00  0.00    +0.014 C 
ATOM     12  C   LIG A   1       0.028   0.630  -0.008  0.00  0.00    +0.041 C 
ATOM     13  C   LIG A   1       1.493   0.730   0.585  0.00  0.00    +0.125 C 
ATOM     14  O   LIG A   1       1.517   1.506   1.801  0.00  0.00    -0.351 OA
ATOM     15  C   LIG A   1       2.225   2.065   0.700  0.00  0.00    +0.260 C 
ATOM     16  C   LIG A   1      -0.841   1.628   0.819  0.00  0.00    +0.018 C 
ATOM     17  C   LIG A   1      -0.029   1.035  -1.511  0.00  0.00    +0.186 C 
ATOM     18  C   LIG A   1       0.373  -1.955   0.325  0.00  0.00    +0.006 C 
ATOM     19  C   LIG A   1       1.540  -1.643   1.242  0.00  0.00    +0.014 C 
ATOM     20  C   LIG A   1       2.387  -0.494   0.695  0.00  0.00    +0.042 C 
ATOM     21  C   LIG A   1       2.972  -0.853  -0.697  0.00  0.00    +0.018 C 
ATOM     22  C   LIG A   1       3.626  -0.208   1.634  0.00  0.00    +0.218 C 
ATOM     23  O   LIG A   1       4.348   0.980   1.218  0.00  0.00    -0.454 OA
ATOM     24  C   LIG A   1       3.699   2.122   0.853  0.00  0.00    +0.340 C 
ATOM     25  O   LIG A   1       4.296   3.155   0.599  0.00  0.00    -0.248 OA
ATOM     26  C   LIG A   1      -2.862  -2.914   0.560  0.00  0.00    +0.152 C 
ATOM     27  C   LIG A   1      -2.124  -3.993  -0.197  0.00  0.00    +0.310 C 
ATOM     28  O   LIG A   1      -2.121  -5.156   0.195  0.00  0.00    -0.251 OA
ENDROOT
BRANCH  22  29
ATOM     29  C   LIG A   1       3.427  -0.233   3.136  0.00  0.00    +0.031 A 
ATOM     30  C   LIG A   1       3.140   0.820   3.987  0.00  0.00    +0.202 A 
ATOM     31  O   LIG A   1       3.045   0.407   5.274  0.00  0.00    -0.471 OA
ATOM     32  C   LIG A   1       3.309  -0.921   5.279  0.00  0.00    +0.195 A 
ATOM     33  C   LIG A   1       3.567  -1.362   4.002  0.00  0.00    +0.048 A 
ENDBRANCH  22  29
BRANCH  17  34
ATOM     34  O   LIG A   1       0.611   2.317  -1.731  0.00  0.00    -0.461 OA
BRANCH  34  35
ATOM     35  C   LIG A   1       1.631   2.367  -2.633  0.00  0.00    +0.304 C 
ATOM     36  C   LIG A   1       2.171   3.764  -2.731  0.00  0.00    +0.136 C 
ATOM     37  O   LIG A   1       2.066   1.412  -3.258  0.00  0.00    -0.251 OA
ENDBRANCH  34  35
ENDBRANCH  17  34
TORSDOF 3
