REMARK  Name = NuBBE_964
REMARK  4 active torsions:
REMARK  status: ('A' for Active; 'I' for Inactive)
REMARK    1  A    between atoms: C_1  and  O_2
REMARK    2  A    between atoms: O_2  and  C_3
REMARK    3  A    between atoms: C_12  and  O_13
REMARK    4  A    between atoms: O_13  and  C_14
REMARK                            x       y       z     vdW  Elec       q    Type
REMARK                         _______ _______ _______ _____ _____    ______ ____
ROOT
ATOM      1  C   LIG A   1      -1.115   1.439   2.203  0.00  0.00    +0.122 A 
ATOM      2  C   LIG A   1      -1.092   0.086   1.861  0.00  0.00    +0.074 A 
ATOM      3  C   LIG A   1      -0.496  -0.370   0.692  0.00  0.00    +0.082 A 
ATOM      4  N   LIG A   1      -0.537  -1.685   0.472  0.00  0.00    -0.212 NA
ATOM      5  C   LIG A   1       0.023  -2.088  -0.675  0.00  0.00    +0.231 A 
ATOM      6  O   LIG A   1       0.037  -3.397  -1.051  0.00  0.00    -0.445 OA
ATOM      7  C   LIG A   1       0.647  -3.462  -2.257  0.00  0.00    +0.198 A 
ATOM      8  C   LIG A   1       1.033  -2.208  -2.669  0.00  0.00    +0.055 A 
ATOM      9  C   LIG A   1       0.646  -1.300  -1.642  0.00  0.00    +0.082 A 
ATOM     10  C   LIG A   1       0.705   0.084  -1.377  0.00  0.00    +0.141 A 
ATOM     11  C   LIG A   1       0.104   0.564  -0.184  0.00  0.00    +0.043 A 
ATOM     12  C   LIG A   1       0.084   1.930   0.169  0.00  0.00    +0.017 A 
ATOM     13  C   LIG A   1      -0.518   2.360   1.350  0.00  0.00    +0.046 A 
ENDROOT
BRANCH   1  15
ATOM     14  C   LIG A   1      -2.339   1.073   4.208  0.00  0.00    +0.277 C 
ATOM     15  O   LIG A   1      -1.681   1.976   3.326  0.00  0.00    -0.495 OA
ENDBRANCH   1  15
BRANCH  10  16
ATOM     16  O   LIG A   1       1.227   1.053  -2.225  0.00  0.00    -0.494 OA
ATOM     17  C   LIG A   1       2.308   0.651  -3.054  0.00  0.00    +0.277 C 
ENDBRANCH  10  16
TORSDOF 2
