REMARK  Name = NuBBE_1074
REMARK  8 active torsions:
REMARK  status: ('A' for Active; 'I' for Inactive)
REMARK    1  A    between atoms: C_1  and  N_2
REMARK    2  A    between atoms: C_7  and  O_8
REMARK    3  A    between atoms: C_10  and  O_11
REMARK    4  A    between atoms: C_12  and  C_13
REMARK    5  A    between atoms: C_13  and  C_14
REMARK    6  A    between atoms: C_15  and  C_16
REMARK    7  A    between atoms: C_15  and  C_17
REMARK    8  A    between atoms: C_23  and  O_24
REMARK                            x       y       z     vdW  Elec       q    Type
REMARK                         _______ _______ _______ _____ _____    ______ ____
ROOT
ATOM      1  C   LIG A   1      -0.252   0.695  -2.018  0.00  0.00    +0.149 C 
ATOM      2  N   LIG A   1       0.199   0.507  -0.612  0.00  0.00    -0.340 N 
ATOM      3  C   LIG A   1       0.835  -0.777  -0.511  0.00  0.00    +0.064 A 
ATOM      4  C   LIG A   1       2.245  -0.859  -0.519  0.00  0.00    +0.088 A 
ATOM      5  C   LIG A   1       3.039   0.392  -0.494  0.00  0.00    +0.201 A 
ATOM      6  O   LIG A   1       4.256   0.351  -0.642  0.00  0.00    -0.286 OA
ATOM      7  C   LIG A   1       2.885  -2.102  -0.508  0.00  0.00    +0.133 A 
ATOM      8  C   LIG A   1       2.140  -3.271  -0.444  0.00  0.00    +0.091 A 
ATOM      9  C   LIG A   1       0.749  -3.196  -0.360  0.00  0.00    +0.126 A 
ATOM     10  C   LIG A   1       0.068  -1.963  -0.373  0.00  0.00    +0.022 A 
ATOM     11  C   LIG A   1       0.943   1.676  -0.249  0.00  0.00    +0.095 A 
ATOM     12  C   LIG A   1       2.342   1.665  -0.224  0.00  0.00    +0.050 A 
ATOM     13  C   LIG A   1       3.065   2.826   0.071  0.00  0.00    +0.014 A 
ATOM     14  C   LIG A   1       2.385   4.008   0.372  0.00  0.00    +0.004 A 
ATOM     15  C   LIG A   1       0.989   4.024   0.395  0.00  0.00    +0.047 A 
ATOM     16  C   LIG A   1       0.284   2.863   0.098  0.00  0.00    +0.141 A 
ENDROOT
BRANCH   7  17
ATOM     17  O   LIG A   1       4.246  -2.245  -0.551  0.00  0.00    -0.506 OA
ATOM     18  H   LIG A   1       4.641  -1.344  -0.609  0.00  0.00    +0.292 HD
ENDBRANCH   7  17
BRANCH   9  19
ATOM     19  O   LIG A   1       0.029  -4.356  -0.261  0.00  0.00    -0.506 OA
ATOM     20  H   LIG A   1       0.643  -5.109  -0.224  0.00  0.00    +0.292 HD
ENDBRANCH   9  19
BRANCH  16  21
ATOM     21  O   LIG A   1      -1.081   2.888   0.193  0.00  0.00    -0.505 OA
ATOM     22  H   LIG A   1      -1.358   1.949   0.191  0.00  0.00    +0.292 HD
ENDBRANCH  16  21
BRANCH  10  23
ATOM     23  C   LIG A   1      -1.445  -1.927  -0.201  0.00  0.00    +0.068 C 
BRANCH  23  24
ATOM     24  C   LIG A   1      -1.898  -1.187   1.036  0.00  0.00    -0.023 C 
ATOM     25  C   LIG A   1      -3.046  -0.498   1.200  0.00  0.00    -0.079 C 
ATOM     26  C   LIG A   1      -4.138  -0.378   0.173  0.00  0.00    +0.038 C 
ATOM     27  C   LIG A   1      -3.339   0.210   2.498  0.00  0.00    +0.038 C 
ENDBRANCH  23  24
ENDBRANCH  10  23
TORSDOF 5
