@<TRIPOS>MOLECULE
NuBBE_1954
 90 91 0 0 0
SMALL
GASTEIGER

@<TRIPOS>ATOM
      1 O           3.5565    4.9214   -1.2416 O.3     1  LIG1       -0.4940
      2 C           4.6145    5.8208   -1.2253 C.3     1  LIG1        0.0788
      3 C           2.4109    5.6729   -0.8998 C.ar    1  LIG1        0.1377
      4 C           2.5442    7.2713   -0.7141 C.ar    1  LIG1        0.0442
      5 C           1.3557    7.9409   -0.8562 C.ar    1  LIG1        0.0972
      6 C           1.4279    9.2785   -1.3690 C.ar    1  LIG1        0.1442
      7 O           0.4008   10.0867   -1.7768 O.3     1  LIG1       -0.4930
      8 C          -0.8984    9.5624   -1.6807 C.3     1  LIG1        0.0789
      9 C           2.6547    9.9407   -1.6482 C.ar    1  LIG1       -0.0179
     10 C           3.8327    9.3885   -1.2564 C.ar    1  LIG1       -0.0575
     11 C           3.7331    8.1412   -0.6732 C.ar    1  LIG1       -0.0489
     12 N           0.2041    7.2323   -0.3879 N.ar    1  LIG1       -0.3077
     13 C           0.0515    5.8102   -0.4146 C.ar    1  LIG1        0.2584
     14 O          -0.9377    5.2682   -0.0359 O.2     1  LIG1       -0.2673
     15 C           1.2340    4.9922   -0.9026 C.ar    1  LIG1        0.0630
     16 C           0.9655    3.4054   -1.1524 C.3     1  LIG1        0.0222
     17 C           1.5976    2.4085   -2.2749 C.3     1  LIG1        0.1279
     18 O           2.8926    1.7606   -2.0078 O.3     1  LIG1       -0.4566
     19 C           2.9230    0.6333   -1.2540 C.2     1  LIG1        0.3076
     20 O           2.7457    0.6717   -0.0076 O.2     1  LIG1       -0.2508
     21 C           3.1826   -0.6832   -2.0076 C.3     1  LIG1        0.0450
     22 C           2.7822   -1.9413   -1.2177 C.3     1  LIG1       -0.0430
     23 C           2.8557   -3.2412   -2.0585 C.3     1  LIG1       -0.0526
     24 C           2.8949   -4.5940   -1.2870 C.3     1  LIG1       -0.0530
     25 C           1.6042   -4.9316   -0.5289 C.3     1  LIG1       -0.0531
     26 C           1.5310   -6.3109    0.1705 C.3     1  LIG1       -0.0531
     27 C           0.2332   -6.3932    1.0213 C.3     1  LIG1       -0.0531
     28 C          -1.0689   -6.4965    0.2092 C.3     1  LIG1       -0.0531
     29 C          -2.3572   -6.7209    1.0262 C.3     1  LIG1       -0.0531
     30 C          -2.7311   -5.6272    2.0473 C.3     1  LIG1       -0.0531
     31 C          -4.0865   -5.9782    2.6905 C.3     1  LIG1       -0.0531
     32 C          -4.5336   -5.1035    3.8704 C.3     1  LIG1       -0.0531
     33 C          -5.8903   -5.5643    4.4556 C.3     1  LIG1       -0.0533
     34 C          -5.8433   -7.0000    4.9950 C.3     1  LIG1       -0.0559
     35 C          -7.1648   -7.4860    5.5678 C.3     1  LIG1       -0.0653
     36 C           0.6473    1.2797   -2.8015 C.2     1  LIG1       -0.0394
     37 C           0.0919    0.3110   -2.0436 C.2     1  LIG1       -0.0962
     38 C           0.4303    1.2212   -4.2944 C.3     1  LIG1       -0.0406
     39 C          -0.4713    7.8563    0.7396 C.3     1  LIG1        0.0154
     40 H           5.6558    5.5537   -1.3191 H       1  LIG1        0.0660
     41 H           4.5916    6.1523   -0.1769 H       1  LIG1        0.0660
     42 H           4.4154    6.5229   -2.0591 H       1  LIG1        0.0660
     43 H          -0.9683    8.5358   -2.0502 H       1  LIG1        0.0660
     44 H          -1.5546   10.1770   -2.2898 H       1  LIG1        0.0660
     45 H          -1.2364    9.6779   -0.6531 H       1  LIG1        0.0660
     46 H           2.6913   10.9015   -2.1549 H       1  LIG1        0.0655
     47 H           4.8160    9.8260   -1.4493 H       1  LIG1        0.0619
     48 H           4.7501    7.8687   -0.3874 H       1  LIG1        0.0625
     49 H          -0.1070    3.3753   -1.4041 H       1  LIG1        0.0355
     50 H           1.0595    2.9036   -0.1818 H       1  LIG1        0.0355
     51 H           1.7990    3.0436   -3.1464 H       1  LIG1        0.0785
     52 H           4.2634   -0.7311   -2.2581 H       1  LIG1        0.0377
     53 H           2.6458   -0.6626   -2.9668 H       1  LIG1        0.0377
     54 H           1.7565   -1.8305   -0.8427 H       1  LIG1        0.0270
     55 H           3.4286   -1.9942   -0.3355 H       1  LIG1        0.0270
     56 H           3.7512   -3.2003   -2.6904 H       1  LIG1        0.0265
     57 H           2.0012   -3.2564   -2.7483 H       1  LIG1        0.0265
     58 H           3.7424   -4.5848   -0.5933 H       1  LIG1        0.0265
     59 H           3.0933   -5.3913   -2.0166 H       1  LIG1        0.0265
     60 H           0.7601   -4.8601   -1.2210 H       1  LIG1        0.0265
     61 H           1.4691   -4.1668    0.2416 H       1  LIG1        0.0265
     62 H           2.3850   -6.4261    0.8528 H       1  LIG1        0.0265
     63 H           1.5954   -7.1423   -0.5464 H       1  LIG1        0.0265
     64 H           0.1920   -5.4682    1.6038 H       1  LIG1        0.0265
     65 H           0.3024   -7.2169    1.7432 H       1  LIG1        0.0265
     66 H          -0.9870   -7.3238   -0.5088 H       1  LIG1        0.0265
     67 H          -1.1933   -5.5795   -0.3739 H       1  LIG1        0.0265
     68 H          -2.2821   -7.6777    1.5575 H       1  LIG1        0.0265
     69 H          -3.1895   -6.8341    0.3159 H       1  LIG1        0.0265
     70 H          -2.7818   -4.6444    1.5646 H       1  LIG1        0.0265
     71 H          -1.9560   -5.5853    2.8189 H       1  LIG1        0.0265
     72 H          -4.0051   -7.0098    3.0426 H       1  LIG1        0.0265
     73 H          -4.8705   -5.9597    1.9232 H       1  LIG1        0.0265
     74 H          -4.6210   -4.0560    3.5557 H       1  LIG1        0.0265
     75 H          -3.7774   -5.1362    4.6638 H       1  LIG1        0.0265
     76 H          -6.6745   -5.4736    3.6936 H       1  LIG1        0.0265
     77 H          -6.1692   -4.8858    5.2728 H       1  LIG1        0.0265
     78 H          -5.0722   -7.0618    5.7707 H       1  LIG1        0.0263
     79 H          -5.5651   -7.7008    4.2027 H       1  LIG1        0.0263
     80 H          -7.5997   -6.7647    6.2643 H       1  LIG1        0.0230
     81 H          -7.0050   -8.4273    6.1060 H       1  LIG1        0.0230
     82 H          -7.8872   -7.6832    4.7688 H       1  LIG1        0.0230
     83 H           0.2520    0.2346   -0.9714 H       1  LIG1        0.0535
     84 H          -0.4809   -0.5027   -2.4892 H       1  LIG1        0.0535
     85 H           1.3446    0.9267   -4.8218 H       1  LIG1        0.0275
     86 H           0.1046    2.1982   -4.6569 H       1  LIG1        0.0275
     87 H          -0.3496    0.4986   -4.5691 H       1  LIG1        0.0275
     88 H          -1.5515    7.9063    0.5464 H       1  LIG1        0.0457
     89 H          -0.0800    8.8630    0.9449 H       1  LIG1        0.0457
     90 H          -0.3171    7.2685    1.6537 H       1  LIG1        0.0457
@<TRIPOS>BOND
     1     1     2    1
     2     1     3    1
     3     3     4   ar
     4     4     5   ar
     5     5     6   ar
     6     6     7    1
     7     7     8    1
     8     6     9   ar
     9     9    10   ar
    10    10    11   ar
    11     4    11   ar
    12     5    12   ar
    13    12    13   ar
    14    13    14    2
    15    13    15   ar
    16     3    15   ar
    17    15    16    1
    18    16    17    1
    19    17    18    1
    20    18    19    1
    21    19    20    2
    22    19    21    1
    23    21    22    1
    24    22    23    1
    25    23    24    1
    26    24    25    1
    27    25    26    1
    28    26    27    1
    29    27    28    1
    30    28    29    1
    31    29    30    1
    32    30    31    1
    33    31    32    1
    34    32    33    1
    35    33    34    1
    36    34    35    1
    37    17    36    1
    38    36    37    2
    39    36    38    1
    40    12    39    1
    41     2    40    1
    42     2    41    1
    43     2    42    1
    44     8    43    1
    45     8    44    1
    46     8    45    1
    47     9    46    1
    48    10    47    1
    49    11    48    1
    50    16    49    1
    51    16    50    1
    52    17    51    1
    53    21    52    1
    54    21    53    1
    55    22    54    1
    56    22    55    1
    57    23    56    1
    58    23    57    1
    59    24    58    1
    60    24    59    1
    61    25    60    1
    62    25    61    1
    63    26    62    1
    64    26    63    1
    65    27    64    1
    66    27    65    1
    67    28    66    1
    68    28    67    1
    69    29    68    1
    70    29    69    1
    71    30    70    1
    72    30    71    1
    73    31    72    1
    74    31    73    1
    75    32    74    1
    76    32    75    1
    77    33    76    1
    78    33    77    1
    79    34    78    1
    80    34    79    1
    81    35    80    1
    82    35    81    1
    83    35    82    1
    84    37    83    1
    85    37    84    1
    86    38    85    1
    87    38    86    1
    88    38    87    1
    89    39    88    1
    90    39    89    1
    91    39    90    1
