@<TRIPOS>MOLECULE
NuBBE_463
 113 118 0 0 0
SMALL
GASTEIGER

@<TRIPOS>ATOM
      1 C           0.3950   -5.7379    1.7064 C.3     1  LIG1        0.0332
      2 C          -0.2201   -4.3538    1.7954 C.2     1  LIG1        0.3043
      3 O          -0.0825   -3.5582    0.6730 O.3     1  LIG1       -0.4580
      4 C          -0.4328   -2.1278    0.7975 C.3     1  LIG1        0.1447
      5 H          -0.5155   -1.9645    1.8675 H       1  LIG1        0.0769
      6 C           0.7317   -1.1073    0.2769 C.3     1  LIG1        0.1197
      7 C           0.9553   -0.1633    1.5344 C.3     1  LIG1        0.1080
      8 O           1.3541   -0.9914    2.6661 O.3     1  LIG1       -0.4639
      9 C           2.3480   -0.6056    3.5116 C.2     1  LIG1        0.3040
     10 C           3.0081   -1.8439    4.0545 C.3     1  LIG1        0.0332
     11 O           2.7562    0.5330    3.6737 O.2     1  LIG1       -0.2512
     12 C           0.2993   -0.2811   -1.0834 C.3     1  LIG1        0.1548
     13 C           1.5900    0.1743   -1.9277 C.3     1  LIG1        0.1367
     14 C           2.0421   -0.7770   -3.0455 C.3     1  LIG1       -0.0295
     15 O           1.2551    1.4162   -2.5924 O.3     1  LIG1       -0.3820
     16 C           2.8894    0.4599   -1.1130 C.3     1  LIG1        0.1742
     17 H           3.6905    0.6096   -1.8491 H       1  LIG1        0.0803
     18 O           2.6900    1.7356   -0.4096 O.3     1  LIG1       -0.4542
     19 C           3.5671    2.7321   -0.7483 C.2     1  LIG1        0.3110
     20 C           3.0235    4.1733   -0.6548 C.3     1  LIG1        0.0616
     21 C           1.8913    4.4698    0.3916 C.3     1  LIG1        0.0119
     22 C           0.6565    5.2533   -0.0817 C.ar    1  LIG1        0.0588
     23 N           0.8929    6.4067   -0.7689 N.ar    1  LIG1       -0.2588
     24 C          -0.1600    7.1252   -1.2323 C.ar    1  LIG1        0.0279
     25 C          -1.4765    6.7568   -1.0439 C.ar    1  LIG1       -0.0428
     26 C          -1.7268    5.6140   -0.2948 C.ar    1  LIG1       -0.0446
     27 C          -0.6567    4.8603    0.2161 C.ar    1  LIG1        0.0805
     28 C           2.4646    5.2784    1.5731 C.3     1  LIG1       -0.0562
     29 C           2.7380    4.6055   -2.1008 C.3     1  LIG1       -0.0517
     30 O           4.6631    2.5149   -1.2625 O.2     1  LIG1       -0.2505
     31 C           3.3315   -0.7360   -0.2065 C.3     1  LIG1        0.1799
     32 H           3.6454   -0.3313    0.7637 H       1  LIG1        0.0811
     33 O           4.5057   -1.4203   -0.7772 O.3     1  LIG1       -0.4539
     34 C           5.7396   -0.8556   -0.5550 C.2     1  LIG1        0.3044
     35 C           6.8437   -1.6004   -1.2669 C.3     1  LIG1        0.0332
     36 O           5.9368    0.1446    0.1200 O.2     1  LIG1       -0.2512
     37 C           2.1722   -1.7881    0.1020 C.3     1  LIG1        0.1584
     38 H           2.4490   -2.1870    1.0800 H       1  LIG1        0.0782
     39 O           2.1133   -2.9242   -0.8041 O.3     1  LIG1       -0.4567
     40 C           2.4427   -4.1405   -0.2402 C.2     1  LIG1        0.3043
     41 C           1.7373   -5.2905   -0.9548 C.3     1  LIG1        0.0332
     42 O           3.0248   -4.2779    0.8311 O.2     1  LIG1       -0.2512
     43 O          -0.4647    0.9825   -0.7690 O.3     1  LIG1       -0.3558
     44 C          -1.8824    0.6986   -0.4386 C.3     1  LIG1        0.1104
     45 C          -3.0614    1.3368   -1.2870 C.3     1  LIG1       -0.0321
     46 C          -2.0936    1.5231    0.8760 C.3     1  LIG1        0.1219
     47 O          -1.8640    2.9327    0.4626 O.3     1  LIG1       -0.4582
     48 C          -0.9716    3.7042    1.0646 C.2     1  LIG1        0.3410
     49 O          -0.4208    3.4663    2.1803 O.2     1  LIG1       -0.2449
     50 C          -0.8488   -0.9942   -1.8712 C.3     1  LIG1        0.1436
     51 H          -0.6550   -2.0365   -2.1392 H       1  LIG1        0.0769
     52 O          -1.2835   -0.2230   -3.0589 O.3     1  LIG1       -0.4580
     53 C          -0.7293   -0.2519   -4.3066 C.2     1  LIG1        0.3043
     54 C          -0.5531    1.1575   -4.8128 C.3     1  LIG1        0.0332
     55 O          -0.3988   -1.2511   -4.9301 O.2     1  LIG1       -0.2512
     56 C          -1.9911   -0.8161   -0.8023 C.3     1  LIG1        0.0608
     57 H          -2.9595   -1.0013   -1.2885 H       1  LIG1        0.0393
     58 C          -1.8909   -1.8727    0.2892 C.3     1  LIG1        0.1091
     59 H          -2.2538   -2.8140   -0.1497 H       1  LIG1        0.0639
     60 O          -2.7643   -1.5451    1.4033 O.3     1  LIG1       -0.3365
     61 C          -4.1561   -1.9343    1.2374 C.3     1  LIG1        0.1912
     62 O          -4.9401   -1.6853    2.4283 O.3     1  LIG1       -0.4662
     63 C          -6.1922   -2.2622    2.5025 C.ar    1  LIG1        0.1236
     64 C          -7.1915   -1.5157    3.1439 C.ar    1  LIG1       -0.0198
     65 C          -8.5184   -1.9736    3.2115 C.ar    1  LIG1       -0.0583
     66 C          -8.8685   -3.1799    2.6151 C.ar    1  LIG1       -0.0615
     67 C          -7.8669   -3.9782    2.0670 C.ar    1  LIG1       -0.0583
     68 C          -6.5271   -3.5441    2.0589 C.ar    1  LIG1       -0.0198
     69 O          -0.7984   -4.0052    2.8010 O.2     1  LIG1       -0.2512
     70 H          -0.2974   -6.4940    1.3302 H       1  LIG1        0.0342
     71 H           0.8686   -6.0197    2.6500 H       1  LIG1        0.0342
     72 H           1.2723   -5.7754    1.1031 H       1  LIG1        0.0342
     73 H           1.6835    0.6243    1.3712 H       1  LIG1        0.0706
     74 H           0.0198    0.2812    1.8152 H       1  LIG1        0.0706
     75 H           3.7347   -1.5941    4.8311 H       1  LIG1        0.0342
     76 H           3.5400   -2.3235    3.2259 H       1  LIG1        0.0342
     77 H           2.2689   -2.5331    4.4714 H       1  LIG1        0.0342
     78 H           2.7165   -1.5629   -2.7126 H       1  LIG1        0.0259
     79 H           2.5522   -0.2187   -3.8433 H       1  LIG1        0.0259
     80 H           1.2235   -1.3046   -3.5010 H       1  LIG1        0.0259
     81 H           0.6847    1.9079   -1.9618 H       1  LIG1        0.2104
     82 H           3.9074    4.7466   -0.3348 H       1  LIG1        0.0417
     83 H           1.5679    3.5079    0.7923 H       1  LIG1        0.0369
     84 H           0.0951    8.0294   -1.7797 H       1  LIG1        0.0829
     85 H          -2.2868    7.3518   -1.4539 H       1  LIG1        0.0633
     86 H          -2.7540    5.3178   -0.0992 H       1  LIG1        0.0627
     87 H           2.8187    6.2656    1.2481 H       1  LIG1        0.0236
     88 H           3.3032    4.7572    2.0436 H       1  LIG1        0.0236
     89 H           1.7011    5.4505    2.3413 H       1  LIG1        0.0236
     90 H           1.7841    4.2090   -2.4606 H       1  LIG1        0.0238
     91 H           3.5138    4.2534   -2.7912 H       1  LIG1        0.0238
     92 H           2.7346    5.6957   -2.1924 H       1  LIG1        0.0238
     93 H           6.8555   -1.3431   -2.3292 H       1  LIG1        0.0342
     94 H           6.7307   -2.6791   -1.1362 H       1  LIG1        0.0342
     95 H           7.8172   -1.3251   -0.8393 H       1  LIG1        0.0342
     96 H           2.1645   -6.2474   -0.6147 H       1  LIG1        0.0342
     97 H           1.7529   -5.2515   -2.0333 H       1  LIG1        0.0342
     98 H           0.6725   -5.2921   -0.6924 H       1  LIG1        0.0342
     99 H          -2.9461    2.3946   -1.5275 H       1  LIG1        0.0259
    100 H          -3.9912    1.2357   -0.6906 H       1  LIG1        0.0259
    101 H          -3.3023    0.8181   -2.2168 H       1  LIG1        0.0259
    102 H          -1.4307    1.3090    1.6995 H       1  LIG1        0.0727
    103 H          -3.1165    1.4948    1.2590 H       1  LIG1        0.0727
    104 H           0.4535    1.2837   -5.2288 H       1  LIG1        0.0342
    105 H          -0.6468    1.8567   -3.9764 H       1  LIG1        0.0342
    106 H          -1.3073    1.4073   -5.5572 H       1  LIG1        0.0342
    107 H          -4.1854   -2.9931    0.9772 H       1  LIG1        0.1017
    108 H          -4.5605   -1.3225    0.4238 H       1  LIG1        0.1017
    109 H          -6.9475   -0.5573    3.5936 H       1  LIG1        0.0654
    110 H          -9.2800   -1.3802    3.7141 H       1  LIG1        0.0619
    111 H          -9.9082   -3.5035    2.5956 H       1  LIG1        0.0618
    112 H          -8.1337   -4.9460    1.6462 H       1  LIG1        0.0619
    113 H          -5.7698   -4.2484    1.7316 H       1  LIG1        0.0654
@<TRIPOS>BOND
     1     1     2    1
     2     2     3    1
     3     4     6    1
     4     7     8    1
     5     8     9    1
     6     9    10    1
     7     9    11    2
     8     6    12    1
     9    12    13    1
    10    13    16    1
    11    16    18    1
    12    18    19    1
    13    19    20    1
    14    20    21    1
    15    21    22    1
    16    22    23   ar
    17    23    24   ar
    18    24    25   ar
    19    25    26   ar
    20    26    27   ar
    21    22    27   ar
    22    16    31    1
    23    33    34    1
    24    34    35    1
    25    34    36    2
    26    31    37    1
    27     6    37    1
    28    39    40    1
    29    40    41    1
    30    40    42    2
    31    12    43    1
    32    43    44    1
    33    44    46    1
    34    46    47    1
    35    47    48    1
    36    27    48    1
    37    12    50    1
    38    52    53    1
    39    53    54    1
    40    53    55    2
    41    50    56    1
    42    44    56    1
    43    56    58    1
    44     4    58    1
    45    60    61    1
    46    61    62    1
    47    62    63    1
    48    63    64   ar
    49    64    65   ar
    50    65    66   ar
    51    66    67   ar
    52    67    68   ar
    53    63    68   ar
    54     2    69    2
    55     6     7    1
    56    16    17    1
    57    19    30    2
    58    20    29    1
    59    21    28    1
    60    37    38    1
    61    37    39    1
    62    44    45    1
    63    48    49    2
    64    56    57    1
    65    58    59    1
    66    58    60    1
    67     4     5    1
    68     4     3    1
    69    13    15    1
    70    13    14    1
    71    31    33    1
    72    31    32    1
    73    50    52    1
    74    50    51    1
    75     1    70    1
    76     1    71    1
    77     1    72    1
    78     7    73    1
    79     7    74    1
    80    10    75    1
    81    10    76    1
    82    10    77    1
    83    14    78    1
    84    14    79    1
    85    14    80    1
    86    15    81    1
    87    20    82    1
    88    21    83    1
    89    24    84    1
    90    25    85    1
    91    26    86    1
    92    28    87    1
    93    28    88    1
    94    28    89    1
    95    29    90    1
    96    29    91    1
    97    29    92    1
    98    35    93    1
    99    35    94    1
   100    35    95    1
   101    41    96    1
   102    41    97    1
   103    41    98    1
   104    45    99    1
   105    45   100    1
   106    45   101    1
   107    46   102    1
   108    46   103    1
   109    54   104    1
   110    54   105    1
   111    54   106    1
   112    61   107    1
   113    61   108    1
   114    64   109    1
   115    65   110    1
   116    66   111    1
   117    67   112    1
   118    68   113    1
