@<TRIPOS>MOLECULE
NuBBE_2486
 38 41 0 0 0
SMALL
GASTEIGER

@<TRIPOS>ATOM
      1 O          -1.8639    0.0458    2.5715 O.2     1  LIG1       -0.2889
      2 C          -1.2021   -0.1910    1.5648 C.2     1  LIG1        0.2026
      3 C          -0.7616    0.9262    0.6418 C.3     1  LIG1        0.1623
      4 H          -1.5369    1.7047    0.6731 H       1  LIG1        0.0721
      5 C          -0.6205    0.3718   -0.7714 C.3     1  LIG1        0.1588
      6 H          -1.5973    0.0407   -1.1521 H       1  LIG1        0.0816
      7 C          -0.0609    1.4443   -1.6847 C.ar    1  LIG1        0.0047
      8 C           0.6660    2.5298   -1.1385 C.ar    1  LIG1        0.0299
      9 C           0.8259    2.6479    0.3600 C.3     1  LIG1        0.0777
     10 O           0.4818    1.4670    1.0888 O.3     1  LIG1       -0.3599
     11 C           1.1635    3.4998   -2.0170 C.ar    1  LIG1        0.1641
     12 O           1.8597    4.6116   -1.6181 O.3     1  LIG1       -0.5031
     13 C           0.9584    3.3814   -3.3943 C.ar    1  LIG1        0.1586
     14 C           0.2689    2.3074   -3.9319 C.ar    1  LIG1       -0.0161
     15 C          -0.2388    1.3337   -3.0763 C.ar    1  LIG1       -0.0510
     16 O           1.4461    4.3397   -4.2387 O.3     1  LIG1       -0.5033
     17 O           0.3008   -0.7237   -0.8279 O.3     1  LIG1       -0.4802
     18 C          -0.0017   -1.7330    0.0455 C.ar    1  LIG1        0.1391
     19 C          -0.7507   -1.5625    1.2153 C.ar    1  LIG1        0.1035
     20 C          -1.0168   -2.6818    2.0192 C.ar    1  LIG1        0.1376
     21 O          -1.8165   -2.6142    3.1292 O.3     1  LIG1       -0.4942
     22 C          -1.0290   -2.4165    4.3047 C.3     1  LIG1        0.0788
     23 C          -0.5469   -3.9490    1.6554 C.ar    1  LIG1        0.0225
     24 C           0.2253   -4.0873    0.5091 C.ar    1  LIG1        0.1238
     25 C           0.5066   -2.9888   -0.2930 C.ar    1  LIG1        0.0225
     26 O           0.7190   -5.2979    0.1252 O.3     1  LIG1       -0.5065
     27 H           0.2071    3.4742    0.7292 H       1  LIG1        0.0611
     28 H           1.8704    2.8634    0.6063 H       1  LIG1        0.0611
     29 H           2.0761    4.5508   -0.6746 H       1  LIG1        0.2923
     30 H           0.1307    2.2295   -5.0060 H       1  LIG1        0.0655
     31 H          -0.7721    0.4836   -3.4974 H       1  LIG1        0.0623
     32 H           1.8836    4.9847   -3.6481 H       1  LIG1        0.2923
     33 H          -1.7092   -2.1768    5.1273 H       1  LIG1        0.0660
     34 H          -0.3217   -1.5872    4.1936 H       1  LIG1        0.0660
     35 H          -0.4930   -3.3360    4.5632 H       1  LIG1        0.0660
     36 H          -0.7945   -4.8061    2.2739 H       1  LIG1        0.0691
     37 H           1.1052   -3.1125   -1.1920 H       1  LIG1        0.0691
     38 H           0.4387   -5.9738    0.7649 H       1  LIG1        0.2921
@<TRIPOS>BOND
     1     2     3    1
     2     3     5    1
     3     5     7    1
     4     7     8   ar
     5     8     9    1
     6     9    10    1
     7     3    10    1
     8     8    11   ar
     9    11    13   ar
    10    13    14   ar
    11    14    15   ar
    12     7    15   ar
    13     5    17    1
    14    17    18    1
    15    18    19   ar
    16     2    19    1
    17    19    20   ar
    18    21    22    1
    19    20    23   ar
    20    23    24   ar
    21    24    25   ar
    22    18    25   ar
    23     1     2    2
    24     3     4    1
    25     5     6    1
    26    11    12    1
    27    13    16    1
    28    20    21    1
    29    24    26    1
    30     9    27    1
    31     9    28    1
    32    12    29    1
    33    14    30    1
    34    15    31    1
    35    16    32    1
    36    22    33    1
    37    22    34    1
    38    22    35    1
    39    23    36    1
    40    25    37    1
    41    26    38    1
