@<TRIPOS>MOLECULE
NuBBE_1683
 60 60 0 0 0
SMALL
GASTEIGER

@<TRIPOS>ATOM
      1 C           1.4261    3.5502   -6.8233 C.3     1  LIG1       -0.0653
      2 C           0.3933    3.0335   -5.8312 C.3     1  LIG1       -0.0559
      3 C           0.9505    2.0469   -4.7992 C.3     1  LIG1       -0.0533
      4 C           1.9693    2.6849   -3.8483 C.3     1  LIG1       -0.0528
      5 C           2.4790    1.6912   -2.7999 C.3     1  LIG1       -0.0496
      6 C           3.5570    2.2796   -1.8805 C.3     1  LIG1       -0.0348
      7 C           3.0828    3.4881   -1.0947 C.2     1  LIG1       -0.0879
      8 C           2.5544    3.5126    0.1235 C.2     1  LIG1       -0.0879
      9 C           2.3665    2.3241    1.0195 C.3     1  LIG1       -0.0348
     10 C           1.0389    1.6344    0.8184 C.3     1  LIG1       -0.0496
     11 C           0.8792    0.4949    1.8106 C.3     1  LIG1       -0.0528
     12 C           1.8373   -0.6854    1.6192 C.3     1  LIG1       -0.0530
     13 C           1.6930   -1.8102    2.6563 C.3     1  LIG1       -0.0528
     14 C           0.4018   -2.6329    2.5881 C.3     1  LIG1       -0.0491
     15 C          -0.8454   -1.8635    3.0200 C.3     1  LIG1       -0.0275
     16 C          -2.1553   -2.5867    2.9878 C.ar    1  LIG1       -0.0405
     17 C          -3.1675   -2.1449    3.8483 C.ar    1  LIG1       -0.0165
     18 C          -4.4236   -2.7345    3.8028 C.ar    1  LIG1        0.1235
     19 O          -5.4024   -2.3004    4.6522 O.3     1  LIG1       -0.5064
     20 C          -4.6996   -3.7643    2.8984 C.ar    1  LIG1        0.0323
     21 C          -6.0521   -4.4044    2.8574 C.3     1  LIG1       -0.0328
     22 C          -3.7040   -4.1372    1.9889 C.ar    1  LIG1        0.1235
     23 O          -3.9709   -5.0956    1.0509 O.3     1  LIG1       -0.5064
     24 C          -2.4457   -3.5486    2.0190 C.ar    1  LIG1       -0.0165
     25 H           1.6990    2.7701   -7.5410 H       1  LIG1        0.0230
     26 H           2.3390    3.9003   -6.3355 H       1  LIG1        0.0230
     27 H           1.0135    4.3942   -7.3859 H       1  LIG1        0.0230
     28 H          -0.4077    2.5397   -6.3952 H       1  LIG1        0.0263
     29 H          -0.0664    3.8825   -5.3123 H       1  LIG1        0.0263
     30 H           1.3998    1.1884   -5.3116 H       1  LIG1        0.0265
     31 H           0.1088    1.6600   -4.2099 H       1  LIG1        0.0265
     32 H           1.4988    3.5419   -3.3520 H       1  LIG1        0.0265
     33 H           2.8285    3.0624   -4.4100 H       1  LIG1        0.0265
     34 H           2.8995    0.8127   -3.3054 H       1  LIG1        0.0268
     35 H           1.6346    1.3291   -2.2064 H       1  LIG1        0.0268
     36 H           4.4377    2.5720   -2.4905 H       1  LIG1        0.0307
     37 H           3.9126    1.4964   -1.2016 H       1  LIG1        0.0307
     38 H           3.1969    4.4431   -1.6299 H       1  LIG1        0.0569
     39 H           2.2386    4.4665    0.5334 H       1  LIG1        0.0569
     40 H           2.4390    2.6663    2.0544 H       1  LIG1        0.0307
     41 H           3.1888    1.6198    0.8709 H       1  LIG1        0.0307
     42 H           0.9186    1.2380   -0.1954 H       1  LIG1        0.0268
     43 H           0.2066    2.3379    0.9680 H       1  LIG1        0.0268
     44 H          -0.1392    0.1934    1.6216 H       1  LIG1        0.0265
     45 H           0.9432    0.8684    2.8389 H       1  LIG1        0.0265
     46 H           2.8696   -0.3261    1.7011 H       1  LIG1        0.0265
     47 H           1.7319   -1.0959    0.6080 H       1  LIG1        0.0265
     48 H           1.8277   -1.4058    3.6664 H       1  LIG1        0.0265
     49 H           2.5274   -2.5070    2.4950 H       1  LIG1        0.0265
     50 H           0.5129   -3.4977    3.2557 H       1  LIG1        0.0268
     51 H           0.3002   -3.0358    1.5747 H       1  LIG1        0.0268
     52 H          -1.0610   -1.0497    2.3465 H       1  LIG1        0.0313
     53 H          -0.6710   -1.4398    4.0158 H       1  LIG1        0.0313
     54 H          -2.9642   -1.3267    4.5346 H       1  LIG1        0.0657
     55 H          -5.0593   -1.5525    5.1681 H       1  LIG1        0.2921
     56 H          -6.5014   -4.4357    3.8547 H       1  LIG1        0.0280
     57 H          -5.9843   -5.4415    2.5152 H       1  LIG1        0.0280
     58 H          -6.7060   -3.8443    2.1835 H       1  LIG1        0.0280
     59 H          -3.1731   -5.2352    0.5150 H       1  LIG1        0.2921
     60 H          -1.7028   -3.8212    1.2768 H       1  LIG1        0.0657
@<TRIPOS>BOND
     1     1     2    1
     2     2     3    1
     3     3     4    1
     4     4     5    1
     5     5     6    1
     6     6     7    1
     7     7     8    2
     8     8     9    1
     9     9    10    1
    10    10    11    1
    11    11    12    1
    12    12    13    1
    13    13    14    1
    14    14    15    1
    15    15    16    1
    16    16    17   ar
    17    17    18   ar
    18    18    19    1
    19    18    20   ar
    20    20    21    1
    21    20    22   ar
    22    22    23    1
    23    22    24   ar
    24    16    24   ar
    25     1    25    1
    26     1    26    1
    27     1    27    1
    28     2    28    1
    29     2    29    1
    30     3    30    1
    31     3    31    1
    32     4    32    1
    33     4    33    1
    34     5    34    1
    35     5    35    1
    36     6    36    1
    37     6    37    1
    38     7    38    1
    39     8    39    1
    40     9    40    1
    41     9    41    1
    42    10    42    1
    43    10    43    1
    44    11    44    1
    45    11    45    1
    46    12    46    1
    47    12    47    1
    48    13    48    1
    49    13    49    1
    50    14    50    1
    51    14    51    1
    52    15    52    1
    53    15    53    1
    54    17    54    1
    55    19    55    1
    56    21    56    1
    57    21    57    1
    58    21    58    1
    59    23    59    1
    60    24    60    1
