@<TRIPOS>MOLECULE
NuBBE_1267
 35 36 0 0 0
SMALL
GASTEIGER

@<TRIPOS>ATOM
      1 O          -6.4318    1.3654   -0.2839 O.2     1  LIG1       -0.2452
      2 C          -5.2098    1.2966   -0.1944 C.ar    1  LIG1        0.3372
      3 C          -4.3921    2.5194   -0.1216 C.ar    1  LIG1        0.0236
      4 C          -3.0600    2.4854   -0.0195 C.ar    1  LIG1       -0.0443
      5 O          -4.5349    0.0842   -0.1582 O.2     1  LIG1       -0.4220
      6 C          -3.1303    0.0353   -0.0506 C.ar    1  LIG1        0.1426
      7 C          -2.3794    1.2022    0.0233 C.ar    1  LIG1        0.0184
      8 C          -0.9934    1.1048    0.1521 C.ar    1  LIG1       -0.0404
      9 C          -0.3585   -0.1514    0.1914 C.ar    1  LIG1        0.0172
     10 C           1.1047   -0.2374    0.3841 C.2     1  LIG1       -0.0524
     11 C           2.0000    0.6429   -0.0985 C.2     1  LIG1       -0.0527
     12 C           3.4995    0.5766    0.0680 C.3     1  LIG1        0.0789
     13 O           3.9616    1.9285    0.1430 O.3     1  LIG1       -0.3851
     14 C           3.9819   -0.1406    1.3332 C.3     1  LIG1       -0.0327
     15 C           4.1284   -0.0520   -1.1754 C.3     1  LIG1       -0.0327
     16 C          -1.1461   -1.3246    0.1076 C.ar    1  LIG1        0.1307
     17 O          -0.4847   -2.5271    0.1862 O.3     1  LIG1       -0.4944
     18 C          -1.1223   -3.6395   -0.4339 C.3     1  LIG1        0.0788
     19 C          -2.5367   -1.2241   -0.0067 C.ar    1  LIG1        0.0237
     20 H          -4.9377    3.4545   -0.1554 H       1  LIG1        0.0689
     21 H          -2.4763    3.3978    0.0325 H       1  LIG1        0.0627
     22 H          -0.4036    2.0139    0.2392 H       1  LIG1        0.0632
     23 H           1.4397   -1.1150    0.9322 H       1  LIG1        0.0622
     24 H           1.6564    1.4790   -0.7055 H       1  LIG1        0.0600
     25 H           3.5527    2.3290    0.9289 H       1  LIG1        0.2106
     26 H           3.5669    0.3297    2.2330 H       1  LIG1        0.0260
     27 H           5.0720   -0.0673    1.4267 H       1  LIG1        0.0260
     28 H           3.7134   -1.2016    1.3395 H       1  LIG1        0.0260
     29 H           3.8622    0.5079   -2.0800 H       1  LIG1        0.0260
     30 H           3.8092   -1.0917   -1.3072 H       1  LIG1        0.0260
     31 H           5.2225   -0.0324   -1.1127 H       1  LIG1        0.0260
     32 H          -0.4104   -4.4706   -0.4409 H       1  LIG1        0.0660
     33 H          -1.3873   -3.4162   -1.4731 H       1  LIG1        0.0660
     34 H          -1.9983   -3.9638    0.1364 H       1  LIG1        0.0660
     35 H          -3.1773   -2.0980   -0.0398 H       1  LIG1        0.0691
@<TRIPOS>BOND
     1     1     2    2
     2     2     3   ar
     3     3     4   ar
     4     2     5   ar
     5     5     6   ar
     6     6     7   ar
     7     4     7   ar
     8     7     8   ar
     9     8     9   ar
    10     9    10    1
    11    10    11    2
    12    11    12    1
    13    12    13    1
    14    12    14    1
    15    12    15    1
    16     9    16   ar
    17    16    17    1
    18    17    18    1
    19    16    19   ar
    20     6    19   ar
    21     3    20    1
    22     4    21    1
    23     8    22    1
    24    10    23    1
    25    11    24    1
    26    13    25    1
    27    14    26    1
    28    14    27    1
    29    14    28    1
    30    15    29    1
    31    15    30    1
    32    15    31    1
    33    18    32    1
    34    18    33    1
    35    18    34    1
    36    19    35    1
