REMARK  Name = NuBBE_1526
REMARK  16 active torsions:
REMARK  status: ('A' for Active; 'I' for Inactive)
REMARK    1  A    between atoms: C_1  and  C_2
REMARK    2  A    between atoms: C_4  and  C_6
REMARK    3  A    between atoms: C_8  and  O_9
REMARK    4  A    between atoms: O_9  and  C_10
REMARK    5  A    between atoms: C_11  and  O_12
REMARK    6  A    between atoms: O_12  and  C_13
REMARK    7  A    between atoms: C_14  and  O_15
REMARK    8  A    between atoms: O_15  and  C_16
REMARK    9  A    between atoms: C_19  and  C_21
REMARK   10  A    between atoms: C_23  and  O_24
REMARK   11  A    between atoms: O_24  and  C_25
REMARK   12  A    between atoms: C_26  and  O_27
REMARK   13  A    between atoms: O_27  and  C_28
REMARK   14  A    between atoms: C_29  and  O_30
REMARK   15  A    between atoms: O_30  and  C_31
REMARK   16  A    between atoms: C_33  and  C_35
REMARK                            x       y       z     vdW  Elec       q    Type
REMARK                         _______ _______ _______ _____ _____    ______ ____
ROOT
ATOM      1  C   LIG A   1      -1.887  -0.584  -2.826  0.00  0.00    +0.011 C 
ATOM      2  C   LIG A   1      -0.600  -0.486  -2.007  0.00  0.00    +0.025 C 
ATOM      3  C   LIG A   1      -0.622   0.662  -0.997  0.00  0.00    +0.152 C 
ATOM      4  O   LIG A   1       0.190   0.274   0.115  0.00  0.00    -0.364 OA
ATOM      5  C   LIG A   1       0.458  -1.129   0.047  0.00  0.00    +0.152 C 
ATOM      6  C   LIG A   1      -0.370  -1.702  -1.114  0.00  0.00    +0.025 C 
ATOM      7  C   LIG A   1       0.342  -2.828  -1.862  0.00  0.00    +0.011 C 
ENDROOT
BRANCH   3   8
ATOM      8  C   LIG A   1      -0.124   1.974  -1.557  0.00  0.00    -0.011 A 
ATOM      9  C   LIG A   1      -1.015   2.837  -2.167  0.00  0.00    +0.056 A 
ATOM     10  C   LIG A   1      -0.670   4.138  -2.569  0.00  0.00    +0.166 A 
ATOM     11  C   LIG A   1       0.690   4.522  -2.488  0.00  0.00    +0.203 A 
ATOM     12  C   LIG A   1       1.620   3.625  -1.927  0.00  0.00    +0.166 A 
ATOM     13  C   LIG A   1       1.212   2.379  -1.435  0.00  0.00    +0.056 A 
BRANCH  10  14
ATOM     14  O   LIG A   1      -1.616   5.059  -2.953  0.00  0.00    -0.491 OA
ATOM     15  C   LIG A   1      -2.981   4.636  -2.949  0.00  0.00    +0.277 C 
ENDBRANCH  10  14
BRANCH  11  16
ATOM     16  O   LIG A   1       1.214   5.745  -2.838  0.00  0.00    -0.488 OA
ATOM     17  C   LIG A   1       0.681   6.455  -3.945  0.00  0.00    +0.277 C 
ENDBRANCH  11  16
BRANCH  12  18
ATOM     18  O   LIG A   1       2.934   4.047  -1.834  0.00  0.00    -0.491 OA
ATOM     19  C   LIG A   1       3.913   3.014  -1.792  0.00  0.00    +0.277 C 
ENDBRANCH  12  18
ENDBRANCH   3   8
BRANCH   5  20
ATOM     20  C   LIG A   1       0.178  -1.769   1.393  0.00  0.00    -0.011 A 
ATOM     21  C   LIG A   1      -0.774  -1.276   2.297  0.00  0.00    +0.056 A 
ATOM     22  C   LIG A   1      -1.007  -1.908   3.534  0.00  0.00    +0.166 A 
ATOM     23  C   LIG A   1      -0.326  -3.096   3.864  0.00  0.00    +0.203 A 
ATOM     24  C   LIG A   1       0.594  -3.623   2.934  0.00  0.00    +0.166 A 
ATOM     25  C   LIG A   1       0.873  -2.925   1.748  0.00  0.00    +0.056 A 
BRANCH  22  26
ATOM     26  O   LIG A   1      -1.993  -1.297   4.277  0.00  0.00    -0.491 OA
ATOM     27  C   LIG A   1      -1.862  -1.359   5.693  0.00  0.00    +0.277 C 
ENDBRANCH  22  26
BRANCH  23  28
ATOM     28  O   LIG A   1      -0.766  -3.786   4.963  0.00  0.00    -0.488 OA
ATOM     29  C   LIG A   1       0.180  -4.392   5.836  0.00  0.00    +0.277 C 
ENDBRANCH  23  28
BRANCH  24  30
ATOM     30  O   LIG A   1       1.164  -4.846   3.193  0.00  0.00    -0.491 OA
ATOM     31  C   LIG A   1       1.575  -5.594   2.052  0.00  0.00    +0.277 C 
ENDBRANCH  24  30
ENDBRANCH   5  20
TORSDOF 8
