REMARK  Name = NuBBE_2005
REMARK  7 active torsions:
REMARK  status: ('A' for Active; 'I' for Inactive)
REMARK    1  A    between atoms: C_1  and  C_2
REMARK    2  A    between atoms: C_7  and  C_10
REMARK    3  A    between atoms: C_13  and  O_16
REMARK    4  A    between atoms: O_16  and  C_17
REMARK    5  A    between atoms: C_19  and  O_24
REMARK    6  A    between atoms: C_21  and  O_22
REMARK    7  A    between atoms: O_22  and  C_23
REMARK                            x       y       z     vdW  Elec       q    Type
REMARK                         _______ _______ _______ _____ _____    ______ ____
ROOT
ATOM      1  C   LIG A   1      -2.966  -1.266  -1.027  0.00  0.00    +0.051 C 
ATOM      2  C   LIG A   1      -1.519  -1.277  -1.449  0.00  0.00    +0.034 A 
ATOM      3  C   LIG A   1      -0.800  -0.076  -1.596  0.00  0.00    +0.142 A 
ATOM      4  C   LIG A   1       0.521  -0.101  -2.049  0.00  0.00    +0.101 A 
ATOM      5  C   LIG A   1       1.203   1.179  -2.319  0.00  0.00    +0.174 C 
ATOM      6  C   LIG A   1       0.415   2.435  -2.071  0.00  0.00    +0.129 C 
ATOM      7  C   LIG A   1      -0.548   2.182  -0.919  0.00  0.00    +0.211 C 
ATOM      8  O   LIG A   1      -1.436   1.096  -1.259  0.00  0.00    -0.483 OA
ATOM      9  O   LIG A   1       2.349   1.190  -2.750  0.00  0.00    -0.292 OA
ATOM     10  C   LIG A   1       1.172  -1.319  -2.237  0.00  0.00    +0.134 A 
ATOM     11  C   LIG A   1       0.499  -2.516  -2.012  0.00  0.00    +0.092 A 
ATOM     12  C   LIG A   1      -0.847  -2.506  -1.630  0.00  0.00    +0.130 A 
ENDROOT
BRANCH   7  13
ATOM     13  C   LIG A   1       0.066   2.014   0.473  0.00  0.00    -0.007 A 
ATOM     14  C   LIG A   1      -0.775   1.777   1.571  0.00  0.00    +0.011 A 
ATOM     15  C   LIG A   1      -0.254   1.630   2.862  0.00  0.00    +0.046 A 
ATOM     16  C   LIG A   1       1.120   1.711   3.086  0.00  0.00    +0.120 A 
ATOM     17  C   LIG A   1       1.965   1.955   2.007  0.00  0.00    +0.046 A 
ATOM     18  C   LIG A   1       1.446   2.114   0.719  0.00  0.00    +0.011 A 
BRANCH  16  19
ATOM     19  O   LIG A   1       1.742   1.573   4.296  0.00  0.00    -0.495 OA
ATOM     20  C   LIG A   1       0.891   1.323   5.409  0.00  0.00    +0.277 C 
ENDBRANCH  16  19
ENDBRANCH   7  13
BRANCH  12  21
ATOM     21  O   LIG A   1      -1.587  -3.636  -1.385  0.00  0.00    -0.495 OA
ATOM     22  C   LIG A   1      -0.923  -4.889  -1.509  0.00  0.00    +0.277 C 
ENDBRANCH  12  21
BRANCH  10  23
ATOM     23  O   LIG A   1       2.484  -1.416  -2.617  0.00  0.00    -0.506 OA
ATOM     24  H   LIG A   1       2.834  -0.504  -2.738  0.00  0.00    +0.292 HD
ENDBRANCH  10  23
TORSDOF 4
