@<TRIPOS>MOLECULE
NuBBE_2206
 37 37 0 0 0
SMALL
GASTEIGER

@<TRIPOS>ATOM
      1 C          -1.5336   -0.6273    0.1168 C.2     1  LIG1        0.1895
      2 O          -2.0828    0.3104   -0.4507 O.2     1  LIG1       -0.2872
      3 C          -2.2942   -1.6617    0.8817 C.2     1  LIG1       -0.0155
      4 C          -3.5991   -1.9785    0.7729 C.2     1  LIG1       -0.0721
      5 C          -4.5882   -1.3625   -0.1769 C.3     1  LIG1       -0.0436
      6 C          -4.1700   -3.0683    1.6438 C.3     1  LIG1       -0.0436
      7 C          -0.0409   -0.7044    0.1541 C.ar    1  LIG1        0.0634
      8 C           0.6711    0.5088    0.1320 C.ar    1  LIG1       -0.0408
      9 C           2.0782    0.5340    0.1427 C.ar    1  LIG1       -0.0066
     10 C           2.8540    1.8385    0.0389 C.3     1  LIG1        0.1252
     11 O           2.1110    2.8080   -0.7262 O.3     1  LIG1       -0.4570
     12 C           2.2993    2.7811   -2.0698 C.2     1  LIG1        0.3045
     13 O           3.0807    2.0481   -2.6676 O.2     1  LIG1       -0.2511
     14 C           1.4323    3.8049   -2.7327 C.3     1  LIG1        0.0333
     15 C           3.1198    2.4610    1.4068 C.3     1  LIG1       -0.0234
     16 C           2.7666   -0.6863    0.2149 C.ar    1  LIG1       -0.0516
     17 C           2.0719   -1.8986    0.2195 C.ar    1  LIG1       -0.0191
     18 C           0.6763   -1.9077    0.1780 C.ar    1  LIG1        0.1277
     19 O           0.0318   -3.1133    0.1384 O.3     1  LIG1       -0.5061
     20 H          -1.6945   -2.1953    1.6131 H       1  LIG1        0.0655
     21 H          -4.1220   -0.8414   -1.0151 H       1  LIG1        0.0274
     22 H          -5.2352   -0.6602    0.3586 H       1  LIG1        0.0274
     23 H          -5.2263   -2.1392   -0.6149 H       1  LIG1        0.0274
     24 H          -3.4036   -3.5501    2.2610 H       1  LIG1        0.0274
     25 H          -4.6255   -3.8503    1.0268 H       1  LIG1        0.0274
     26 H          -4.9326   -2.6604    2.3140 H       1  LIG1        0.0274
     27 H           0.1162    1.4457    0.0898 H       1  LIG1        0.0630
     28 H           3.8259    1.6546   -0.4378 H       1  LIG1        0.0782
     29 H           1.7378    4.8054   -2.4163 H       1  LIG1        0.0342
     30 H           0.3833    3.6258   -2.4815 H       1  LIG1        0.0342
     31 H           1.5450    3.7290   -3.8175 H       1  LIG1        0.0342
     32 H           2.1928    2.8039    1.8797 H       1  LIG1        0.0269
     33 H           3.7551    3.3480    1.2932 H       1  LIG1        0.0269
     34 H           3.6234    1.7642    2.0839 H       1  LIG1        0.0269
     35 H           3.8552   -0.7063    0.2373 H       1  LIG1        0.0623
     36 H           2.6373   -2.8265    0.2325 H       1  LIG1        0.0654
     37 H           0.6836   -3.8330    0.1769 H       1  LIG1        0.2922
@<TRIPOS>BOND
     1     1     2    2
     2     1     3    1
     3     3     4    2
     4     4     5    1
     5     4     6    1
     6     1     7    1
     7     7     8   ar
     8     8     9   ar
     9     9    10    1
    10    10    11    1
    11    11    12    1
    12    12    13    2
    13    12    14    1
    14    10    15    1
    15     9    16   ar
    16    16    17   ar
    17    17    18   ar
    18     7    18   ar
    19    18    19    1
    20     3    20    1
    21     5    21    1
    22     5    22    1
    23     5    23    1
    24     6    24    1
    25     6    25    1
    26     6    26    1
    27     8    27    1
    28    10    28    1
    29    14    29    1
    30    14    30    1
    31    14    31    1
    32    15    32    1
    33    15    33    1
    34    15    34    1
    35    16    35    1
    36    17    36    1
    37    19    37    1
