REMARK  Name = NuBBE_1023
REMARK  9 active torsions:
REMARK  status: ('A' for Active; 'I' for Inactive)
REMARK    1  A    between atoms: C_1  and  C_2
REMARK    2  A    between atoms: C_2  and  C_3
REMARK    3  A    between atoms: C_7  and  O_8
REMARK    4  A    between atoms: O_8  and  C_9
REMARK    5  A    between atoms: C_10  and  C_11
REMARK    6  A    between atoms: C_11  and  C_12
REMARK    7  A    between atoms: C_12  and  C_13
REMARK    8  A    between atoms: C_13  and  O_14
REMARK    9  A    between atoms: O_14  and  C_15
REMARK                            x       y       z     vdW  Elec       q    Type
REMARK                         _______ _______ _______ _____ _____    ______ ____
ROOT
ATOM      1  C   LIG A   1      -3.810   0.698  -3.417  0.00  0.00    +0.060 C 
ATOM      2  C   LIG A   1      -2.291   0.893  -3.367  0.00  0.00    +0.123 C 
ATOM      3  C   LIG A   1      -1.720   0.917  -4.788  0.00  0.00    +0.060 C 
ATOM      4  O   LIG A   1      -1.755  -0.293  -2.763  0.00  0.00    -0.481 OA
ATOM      5  C   LIG A   1      -0.988  -0.176  -1.644  0.00  0.00    +0.132 A 
ATOM      6  C   LIG A   1      -0.719   1.022  -0.975  0.00  0.00    +0.058 A 
ATOM      7  C   LIG A   1       0.044   0.985   0.211  0.00  0.00    +0.134 A 
ATOM      8  C   LIG A   1       0.511  -0.238   0.732  0.00  0.00    -0.004 A 
ATOM      9  C   LIG A   1       0.259  -1.408  -0.007  0.00  0.00    +0.011 A 
ATOM     10  C   LIG A   1      -0.486  -1.380  -1.174  0.00  0.00    +0.047 A 
ATOM     11  C   LIG A   1      -1.252   2.259  -1.534  0.00  0.00    +0.015 C 
ATOM     12  C   LIG A   1      -1.976   2.189  -2.656  0.00  0.00    +0.020 C 
ENDROOT
BRANCH   7  13
ATOM     13  O   LIG A   1       0.235   2.145   0.927  0.00  0.00    -0.494 OA
ATOM     14  C   LIG A   1       1.528   2.709   0.695  0.00  0.00    +0.277 C 
ENDBRANCH   7  13
BRANCH   8  15
ATOM     15  C   LIG A   1       1.210  -0.306   2.078  0.00  0.00    +0.050 C 
BRANCH  15  16
ATOM     16  C   LIG A   1       1.650  -1.718   2.445  0.00  0.00    +0.125 C 
BRANCH  16  17
ATOM     17  C   LIG A   1       2.326  -1.801   3.779  0.00  0.00    +0.307 C 
ATOM     18  O   LIG A   1       3.031  -0.939   4.262  0.00  0.00    -0.251 OA
BRANCH  17  19
ATOM     19  O   LIG A   1       2.089  -3.031   4.309  0.00  0.00    -0.468 OA
ATOM     20  C   LIG A   1       2.776  -3.276   5.530  0.00  0.00    +0.280 C 
ENDBRANCH  17  19
ENDBRANCH  16  17
ENDBRANCH  15  16
ENDBRANCH   8  15
TORSDOF 5
