@<TRIPOS>MOLECULE
NuBBE_1604
 40 41 0 0 0
SMALL
GASTEIGER

@<TRIPOS>ATOM
      1 O           0.2093   -4.9628    0.4165 O.3     1  LIG1       -0.5058
      2 C          -0.9577   -4.2563    0.2437 C.ar    1  LIG1        0.1343
      3 C          -1.0070   -2.8581    0.0534 C.ar    1  LIG1        0.1005
      4 C           0.2980   -2.0994    0.0795 C.2     1  LIG1        0.1705
      5 C           0.3929   -0.5964   -0.1044 C.3     1  LIG1        0.0147
      6 C           1.8604   -0.1351   -0.0087 C.3     1  LIG1       -0.0207
      7 C           2.0300    1.3548   -0.1730 C.ar    1  LIG1       -0.0467
      8 C           2.2692    1.9166   -1.4331 C.ar    1  LIG1       -0.0551
      9 C           2.4224    3.2995   -1.5736 C.ar    1  LIG1       -0.0197
     10 C           2.3582    4.1354   -0.4583 C.ar    1  LIG1        0.1201
     11 O           2.5202    5.4722   -0.7046 O.3     1  LIG1       -0.4951
     12 C           3.0974    6.2144    0.3659 C.3     1  LIG1        0.0788
     13 C           2.0993    3.5841    0.7959 C.ar    1  LIG1       -0.0197
     14 C           1.9417    2.2022    0.9381 C.ar    1  LIG1       -0.0551
     15 O           1.3284   -2.7651    0.2638 O.2     1  LIG1       -0.2918
     16 C          -2.2777   -2.2626   -0.1216 C.ar    1  LIG1        0.1375
     17 O          -2.3565   -0.9104   -0.3335 O.3     1  LIG1       -0.4942
     18 C          -3.5685   -0.2756    0.0747 C.3     1  LIG1        0.0788
     19 C          -3.4342   -3.0725   -0.1262 C.ar    1  LIG1        0.0225
     20 C          -3.3398   -4.4451    0.0776 C.ar    1  LIG1        0.1238
     21 O          -4.4421   -5.2466    0.0933 O.3     1  LIG1       -0.5065
     22 C          -2.1078   -5.0416    0.2643 C.ar    1  LIG1        0.0222
     23 H           0.9583   -4.3257    0.3813 H       1  LIG1        0.2922
     24 H          -0.1885   -0.0982    0.6795 H       1  LIG1        0.0348
     25 H          -0.0035   -0.3293   -1.0889 H       1  LIG1        0.0348
     26 H           2.4710   -0.6513   -0.7622 H       1  LIG1        0.0317
     27 H           2.2866   -0.4338    0.9594 H       1  LIG1        0.0317
     28 H           2.3445    1.2833   -2.3142 H       1  LIG1        0.0621
     29 H           2.6046    3.7257   -2.5571 H       1  LIG1        0.0654
     30 H           3.3055    7.2249    0.0013 H       1  LIG1        0.0660
     31 H           4.0467    5.7698    0.6849 H       1  LIG1        0.0660
     32 H           2.4052    6.3080    1.2083 H       1  LIG1        0.0660
     33 H           1.9957    4.2057    1.6783 H       1  LIG1        0.0654
     34 H           1.7503    1.7919    1.9270 H       1  LIG1        0.0621
     35 H          -3.3885    0.8027    0.1043 H       1  LIG1        0.0660
     36 H          -3.8672   -0.5931    1.0801 H       1  LIG1        0.0660
     37 H          -4.3720   -0.4571   -0.6474 H       1  LIG1        0.0660
     38 H          -4.4150   -2.6443   -0.3016 H       1  LIG1        0.0691
     39 H          -5.2361   -4.7157   -0.0805 H       1  LIG1        0.2921
     40 H          -2.0339   -6.1150    0.4178 H       1  LIG1        0.0691
@<TRIPOS>BOND
     1     1     2    1
     2     2     3   ar
     3     3     4    1
     4     4     5    1
     5     5     6    1
     6     6     7    1
     7     7     8   ar
     8     8     9   ar
     9     9    10   ar
    10    10    11    1
    11    11    12    1
    12    10    13   ar
    13    13    14   ar
    14     7    14   ar
    15     4    15    2
    16     3    16   ar
    17    16    17    1
    18    17    18    1
    19    16    19   ar
    20    19    20   ar
    21    20    21    1
    22    20    22   ar
    23     2    22   ar
    24     1    23    1
    25     5    24    1
    26     5    25    1
    27     6    26    1
    28     6    27    1
    29     8    28    1
    30     9    29    1
    31    12    30    1
    32    12    31    1
    33    12    32    1
    34    13    33    1
    35    14    34    1
    36    18    35    1
    37    18    36    1
    38    18    37    1
    39    19    38    1
    40    21    39    1
    41    22    40    1
