REMARK  Name = NuBBE_622
REMARK  1 active torsions:
REMARK  status: ('A' for Active; 'I' for Inactive)
REMARK    1  A    between atoms: C_1  and  C_2
REMARK                            x       y       z     vdW  Elec       q    Type
REMARK                         _______ _______ _______ _____ _____    ______ ____
ROOT
ATOM      1  C   LIG A   1      -2.101   2.664  -0.848  0.00  0.00    +0.052 C 
ATOM      2  C   LIG A   1      -0.608   2.519  -0.880  0.00  0.00    +0.041 C 
ATOM      3  C   LIG A   1       0.178   1.415  -0.789  0.00  0.00    +0.020 C 
ATOM      4  C   LIG A   1      -0.249   0.006  -0.740  0.00  0.00    +0.067 A 
ATOM      5  C   LIG A   1       0.461  -1.178  -0.912  0.00  0.00    +0.150 A 
ATOM      6  C   LIG A   1      -0.142  -2.414  -0.619  0.00  0.00    +0.018 A 
ATOM      7  C   LIG A   1      -1.475  -2.432  -0.203  0.00  0.00    +0.015 A 
ATOM      8  C   LIG A   1      -1.980  -1.256   0.345  0.00  0.00    +0.047 A 
ATOM      9  C   LIG A   1      -1.163  -0.140   0.282  0.00  0.00    +0.132 A 
ATOM     10  O   LIG A   1      -0.947   0.660   1.412  0.00  0.00    -0.487 OA
ATOM     11  C   LIG A   1       0.514   1.015   1.551  0.00  0.00    +0.278 C 
ATOM     12  C   LIG A   1       1.163   1.674   0.280  0.00  0.00    +0.245 C 
ATOM     13  O   LIG A   1       1.213   3.096   0.395  0.00  0.00    -0.450 OA
ATOM     14  C   LIG A   1       0.154   3.620  -0.240  0.00  0.00    +0.336 C 
ATOM     15  O   LIG A   1      -0.185   4.803  -0.220  0.00  0.00    -0.245 OA
ATOM     16  C   LIG A   1       0.694  -3.585  -0.385  0.00  0.00    +0.018 A 
ATOM     17  C   LIG A   1       1.991  -3.385  -0.124  0.00  0.00    +0.092 A 
ATOM     18  C   LIG A   1       2.604  -2.048  -0.249  0.00  0.00    +0.337 A 
ATOM     19  O   LIG A   1       3.712  -1.814   0.214  0.00  0.00    -0.245 OA
ATOM     20  O   LIG A   1       1.875  -1.104  -0.972  0.00  0.00    -0.421 OA
ENDROOT
TORSDOF 0
