REMARK  Name = NuBBE_1707
REMARK  10 active torsions:
REMARK  status: ('A' for Active; 'I' for Inactive)
REMARK    1  A    between atoms: C_1  and  O_2
REMARK    2  A    between atoms: C_1  and  C_3
REMARK    3  A    between atoms: C_8  and  C_11
REMARK    4  A    between atoms: C_12  and  C_13
REMARK    5  A    between atoms: C_18  and  C_19
REMARK    6  A    between atoms: C_24  and  C_25
REMARK    7  A    between atoms: C_24  and  C_26
REMARK    8  A    between atoms: C_27  and  O_31
REMARK    9  A    between atoms: C_32  and  C_36
REMARK   10  A    between atoms: C_36  and  C_38
REMARK                            x       y       z     vdW  Elec       q    Type
REMARK                         _______ _______ _______ _____ _____    ______ ____
ROOT
ATOM      1  C   LIG A   1      -3.961   0.567  -0.902  0.00  0.00    -0.002 C 
ATOM      2  C   LIG A   1      -2.846  -0.128  -1.757  0.00  0.00    +0.008 C 
ATOM      3  C   LIG A   1      -1.594  -0.398  -0.862  0.00  0.00    -0.000 C 
ATOM      4  C   LIG A   1      -0.951   0.957  -0.344  0.00  0.00    -0.023 C 
ATOM      5  C   LIG A   1      -2.083   1.921   0.155  0.00  0.00    +0.008 C 
ATOM      6  C   LIG A   1      -3.420   1.224   0.389  0.00  0.00    +0.010 C 
ATOM      7  C   LIG A   1      -0.274   1.724  -1.527  0.00  0.00    +0.012 C 
ATOM      8  C   LIG A   1       0.139   0.607   0.812  0.00  0.00    -0.023 C 
ATOM      9  C   LIG A   1      -0.608   0.029   2.048  0.00  0.00    +0.012 C 
ATOM     10  C   LIG A   1       1.215  -0.406   0.235  0.00  0.00    +0.002 C 
ATOM     11  C   LIG A   1       0.558  -1.651  -0.405  0.00  0.00    +0.005 C 
ATOM     12  C   LIG A   1      -0.513  -1.311  -1.450  0.00  0.00    +0.005 C 
ATOM     13  C   LIG A   1       2.457  -0.721   1.191  0.00  0.00    -0.025 C 
ATOM     14  C   LIG A   1       2.040  -1.569   2.417  0.00  0.00    +0.012 C 
ATOM     15  C   LIG A   1       3.114   0.662   1.569  0.00  0.00    +0.003 C 
ATOM     16  C   LIG A   1       2.088   1.612   2.218  0.00  0.00    +0.005 C 
ATOM     17  C   LIG A   1       0.897   1.880   1.289  0.00  0.00    +0.008 C 
ATOM     18  C   LIG A   1       4.507   0.596   2.305  0.00  0.00    -0.006 C 
ATOM     19  C   LIG A   1       5.133   2.018   2.360  0.00  0.00    +0.014 C 
ATOM     20  C   LIG A   1       4.417   0.117   3.768  0.00  0.00    +0.014 C 
ATOM     21  C   LIG A   1       5.465  -0.306   1.470  0.00  0.00    +0.120 C 
ATOM     22  C   LIG A   1       4.871  -1.661   1.104  0.00  0.00    +0.032 C 
ATOM     23  C   LIG A   1       3.521  -1.542   0.399  0.00  0.00    +0.010 C 
ATOM     24  C   LIG A   1      -3.533  -1.394  -2.372  0.00  0.00    +0.018 C 
ATOM     25  C   LIG A   1      -4.943  -1.476  -1.751  0.00  0.00    +0.009 C 
ATOM     26  C   LIG A   1      -4.886  -0.602  -0.513  0.00  0.00    +0.010 C 
ENDROOT
BRANCH  24  27
ATOM     27  C   LIG A   1      -3.489  -1.398  -3.901  0.00  0.00    -0.076 C 
ATOM     28  C   LIG A   1      -4.438  -0.886  -4.708  0.00  0.00    +0.007 C 
ATOM     29  C   LIG A   1      -2.274  -2.039  -4.520  0.00  0.00    +0.038 C 
ENDBRANCH  24  27
BRANCH  21  30
ATOM     30  O   LIG A   1       6.690  -0.559   2.159  0.00  0.00    -0.391 OA
ATOM     31  H   LIG A   1       7.199   0.268   2.182  0.00  0.00    +0.210 HD
ENDBRANCH  21  30
BRANCH   1  32
ATOM     32  C   LIG A   1      -4.710   1.607  -1.776  0.00  0.00    +0.163 C 
BRANCH  32  33
ATOM     33  O   LIG A   1      -5.759   2.251  -1.064  0.00  0.00    -0.395 OA
ATOM     34  H   LIG A   1      -5.365   2.991  -0.570  0.00  0.00    +0.209 HD
ENDBRANCH  32  33
ENDBRANCH   1  32
TORSDOF 4
