@<TRIPOS>MOLECULE
NuBBE_2361
 76 79 0 0 0
SMALL
GASTEIGER

@<TRIPOS>ATOM
      1 C          -0.0761   -3.9196   -0.3554 C.3     1  LIG1       -0.0563
      2 C           1.2912   -3.6761   -1.0635 C.3     1  LIG1        0.0069
      3 C           2.4748   -4.2828   -0.2245 C.3     1  LIG1        0.1314
      4 C           2.7051   -3.4843    1.0549 C.2     1  LIG1        0.1655
      5 C           2.8881   -1.9859    0.9003 C.3     1  LIG1        0.0121
      6 C           1.6757   -1.4383    0.1479 C.3     1  LIG1       -0.0275
      7 C           1.5389   -2.1208   -1.2530 C.3     1  LIG1       -0.0291
      8 H           2.5163   -2.0037   -1.7478 H       1  LIG1        0.0310
      9 C           0.5339   -1.4174   -2.2238 C.3     1  LIG1       -0.0488
     10 C           0.4173    0.1212   -2.1021 C.3     1  LIG1       -0.0468
     11 C           0.3262    0.5755   -0.6305 C.3     1  LIG1       -0.0259
     12 C          -0.9271   -0.0633    0.0171 C.3     1  LIG1       -0.0590
     13 C           1.6663    0.0789   -0.0134 C.3     1  LIG1       -0.0319
     14 H           2.5036    0.3454   -0.6795 H       1  LIG1        0.0309
     15 C           1.8179    0.9321    1.2249 C.3     1  LIG1       -0.0492
     16 C           1.4895    2.3196    0.6857 C.3     1  LIG1       -0.0492
     17 C           0.3781    2.1420   -0.3933 C.3     1  LIG1       -0.0328
     18 H           0.7403    2.6162   -1.3170 H       1  LIG1        0.0309
     19 C          -0.9392    2.9111    0.0212 C.3     1  LIG1       -0.0405
     20 H          -1.2529    2.5231    0.9981 H       1  LIG1        0.0301
     21 C          -2.0868    2.6896   -0.9776 C.3     1  LIG1       -0.0621
     22 C          -0.6827    4.4379    0.2060 C.3     1  LIG1       -0.0502
     23 C          -1.8799    5.2975    0.6647 C.3     1  LIG1       -0.0526
     24 C          -2.5277    4.8515    1.9827 C.3     1  LIG1       -0.0507
     25 C          -3.7239    5.7346    2.4046 C.3     1  LIG1       -0.0467
     26 C          -4.8780    5.6781    1.3998 C.3     1  LIG1       -0.0627
     27 C          -4.2381    5.3085    3.7833 C.3     1  LIG1       -0.0627
     28 O           2.8227   -4.0352    2.1713 O.2     1  LIG1       -0.2943
     29 O           3.7107   -4.1305   -0.9622 O.3     1  LIG1       -0.3804
     30 C           2.2761   -5.7903    0.0120 C.3     1  LIG1        0.0096
     31 C           2.1418   -6.5581   -1.3051 C.3     1  LIG1        0.0583
     32 O           3.4225   -6.6391   -1.9340 O.3     1  LIG1       -0.3917
     33 C           1.1442   -5.9425   -2.2924 C.3     1  LIG1       -0.0261
     34 C           1.2589   -4.4136   -2.4330 C.3     1  LIG1       -0.0420
     35 H          -0.1025   -3.5185    0.6603 H       1  LIG1        0.0236
     36 H          -0.3245   -4.9790   -0.2583 H       1  LIG1        0.0236
     37 H          -0.9056   -3.4744   -0.9128 H       1  LIG1        0.0236
     38 H           3.8255   -1.7961    0.3721 H       1  LIG1        0.0345
     39 H           2.9578   -1.5404    1.8962 H       1  LIG1        0.0345
     40 H           0.8293   -1.7013    0.7821 H       1  LIG1        0.0310
     41 H          -0.4702   -1.8335   -2.1117 H       1  LIG1        0.0268
     42 H           0.8269   -1.6513   -3.2563 H       1  LIG1        0.0268
     43 H          -0.4552    0.4638   -2.6701 H       1  LIG1        0.0271
     44 H           1.2909    0.5789   -2.5864 H       1  LIG1        0.0271
     45 H          -0.9071   -1.1533    0.0463 H       1  LIG1        0.0235
     46 H          -1.8207    0.1448   -0.5710 H       1  LIG1        0.0235
     47 H          -1.0798    0.2750    1.0450 H       1  LIG1        0.0235
     48 H           2.8296    0.8978    1.6406 H       1  LIG1        0.0268
     49 H           1.1118    0.6418    2.0096 H       1  LIG1        0.0268
     50 H           1.2265    2.9797    1.5141 H       1  LIG1        0.0268
     51 H           2.3802    2.7438    0.2022 H       1  LIG1        0.0268
     52 H          -1.7159    2.4434   -1.9758 H       1  LIG1        0.0233
     53 H          -2.7483    3.5504   -1.0851 H       1  LIG1        0.0233
     54 H          -2.7464    1.8878   -0.6359 H       1  LIG1        0.0233
     55 H          -0.3176    4.8480   -0.7442 H       1  LIG1        0.0268
     56 H           0.1174    4.6045    0.9335 H       1  LIG1        0.0268
     57 H          -2.6256    5.3389   -0.1324 H       1  LIG1        0.0265
     58 H          -1.5256    6.3299    0.7836 H       1  LIG1        0.0265
     59 H          -1.7659    4.8844    2.7727 H       1  LIG1        0.0268
     60 H          -2.8642    3.8112    1.9094 H       1  LIG1        0.0268
     61 H          -3.3843    6.7753    2.4801 H       1  LIG1        0.0295
     62 H          -5.2030    4.6464    1.2273 H       1  LIG1        0.0232
     63 H          -4.5944    6.1128    0.4371 H       1  LIG1        0.0232
     64 H          -5.7406    6.2466    1.7649 H       1  LIG1        0.0232
     65 H          -4.6242    4.2834    3.7648 H       1  LIG1        0.0232
     66 H          -5.0495    5.9665    4.1145 H       1  LIG1        0.0232
     67 H          -3.4424    5.3600    4.5333 H       1  LIG1        0.0232
     68 H           4.4132   -4.5318   -0.4105 H       1  LIG1        0.2108
     69 H           1.3979   -5.9684    0.6473 H       1  LIG1        0.0322
     70 H           3.1391   -6.1868    0.5630 H       1  LIG1        0.0322
     71 H           1.8421   -7.5895   -1.0892 H       1  LIG1        0.0594
     72 H           3.7093   -5.7216   -2.1153 H       1  LIG1        0.2098
     73 H           0.1257   -6.2005   -1.9806 H       1  LIG1        0.0290
     74 H           1.2839   -6.3900   -3.2842 H       1  LIG1        0.0290
     75 H           0.4151   -4.0633   -3.0392 H       1  LIG1        0.0272
     76 H           2.1634   -4.1767   -3.0075 H       1  LIG1        0.0272
@<TRIPOS>BOND
     1     1     2    1
     2     2     3    1
     3     3     4    1
     4     4     5    1
     5     5     6    1
     6     6     7    1
     7     7     8    1
     8     2     7    1
     9     7     9    1
    10     9    10    1
    11    10    11    1
    12    11    12    1
    13    11    13    1
    14    13    14    1
    15     6    13    1
    16    13    15    1
    17    15    16    1
    18    16    17    1
    19    11    17    1
    20    19    22    1
    21    22    23    1
    22    23    24    1
    23    24    25    1
    24    25    26    1
    25    25    27    1
    26     4    28    2
    27     3    29    1
    28     3    30    1
    29    30    31    1
    30    31    32    1
    31    31    33    1
    32    33    34    1
    33     2    34    1
    34    17    19    1
    35    17    18    1
    36    19    21    1
    37    19    20    1
    38     1    35    1
    39     1    36    1
    40     1    37    1
    41     5    38    1
    42     5    39    1
    43     6    40    1
    44     9    41    1
    45     9    42    1
    46    10    43    1
    47    10    44    1
    48    12    45    1
    49    12    46    1
    50    12    47    1
    51    15    48    1
    52    15    49    1
    53    16    50    1
    54    16    51    1
    55    21    52    1
    56    21    53    1
    57    21    54    1
    58    22    55    1
    59    22    56    1
    60    23    57    1
    61    23    58    1
    62    24    59    1
    63    24    60    1
    64    25    61    1
    65    26    62    1
    66    26    63    1
    67    26    64    1
    68    27    65    1
    69    27    66    1
    70    27    67    1
    71    29    68    1
    72    30    69    1
    73    30    70    1
    74    31    71    1
    75    32    72    1
    76    33    73    1
    77    33    74    1
    78    34    75    1
    79    34    76    1
