@<TRIPOS>MOLECULE
NuBBE_55
 24 24 0 0 0
SMALL
GASTEIGER

@<TRIPOS>ATOM
      1 O          -3.9239    0.7016   -0.2645 O.3     1  LIG1       -0.5032
      2 C          -2.5694    0.8597   -0.2141 C.ar    1  LIG1        0.1628
      3 C          -2.0091    2.1314   -0.2509 C.ar    1  LIG1        0.2006
      4 O          -2.7893    3.2539   -0.2289 O.3     1  LIG1       -0.5009
      5 C          -0.6293    2.2796   -0.2756 C.ar    1  LIG1        0.1628
      6 O          -0.0670    3.5216   -0.3273 O.3     1  LIG1       -0.5032
      7 C           0.2006    1.1691   -0.2328 C.ar    1  LIG1       -0.0023
      8 C          -0.3619   -0.1169   -0.1652 C.ar    1  LIG1        0.0661
      9 C           0.4923   -1.3342   -0.1330 C.2     1  LIG1        0.3394
     10 O           1.7977   -0.9749   -0.1651 O.3     1  LIG1       -0.4614
     11 C           2.7597   -2.0353   -0.2238 C.3     1  LIG1        0.0900
     12 C           3.0203   -2.5987    1.1593 C.3     1  LIG1       -0.0306
     13 O           0.0553   -2.4750   -0.0993 O.2     1  LIG1       -0.2450
     14 C          -1.7584   -0.2690   -0.1533 C.ar    1  LIG1       -0.0023
     15 H          -4.2462    1.2951   -0.9681 H       1  LIG1        0.2923
     16 H          -3.5937    3.0102    0.2679 H       1  LIG1        0.2924
     17 H          -0.8200    4.1437   -0.3619 H       1  LIG1        0.2923
     18 H           1.2764    1.3179   -0.2487 H       1  LIG1        0.0663
     19 H           3.6831   -1.5974   -0.6178 H       1  LIG1        0.0695
     20 H           2.4419   -2.8112   -0.9289 H       1  LIG1        0.0695
     21 H           3.3373   -1.8054    1.8441 H       1  LIG1        0.0262
     22 H           3.7984   -3.3660    1.1221 H       1  LIG1        0.0262
     23 H           2.1134   -3.0410    1.5825 H       1  LIG1        0.0262
     24 H          -2.2083   -1.2588   -0.1165 H       1  LIG1        0.0663
@<TRIPOS>BOND
     1     1     2    1
     2     2     3   ar
     3     3     4    1
     4     3     5   ar
     5     5     6    1
     6     5     7   ar
     7     7     8   ar
     8     8     9    1
     9     9    10    1
    10    10    11    1
    11    11    12    1
    12     9    13    2
    13     8    14   ar
    14     2    14   ar
    15     1    15    1
    16     4    16    1
    17     6    17    1
    18     7    18    1
    19    11    19    1
    20    11    20    1
    21    12    21    1
    22    12    22    1
    23    12    23    1
    24    14    24    1
