@<TRIPOS>MOLECULE
NuBBE_595
 25 26 0 0 0
SMALL
GASTEIGER

@<TRIPOS>ATOM
      1 C          -1.9436   -0.8866   -1.9419 C.3     1  LIG1       -0.0249
      2 C          -2.2458   -0.7240   -0.4508 C.3     1  LIG1        0.1304
      3 H          -3.3367   -0.7731   -0.3452 H       1  LIG1        0.0761
      4 O          -1.7119   -1.8480    0.2656 O.3     1  LIG1       -0.4551
      5 C          -1.7732    0.5891    0.1795 C.3     1  LIG1        0.1176
      6 H          -2.2436    0.7061    1.1635 H       1  LIG1        0.0681
      7 O          -2.1662    1.6986   -0.6266 O.3     1  LIG1       -0.3835
      8 C          -0.2811    0.5648    0.3978 C.ar    1  LIG1        0.0021
      9 C           0.4271    1.7720    0.5724 C.ar    1  LIG1       -0.0515
     10 C           1.8036    1.7687    0.7879 C.ar    1  LIG1       -0.0161
     11 C           2.4700    0.5539    0.8373 C.ar    1  LIG1        0.1591
     12 O           3.8231    0.4890    1.0391 O.3     1  LIG1       -0.5033
     13 C           1.7811   -0.6554    0.6948 C.ar    1  LIG1        0.1728
     14 O           2.5225   -1.8029    0.7652 O.3     1  LIG1       -0.5027
     15 C           0.3959   -0.6696    0.4921 C.ar    1  LIG1        0.1096
     16 C          -0.3625   -1.9642    0.4240 C.2     1  LIG1        0.3436
     17 O           0.1417   -3.0650    0.5571 O.2     1  LIG1       -0.2448
     18 H          -0.8698   -0.8375   -2.1487 H       1  LIG1        0.0266
     19 H          -2.4468   -0.1226   -2.5406 H       1  LIG1        0.0266
     20 H          -2.2804   -1.8714   -2.2849 H       1  LIG1        0.0266
     21 H          -1.5391    1.7676   -1.3678 H       1  LIG1        0.2104
     22 H          -0.1022    2.7247    0.5486 H       1  LIG1        0.0622
     23 H           2.3281    2.7105    0.9167 H       1  LIG1        0.0655
     24 H           4.1666    1.3940    1.1381 H       1  LIG1        0.2923
     25 H           3.4433   -1.5188    0.9269 H       1  LIG1        0.2923
@<TRIPOS>BOND
     1     2     4    1
     2     2     5    1
     3     5     8    1
     4     8     9   ar
     5     9    10   ar
     6    10    11   ar
     7    11    12    1
     8    11    13   ar
     9    13    14    1
    10    13    15   ar
    11     8    15   ar
    12    15    16    1
    13     4    16    1
    14    16    17    2
    15     2     3    1
    16     2     1    1
    17     5     7    1
    18     5     6    1
    19     1    18    1
    20     1    19    1
    21     1    20    1
    22     7    21    1
    23     9    22    1
    24    10    23    1
    25    12    24    1
    26    14    25    1
