REMARK  Name = NuBBE_395
REMARK  4 active torsions:
REMARK  status: ('A' for Active; 'I' for Inactive)
REMARK    1  A    between atoms: C_1  and  C_2
REMARK    2  A    between atoms: C_2  and  C_3
REMARK    3  A    between atoms: C_10  and  C_12
REMARK    4  A    between atoms: C_12  and  C_13
REMARK                            x       y       z     vdW  Elec       q    Type
REMARK                         _______ _______ _______ _____ _____    ______ ____
ROOT
ATOM      1  C   LIG A   1      -1.296  -0.330  -1.413  0.00  0.00    +0.025 C 
ATOM      2  C   LIG A   1      -2.624  -0.362  -0.627  0.00  0.00    +0.144 C 
ATOM      3  O   LIG A   1      -2.753  -1.641   0.013  0.00  0.00    -0.369 OA
ATOM      4  C   LIG A   1      -1.798  -1.798   1.063  0.00  0.00    +0.123 C 
ATOM      5  C   LIG A   1      -0.378  -1.782   0.476  0.00  0.00    +0.036 C 
ATOM      6  C   LIG A   1      -0.051  -0.637  -0.513  0.00  0.00    +0.001 C 
ATOM      7  C   LIG A   1      -2.088  -0.789   2.190  0.00  0.00    +0.058 C 
ATOM      8  C   LIG A   1      -2.532   0.553   1.687  0.00  0.00    -0.026 C 
ATOM      9  C   LIG A   1      -2.767   0.746   0.382  0.00  0.00    +0.000 C 
ENDROOT
BRANCH   1  11
ATOM     10  C   LIG A   1      -2.217   1.039  -3.370  0.00  0.00    +0.004 C 
ATOM     11  C   LIG A   1      -1.138   0.922  -2.298  0.00  0.00    +0.003 C 
ENDBRANCH   1  11
BRANCH   6  12
ATOM     12  C   LIG A   1       0.640   0.580   0.156  0.00  0.00    +0.049 C 
BRANCH  12  13
ATOM     13  C   LIG A   1       2.005   0.288   0.824  0.00  0.00    +0.181 C 
ATOM     14  O   LIG A   1       2.479   1.523   1.416  0.00  0.00    -0.458 OA
ATOM     15  C   LIG A   1       3.712   1.546   1.985  0.00  0.00    +0.332 C 
ATOM     16  C   LIG A   1       4.660   0.500   1.546  0.00  0.00    +0.087 C 
ATOM     17  C   LIG A   1       4.378  -0.318   0.522  0.00  0.00    -0.016 C 
ATOM     18  C   LIG A   1       3.048  -0.260  -0.154  0.00  0.00    +0.072 C 
ATOM     19  O   LIG A   1       4.060   2.406   2.785  0.00  0.00    -0.246 OA
ENDBRANCH  12  13
ENDBRANCH   6  12
TORSDOF 3
