@<TRIPOS>MOLECULE
NuBBE_6
 46 47 0 0 0
SMALL
GASTEIGER

@<TRIPOS>ATOM
      1 O          -1.6678    0.6424    2.6165 O.3     1  LIG1       -0.3879
      2 C          -2.3207    0.4907    1.3491 C.3     1  LIG1        0.0977
      3 H          -3.3461    0.8493    1.4819 H       1  LIG1        0.0632
      4 C          -2.3226   -0.9946    0.9861 C.3     1  LIG1        0.0162
      5 C          -2.8488   -1.2753   -0.4278 C.3     1  LIG1        0.1669
      6 O          -2.4603   -2.6275   -0.7498 O.3     1  LIG1       -0.3772
      7 C          -4.3915   -1.2096   -0.5384 C.2     1  LIG1        0.3391
      8 O          -4.9746   -0.9109    0.6494 O.3     1  LIG1       -0.4659
      9 C          -6.3991   -0.8656    0.6614 C.3     1  LIG1        0.0818
     10 O          -4.9943   -1.4494   -1.5807 O.2     1  LIG1       -0.2476
     11 C          -2.2003   -0.3627   -1.4851 C.3     1  LIG1        0.0162
     12 C          -2.2096    1.1173   -1.1043 C.3     1  LIG1        0.0977
     13 H          -1.6265    1.6685   -1.8518 H       1  LIG1        0.0632
     14 O          -3.5488    1.5998   -1.1567 O.3     1  LIG1       -0.3879
     15 C          -1.6235    1.3626    0.2954 C.3     1  LIG1        0.1549
     16 H          -1.7583    2.4095    0.5979 H       1  LIG1        0.0786
     17 O          -0.2182    1.0365    0.3137 O.3     1  LIG1       -0.4530
     18 C           0.5956    2.0164   -0.1311 C.2     1  LIG1        0.3324
     19 C           2.0067    1.6167   -0.0797 C.2     1  LIG1        0.0231
     20 C           2.4500    0.4403    0.3881 C.2     1  LIG1       -0.0477
     21 C           3.8693    0.0679    0.3448 C.ar    1  LIG1       -0.0211
     22 C           4.7075    0.5339   -0.6814 C.ar    1  LIG1       -0.0094
     23 C           6.0483    0.1810   -0.6924 C.ar    1  LIG1        0.1588
     24 O           6.9019    0.6441   -1.6547 O.3     1  LIG1       -0.5033
     25 C           6.5599   -0.6571    0.2908 C.ar    1  LIG1        0.1582
     26 O           7.8831   -0.9881    0.2745 O.3     1  LIG1       -0.5033
     27 C           5.7418   -1.1609    1.2910 C.ar    1  LIG1       -0.0160
     28 C           4.3909   -0.8013    1.3159 C.ar    1  LIG1       -0.0509
     29 O           0.2480    3.1057   -0.5782 O.2     1  LIG1       -0.2456
     30 H          -0.7331    0.4000    2.4848 H       1  LIG1        0.2099
     31 H          -2.9141   -1.5403    1.7351 H       1  LIG1        0.0325
     32 H          -1.3161   -1.4170    1.1078 H       1  LIG1        0.0325
     33 H          -2.8684   -2.8487   -1.6088 H       1  LIG1        0.2109
     34 H          -6.7323    0.1008    0.2753 H       1  LIG1        0.0661
     35 H          -6.7216   -0.9568    1.7027 H       1  LIG1        0.0661
     36 H          -6.8402   -1.6895    0.0929 H       1  LIG1        0.0661
     37 H          -2.7233   -0.4880   -2.4433 H       1  LIG1        0.0325
     38 H          -1.1686   -0.6904   -1.6686 H       1  LIG1        0.0325
     39 H          -3.7876    1.7044   -2.0969 H       1  LIG1        0.2099
     40 H           2.6746    2.3726   -0.4810 H       1  LIG1        0.0689
     41 H           1.7717   -0.2913    0.8194 H       1  LIG1        0.0626
     42 H           4.3138    1.1692   -1.4677 H       1  LIG1        0.0661
     43 H           6.3986    1.2213   -2.2552 H       1  LIG1        0.2923
     44 H           8.2434   -0.5099   -0.4993 H       1  LIG1        0.2923
     45 H           6.1528   -1.8207    2.0491 H       1  LIG1        0.0655
     46 H           3.7586   -1.1954    2.1091 H       1  LIG1        0.0625
@<TRIPOS>BOND
     1     2     4    1
     2     4     5    1
     3     7     8    1
     4     8     9    1
     5     7    10    2
     6     5    11    1
     7    11    12    1
     8    12    15    1
     9    15    16    1
    10     2    15    1
    11    15    17    1
    12    17    18    1
    13    18    19    1
    14    19    20    2
    15    20    21    1
    16    21    22   ar
    17    22    23   ar
    18    23    24    1
    19    23    25   ar
    20    25    26    1
    21    25    27   ar
    22    27    28   ar
    23    21    28   ar
    24    18    29    2
    25    12    14    1
    26    12    13    1
    27     2     3    1
    28     2     1    1
    29     5     7    1
    30     5     6    1
    31     1    30    1
    32     4    31    1
    33     4    32    1
    34     6    33    1
    35     9    34    1
    36     9    35    1
    37     9    36    1
    38    11    37    1
    39    11    38    1
    40    14    39    1
    41    19    40    1
    42    20    41    1
    43    22    42    1
    44    24    43    1
    45    26    44    1
    46    27    45    1
    47    28    46    1
