REMARK  Name = NuBBE_2028
REMARK  5 active torsions:
REMARK  status: ('A' for Active; 'I' for Inactive)
REMARK    1  A    between atoms: O_1  and  C_2
REMARK    2  A    between atoms: C_3  and  C_4
REMARK    3  A    between atoms: C_4  and  C_5
REMARK    4  A    between atoms: C_4  and  C_6
REMARK    5  A    between atoms: C_9  and  C_10
REMARK                            x       y       z     vdW  Elec       q    Type
REMARK                         _______ _______ _______ _____ _____    ______ ____
ROOT
ATOM      1  C   LIG A   1      -0.954  -0.913  -0.135  0.00  0.00    +0.120 A 
ATOM      2  C   LIG A   1      -0.306   0.331  -0.088  0.00  0.00    -0.003 A 
ATOM      3  C   LIG A   1       1.100   0.323  -0.062  0.00  0.00    +0.008 A 
ATOM      4  C   LIG A   1       1.824  -0.873  -0.128  0.00  0.00    +0.004 A 
ATOM      5  C   LIG A   1       1.162  -2.098  -0.226  0.00  0.00    -0.047 A 
ATOM      6  C   LIG A   1       1.931  -3.384  -0.271  0.00  0.00    +0.044 C 
ATOM      7  C   LIG A   1      -0.235  -2.108  -0.215  0.00  0.00    +0.049 A 
ENDROOT
BRANCH   2   8
ATOM      8  C   LIG A   1      -1.075   1.643  -0.042  0.00  0.00    +0.016 C 
ATOM      9  C   LIG A   1      -1.279   2.087   1.408  0.00  0.00    +0.012 C 
ATOM     10  C   LIG A   1      -0.435   2.772  -0.860  0.00  0.00    +0.012 C 
ENDBRANCH   2   8
BRANCH   1  11
ATOM     11  O   LIG A   1      -2.313  -1.052  -0.097  0.00  0.00    -0.506 OA
ATOM     12  H   LIG A   1      -2.701  -0.250   0.283  0.00  0.00    +0.292 HD
ENDBRANCH   1  11
TORSDOF 2
