REMARK  Name = NuBBE_172
REMARK  23 active torsions:
REMARK  status: ('A' for Active; 'I' for Inactive)
REMARK    1  A    between atoms: C_1  and  C_2
REMARK    2  A    between atoms: C_4  and  O_6
REMARK    3  A    between atoms: O_6  and  C_7
REMARK    4  A    between atoms: C_7  and  O_8
REMARK    5  A    between atoms: O_8  and  C_9
REMARK    6  A    between atoms: C_9  and  C_10
REMARK    7  A    between atoms: C_9  and  C_11
REMARK    8  A    between atoms: C_9  and  C_12
REMARK    9  A    between atoms: C_16  and  C_18
REMARK   10  A    between atoms: C_18  and  C_19
REMARK   11  A    between atoms: C_19  and  C_20
REMARK   12  A    between atoms: C_20  and  C_21
REMARK   13  A    between atoms: C_21  and  C_22
REMARK   14  A    between atoms: C_22  and  C_23
REMARK   15  A    between atoms: C_23  and  C_24
REMARK   16  A    between atoms: C_24  and  C_25
REMARK   17  A    between atoms: C_25  and  C_26
REMARK   18  A    between atoms: C_26  and  C_27
REMARK   19  A    between atoms: C_27  and  C_28
REMARK   20  A    between atoms: C_28  and  C_29
REMARK   21  A    between atoms: C_29  and  C_30
REMARK   22  A    between atoms: C_30  and  C_31
REMARK   23  A    between atoms: C_34  and  C_35
REMARK                            x       y       z     vdW  Elec       q    Type
REMARK                         _______ _______ _______ _____ _____    ______ ____
ROOT
ATOM      1  C   LIG A   1      -2.942  -4.205  -3.426  0.00  0.00    +0.032 C 
ATOM      2  C   LIG A   1      -2.201  -3.008  -2.808  0.00  0.00    +0.114 C 
ATOM      3  C   LIG A   1      -1.566  -3.299  -1.425  0.00  0.00    +0.200 C 
ATOM      4  C   LIG A   1      -0.219  -2.473  -1.391  0.00  0.00    +0.048 C 
ATOM      5  C   LIG A   1      -0.006  -1.551  -2.636  0.00  0.00    +0.026 C 
ATOM      6  C   LIG A   1      -1.244  -0.625  -2.882  0.00  0.00    +0.077 C 
ATOM      7  N   LIG A   1      -2.548  -1.533  -2.963  0.00  0.00    -0.288 N 
ATOM      8  C   LIG A   1      -3.898  -1.261  -3.447  0.00  0.00    +0.247 C 
ATOM      9  O   LIG A   1      -4.757  -2.151  -3.397  0.00  0.00    -0.270 OA
ENDROOT
BRANCH   8  10
ATOM     10  C   LIG A   1      -4.437   0.068  -4.001  0.00  0.00    +0.037 A 
ATOM     11  C   LIG A   1      -3.960   1.257  -3.495  0.00  0.00    +0.013 A 
ATOM     12  C   LIG A   1      -4.526   2.518  -3.741  0.00  0.00    +0.001 A 
ATOM     13  C   LIG A   1      -5.597   2.644  -4.602  0.00  0.00    +0.000 A 
ATOM     14  C   LIG A   1      -6.056   1.494  -5.239  0.00  0.00    +0.001 A 
ATOM     15  C   LIG A   1      -5.519   0.211  -4.907  0.00  0.00    +0.013 A 
ENDBRANCH   8  10
BRANCH   6  16
ATOM     16  C   LIG A   1      -1.024   0.522  -1.769  0.00  0.00    +0.022 C 
BRANCH  16  17
ATOM     17  C   LIG A   1       0.269   1.441  -2.009  0.00  0.00    +0.002 C 
BRANCH  17  18
ATOM     18  C   LIG A   1       0.601   2.563  -0.958  0.00  0.00    +0.000 C 
BRANCH  18  19
ATOM     19  C   LIG A   1       1.850   3.419  -1.353  0.00  0.00    -0.000 C 
BRANCH  19  20
ATOM     20  C   LIG A   1       2.317   4.597  -0.414  0.00  0.00    -0.000 C 
BRANCH  20  21
ATOM     21  C   LIG A   1       2.647   4.196   1.028  0.00  0.00    -0.000 C 
BRANCH  21  22
ATOM     22  C   LIG A   1       3.155   5.241   2.068  0.00  0.00    -0.000 C 
BRANCH  22  23
ATOM     23  C   LIG A   1       3.569   4.652   3.422  0.00  0.00    -0.000 C 
BRANCH  23  24
ATOM     24  C   LIG A   1       4.780   3.781   3.262  0.00  0.00    +0.000 C 
BRANCH  24  25
ATOM     25  C   LIG A   1       4.776   2.496   2.489  0.00  0.00    +0.000 C 
BRANCH  25  26
ATOM     26  C   LIG A   1       6.159   1.871   2.536  0.00  0.00    +0.007 C 
BRANCH  26  27
ATOM     27  C   LIG A   1       6.718   1.087   3.722  0.00  0.00    +0.074 C 
BRANCH  27  28
ATOM     28  C   LIG A   1       7.129   1.684   5.077  0.00  0.00    +0.130 C 
ATOM     29  C   LIG A   1       6.686   3.028   5.568  0.00  0.00    +0.086 C 
ATOM     30  O   LIG A   1       7.846   1.011   5.828  0.00  0.00    -0.298 OA
ENDBRANCH  27  28
ENDBRANCH  26  27
ENDBRANCH  25  26
ENDBRANCH  24  25
ENDBRANCH  23  24
ENDBRANCH  22  23
ENDBRANCH  21  22
ENDBRANCH  20  21
ENDBRANCH  19  20
ENDBRANCH  18  19
ENDBRANCH  17  18
ENDBRANCH  16  17
ENDBRANCH   6  16
BRANCH   3  31
ATOM     31  O   LIG A   1      -2.485  -3.091  -0.275  0.00  0.00    -0.429 OA
BRANCH  31  32
ATOM     32  C   LIG A   1      -3.432  -4.129  -0.085  0.00  0.00    +0.511 C 
ATOM     33  O   LIG A   1      -3.593  -5.038  -0.804  0.00  0.00    -0.203 OA
BRANCH  32  34
ATOM     34  O   LIG A   1      -4.030  -4.078   1.179  0.00  0.00    -0.428 OA
BRANCH  34  35
ATOM     35  C   LIG A   1      -3.892  -5.304   1.995  0.00  0.00    +0.109 C 
ATOM     36  C   LIG A   1      -2.497  -5.117   2.588  0.00  0.00    +0.055 C 
ATOM     37  C   LIG A   1      -4.928  -5.391   3.152  0.00  0.00    +0.055 C 
ATOM     38  C   LIG A   1      -3.987  -6.681   1.292  0.00  0.00    +0.055 C 
ENDBRANCH  34  35
ENDBRANCH  32  34
ENDBRANCH  31  32
ENDBRANCH   3  31
TORSDOF 18
