@<TRIPOS>MOLECULE
NuBBE_1539
 39 39 0 0 0
SMALL
GASTEIGER

@<TRIPOS>ATOM
      1 C          -1.3019    0.0454    1.5045 C.2     1  LIG1       -0.0758
      2 C          -2.1918   -0.6368    0.7744 C.2     1  LIG1       -0.0994
      3 C          -1.7148    0.5103    2.8863 C.3     1  LIG1       -0.0437
      4 C           0.1376    0.3850    1.0698 C.3     1  LIG1       -0.0111
      5 H           0.5500    0.9025    1.9516 H       1  LIG1        0.0354
      6 C           1.1276   -0.8152    0.7898 C.3     1  LIG1       -0.0078
      7 C           2.5823   -0.3219    0.9487 C.2     1  LIG1       -0.0846
      8 C           3.6949   -1.0577    0.7914 C.2     1  LIG1       -0.1021
      9 C           0.9167   -1.9648    1.8007 C.3     1  LIG1       -0.0556
     10 C           0.9142   -1.3534   -0.6458 C.3     1  LIG1       -0.0431
     11 C           1.0925   -0.2815   -1.7214 C.3     1  LIG1       -0.0457
     12 C           0.1997    0.9641   -1.5340 C.3     1  LIG1       -0.0198
     13 H           0.7188    1.7550   -2.1003 H       1  LIG1        0.0346
     14 C           0.2032    1.4517   -0.0590 C.3     1  LIG1       -0.0392
     15 C          -1.1803    0.9318   -2.2053 C.2     1  LIG1       -0.0766
     16 C          -1.6712   -0.0938   -2.9248 C.2     1  LIG1       -0.0994
     17 C          -1.9800    2.2133   -2.1379 C.3     1  LIG1       -0.0438
     18 H          -3.1855   -0.8655    1.1567 H       1  LIG1        0.0534
     19 H          -1.9753   -0.9994   -0.2261 H       1  LIG1        0.0534
     20 H          -2.7519    0.2368    3.1187 H       1  LIG1        0.0274
     21 H          -1.6436    1.5991    2.9718 H       1  LIG1        0.0274
     22 H          -1.0818    0.0513    3.6520 H       1  LIG1        0.0274
     23 H           2.7270    0.7269    1.2047 H       1  LIG1        0.0572
     24 H           3.6605   -2.1111    0.5357 H       1  LIG1        0.0532
     25 H           4.6758   -0.6100    0.9174 H       1  LIG1        0.0532
     26 H           1.0149   -1.6103    2.8333 H       1  LIG1        0.0238
     27 H           1.6505   -2.7676    1.6595 H       1  LIG1        0.0238
     28 H          -0.0674   -2.4314    1.6930 H       1  LIG1        0.0238
     29 H          -0.0758   -1.8075   -0.7447 H       1  LIG1        0.0274
     30 H           1.6187   -2.1698   -0.8527 H       1  LIG1        0.0274
     31 H           0.9513   -0.7342   -2.7095 H       1  LIG1        0.0271
     32 H           2.1412    0.0434   -1.7251 H       1  LIG1        0.0271
     33 H          -0.5589    2.2173    0.1174 H       1  LIG1        0.0277
     34 H           1.1494    1.9977    0.0724 H       1  LIG1        0.0277
     35 H          -2.6344   -0.0209   -3.4233 H       1  LIG1        0.0534
     36 H          -1.1410   -1.0272   -3.0709 H       1  LIG1        0.0534
     37 H          -2.9226    2.1430   -2.6915 H       1  LIG1        0.0274
     38 H          -1.4062    3.0399   -2.5700 H       1  LIG1        0.0274
     39 H          -2.2426    2.4654   -1.1076 H       1  LIG1        0.0274
@<TRIPOS>BOND
     1     1     2    2
     2     1     3    1
     3     1     4    1
     4     4     5    1
     5     4     6    1
     6     6     7    1
     7     7     8    2
     8     6     9    1
     9     6    10    1
    10    10    11    1
    11    11    12    1
    12    12    14    1
    13     4    14    1
    14    15    16    2
    15    15    17    1
    16    12    15    1
    17    12    13    1
    18     2    18    1
    19     2    19    1
    20     3    20    1
    21     3    21    1
    22     3    22    1
    23     7    23    1
    24     8    24    1
    25     8    25    1
    26     9    26    1
    27     9    27    1
    28     9    28    1
    29    10    29    1
    30    10    30    1
    31    11    31    1
    32    11    32    1
    33    14    33    1
    34    14    34    1
    35    16    35    1
    36    16    36    1
    37    17    37    1
    38    17    38    1
    39    17    39    1
