REMARK  Name = NuBBE_2453
REMARK  9 active torsions:
REMARK  status: ('A' for Active; 'I' for Inactive)
REMARK    1  A    between atoms: C_1  and  C_2
REMARK    2  A    between atoms: C_1  and  C_4
REMARK    3  A    between atoms: C_7  and  C_21
REMARK    4  A    between atoms: C_8  and  C_10
REMARK    5  A    between atoms: C_14  and  O_16
REMARK    6  A    between atoms: O_16  and  C_17
REMARK    7  A    between atoms: C_23  and  O_26
REMARK    8  A    between atoms: C_24  and  O_25
REMARK    9  A    between atoms: O_26  and  C_27
REMARK                            x       y       z     vdW  Elec       q    Type
REMARK                         _______ _______ _______ _____ _____    ______ ____
ROOT
ATOM      1  C   LIG A   1      -1.495   2.498  -1.117  0.00  0.00    +0.044 A 
ATOM      2  C   LIG A   1      -0.464   1.628  -0.729  0.00  0.00    +0.143 A 
ATOM      3  C   LIG A   1       0.891   1.918  -0.796  0.00  0.00    +0.028 A 
ATOM      4  C   LIG A   1       1.582   0.770  -0.291  0.00  0.00    +0.003 A 
ATOM      5  C   LIG A   1       0.598  -0.159   0.025  0.00  0.00    +0.139 A 
ATOM      6  O   LIG A   1      -0.635   0.367  -0.242  0.00  0.00    -0.454 OA
ATOM      7  C   LIG A   1       3.058   0.625  -0.190  0.00  0.00    +0.048 C 
ATOM      8  C   LIG A   1       1.294   3.166  -1.311  0.00  0.00    +0.061 A 
ATOM      9  C   LIG A   1       0.317   4.064  -1.747  0.00  0.00    +0.162 A 
ATOM     10  C   LIG A   1      -1.043   3.722  -1.643  0.00  0.00    +0.166 A 
ENDROOT
BRANCH   5  11
ATOM     11  C   LIG A   1       0.585  -1.521   0.563  0.00  0.00    +0.025 A 
ATOM     12  C   LIG A   1       1.600  -1.959   1.421  0.00  0.00    +0.061 A 
ATOM     13  C   LIG A   1       1.553  -3.252   1.899  0.00  0.00    +0.171 A 
ATOM     14  C   LIG A   1       0.542  -4.124   1.568  0.00  0.00    +0.208 A 
ATOM     15  C   LIG A   1      -0.490  -3.738   0.733  0.00  0.00    +0.166 A 
ATOM     16  C   LIG A   1      -0.457  -2.424   0.232  0.00  0.00    +0.061 A 
ATOM     17  O   LIG A   1       0.722  -5.335   2.167  0.00  0.00    -0.449 OA
ATOM     18  C   LIG A   1       1.927  -5.118   2.916  0.00  0.00    +0.467 C 
ATOM     19  O   LIG A   1       2.474  -3.801   2.739  0.00  0.00    -0.452 OA
BRANCH  15  20
ATOM     20  O   LIG A   1      -1.555  -4.496   0.332  0.00  0.00    -0.491 OA
ATOM     21  C   LIG A   1      -1.613  -5.825   0.842  0.00  0.00    +0.277 C 
ENDBRANCH  15  20
ENDBRANCH   5  11
BRANCH  10  22
ATOM     22  O   LIG A   1      -1.972   4.631  -2.095  0.00  0.00    -0.503 OA
ATOM     23  H   LIG A   1      -1.451   5.380  -2.445  0.00  0.00    +0.292 HD
ENDBRANCH  10  22
BRANCH   9  24
ATOM     24  O   LIG A   1       0.570   5.299  -2.297  0.00  0.00    -0.491 OA
ATOM     25  C   LIG A   1       1.943   5.652  -2.447  0.00  0.00    +0.277 C 
ENDBRANCH   9  24
BRANCH   1  26
ATOM     26  C   LIG A   1      -2.953   2.139  -1.013  0.00  0.00    +0.069 C 
BRANCH  26  27
ATOM     27  C   LIG A   1      -3.412   1.974   0.409  0.00  0.00    -0.030 C 
ATOM     28  C   LIG A   1      -3.950   0.839   0.896  0.00  0.00    +0.004 C 
ENDBRANCH  26  27
ENDBRANCH   1  26
TORSDOF 6
