@<TRIPOS>MOLECULE
NuBBE_928
 81 85 0 0 0
SMALL
GASTEIGER

@<TRIPOS>ATOM
      1 C          -3.3465    1.8610    2.2269 C.3     1  LIG1       -0.0588
      2 C          -2.1867    1.6831    1.2254 C.3     1  LIG1       -0.0231
      3 C          -2.0577    0.1694    0.8048 C.3     1  LIG1       -0.0289
      4 H          -1.3217    0.1236   -0.0073 H       1  LIG1        0.0312
      5 C          -1.4671   -0.7008    1.9172 C.3     1  LIG1       -0.0194
      6 C          -1.5948   -2.2327    1.7582 C.3     1  LIG1       -0.0196
      7 C          -2.3255   -1.5002    2.8725 C.3     1  LIG1       -0.0401
      8 C          -2.4877   -2.8493    0.6585 C.3     1  LIG1       -0.0299
      9 H          -3.3578   -3.2916    1.1646 H       1  LIG1        0.0310
     10 C          -3.0128   -1.8188   -0.3591 C.3     1  LIG1       -0.0491
     11 C          -3.3400   -0.4543    0.2306 C.3     1  LIG1       -0.0489
     12 C          -1.7396   -3.9922   -0.0866 C.3     1  LIG1       -0.0144
     13 H          -0.8525   -3.5607   -0.5735 H       1  LIG1        0.0326
     14 C          -2.5729   -4.6342   -1.2060 C.3     1  LIG1       -0.0598
     15 C          -1.2709   -5.0922    0.8858 C.3     1  LIG1        0.0581
     16 H          -2.0843   -5.8009    1.0795 H       1  LIG1        0.0596
     17 C          -0.7700   -4.5677    2.2279 C.3     1  LIG1       -0.0261
     18 C          -0.4020   -3.0952    2.1590 C.3     1  LIG1       -0.0442
     19 O          -0.2285   -5.8496    0.2626 O.3     1  LIG1       -0.3915
     20 C          -0.1548   -0.1643    2.4435 C.3     1  LIG1       -0.0460
     21 C          -0.2201    1.3079    2.8088 C.3     1  LIG1       -0.0463
     22 C          -0.7976    2.2429    1.7362 C.3     1  LIG1       -0.0233
     23 C          -0.9531    3.6233    2.4583 C.3     1  LIG1       -0.0588
     24 C           0.0312    2.5494    0.4086 C.3     1  LIG1       -0.0325
     25 H           0.4860    3.5434    0.5376 H       1  LIG1        0.0309
     26 C          -1.0722    2.7199   -0.6775 C.3     1  LIG1       -0.0489
     27 C          -2.4303    2.5878    0.0022 C.3     1  LIG1       -0.0466
     28 C           1.2239    1.6607   -0.1157 C.3     1  LIG1       -0.0402
     29 H           0.8516    0.6556   -0.3418 H       1  LIG1        0.0301
     30 C           1.8037    2.2548   -1.4424 C.3     1  LIG1       -0.0465
     31 C           2.9238    1.4258   -2.1185 C.3     1  LIG1       -0.0315
     32 C           3.4862    1.9737   -3.4245 C.2     1  LIG1       -0.0740
     33 C           3.0285    3.1263   -3.9761 C.2     1  LIG1       -0.0992
     34 C           4.5995    1.1855   -4.1248 C.3     1  LIG1       -0.0258
     35 C           6.0052    1.6181   -3.6858 C.3     1  LIG1       -0.0590
     36 C           4.4830   -0.3346   -3.9553 C.3     1  LIG1       -0.0590
     37 C           2.3854    1.5604    0.8817 C.3     1  LIG1       -0.0621
     38 H          -3.1703    1.3116    3.1563 H       1  LIG1        0.0235
     39 H          -4.2963    1.5153    1.8068 H       1  LIG1        0.0235
     40 H          -3.5080    2.9117    2.4890 H       1  LIG1        0.0235
     41 H          -1.9829   -1.6365    3.8947 H       1  LIG1        0.0276
     42 H          -3.4053   -1.4146    2.8310 H       1  LIG1        0.0276
     43 H          -3.9166   -2.2145   -0.8387 H       1  LIG1        0.0268
     44 H          -2.2754   -1.6756   -1.1599 H       1  LIG1        0.0268
     45 H          -4.1303   -0.5564    0.9806 H       1  LIG1        0.0268
     46 H          -3.7509    0.1674   -0.5702 H       1  LIG1        0.0268
     47 H          -2.7881   -3.9212   -2.0075 H       1  LIG1        0.0233
     48 H          -3.5250   -5.0123   -0.8191 H       1  LIG1        0.0233
     49 H          -2.0361   -5.4719   -1.6638 H       1  LIG1        0.0233
     50 H           0.0965   -5.1443    2.5736 H       1  LIG1        0.0290
     51 H          -1.5613   -4.6917    2.9773 H       1  LIG1        0.0290
     52 H           0.4135   -2.9398    1.4419 H       1  LIG1        0.0272
     53 H          -0.0165   -2.8093    3.1437 H       1  LIG1        0.0272
     54 H           0.5183   -5.2488    0.0966 H       1  LIG1        0.2098
     55 H           0.6109   -0.3698    1.6948 H       1  LIG1        0.0271
     56 H           0.1558   -0.6947    3.3512 H       1  LIG1        0.0271
     57 H           0.7579    1.6648    3.1476 H       1  LIG1        0.0271
     58 H          -0.8535    1.3772    3.7054 H       1  LIG1        0.0271
     59 H          -1.5648    3.5495    3.3635 H       1  LIG1        0.0235
     60 H          -1.3999    4.3880    1.8155 H       1  LIG1        0.0235
     61 H           0.0277    4.0013    2.7726 H       1  LIG1        0.0235
     62 H          -0.9983    1.9513   -1.4539 H       1  LIG1        0.0268
     63 H          -0.9878    3.6945   -1.1728 H       1  LIG1        0.0268
     64 H          -3.1824    2.2029   -0.6913 H       1  LIG1        0.0271
     65 H          -2.7865    3.5797    0.3060 H       1  LIG1        0.0271
     66 H           2.1854    3.2628   -1.2330 H       1  LIG1        0.0271
     67 H           0.9949    2.3655   -2.1735 H       1  LIG1        0.0271
     68 H           2.5231    0.4197   -2.3007 H       1  LIG1        0.0310
     69 H           3.7772    1.3250   -1.4425 H       1  LIG1        0.0310
     70 H           2.2436    3.7119   -3.5145 H       1  LIG1        0.0534
     71 H           3.4294    3.5267   -4.8939 H       1  LIG1        0.0534
     72 H           4.5268    1.3840   -5.2039 H       1  LIG1        0.0340
     73 H           6.1737    1.4270   -2.6208 H       1  LIG1        0.0235
     74 H           6.1793    2.6818   -3.8775 H       1  LIG1        0.0235
     75 H           6.7662    1.0586   -4.2446 H       1  LIG1        0.0235
     76 H           4.6777   -0.6357   -2.9193 H       1  LIG1        0.0235
     77 H           5.2199   -0.8489   -4.5835 H       1  LIG1        0.0235
     78 H           3.4912   -0.6960   -4.2413 H       1  LIG1        0.0235
     79 H           2.7613    2.5517    1.1504 H       1  LIG1        0.0233
     80 H           3.2162    0.9780    0.4757 H       1  LIG1        0.0233
     81 H           2.1289    1.0401    1.7969 H       1  LIG1        0.0233
@<TRIPOS>BOND
     1     1     2    1
     2     2     3    1
     3     3     4    1
     4     3     5    1
     5     5     6    1
     6     6     7    1
     7     5     7    1
     8     6     8    1
     9     8     9    1
    10     8    10    1
    11    10    11    1
    12     3    11    1
    13     8    12    1
    14    12    13    1
    15    12    14    1
    16    12    15    1
    17    15    17    1
    18    17    18    1
    19     6    18    1
    20     5    20    1
    21    20    21    1
    22    21    22    1
    23     2    22    1
    24    22    23    1
    25    22    24    1
    26    24    26    1
    27    26    27    1
    28     2    27    1
    29    28    29    1
    30    28    30    1
    31    30    31    1
    32    31    32    1
    33    32    33    2
    34    32    34    1
    35    34    35    1
    36    34    36    1
    37    28    37    1
    38    15    19    1
    39    15    16    1
    40    24    28    1
    41    24    25    1
    42     1    38    1
    43     1    39    1
    44     1    40    1
    45     7    41    1
    46     7    42    1
    47    10    43    1
    48    10    44    1
    49    11    45    1
    50    11    46    1
    51    14    47    1
    52    14    48    1
    53    14    49    1
    54    17    50    1
    55    17    51    1
    56    18    52    1
    57    18    53    1
    58    19    54    1
    59    20    55    1
    60    20    56    1
    61    21    57    1
    62    21    58    1
    63    23    59    1
    64    23    60    1
    65    23    61    1
    66    26    62    1
    67    26    63    1
    68    27    64    1
    69    27    65    1
    70    30    66    1
    71    30    67    1
    72    31    68    1
    73    31    69    1
    74    33    70    1
    75    33    71    1
    76    34    72    1
    77    35    73    1
    78    35    74    1
    79    35    75    1
    80    36    76    1
    81    36    77    1
    82    36    78    1
    83    37    79    1
    84    37    80    1
    85    37    81    1
