@<TRIPOS>MOLECULE
NuBBE_2487
 34 37 0 0 0
SMALL
GASTEIGER

@<TRIPOS>ATOM
      1 O          -3.4947   -1.7670    0.0038 O.2     1  LIG1       -0.2444
      2 C          -2.2758   -1.6241    0.0036 C.ar    1  LIG1        0.3488
      3 C          -1.6259   -0.3342    0.0016 C.ar    1  LIG1        0.1128
      4 C          -0.2581   -0.2630   -0.0002 C.ar    1  LIG1        0.1538
      5 C           0.6408   -1.3757    0.0043 C.ar    1  LIG1        0.0607
      6 C           0.0279   -2.6337    0.0069 C.ar    1  LIG1        0.1461
      7 O          -1.3986   -2.7471    0.0037 O.2     1  LIG1       -0.4214
      8 C           0.7834   -3.8010    0.0164 C.ar    1  LIG1        0.0232
      9 C           2.1798   -3.7078    0.0266 C.ar    1  LIG1        0.1236
     10 C           2.7949   -2.4476    0.0201 C.ar    1  LIG1       -0.0191
     11 C           2.0266   -1.2795    0.0099 C.ar    1  LIG1       -0.0441
     12 O           2.8369   -4.9085    0.0456 O.3     1  LIG1       -0.4950
     13 C           4.2590   -4.8573    0.0810 C.3     1  LIG1        0.0788
     14 O           0.1945    1.0064   -0.0065 O.2     1  LIG1       -0.4537
     15 C          -0.9220    1.7916   -0.0083 C.ar    1  LIG1        0.1400
     16 C          -2.0782    1.0105    0.0004 C.ar    1  LIG1        0.0351
     17 C          -3.3198    1.6679    0.0043 C.ar    1  LIG1       -0.0467
     18 C          -3.3324    3.0730   -0.0091 C.ar    1  LIG1       -0.0191
     19 C          -2.1485    3.8230   -0.0259 C.ar    1  LIG1        0.1236
     20 C          -0.9063    3.1846   -0.0193 C.ar    1  LIG1        0.0230
     21 O          -2.3323    5.1815   -0.0515 O.3     1  LIG1       -0.4950
     22 C          -1.1562    5.9829   -0.0940 C.3     1  LIG1        0.0788
     23 H           0.2987   -4.7727    0.0190 H       1  LIG1        0.0691
     24 H           3.8748   -2.3380    0.0243 H       1  LIG1        0.0654
     25 H           2.5150   -0.3083    0.0087 H       1  LIG1        0.0627
     26 H           4.6323   -5.8838    0.1395 H       1  LIG1        0.0660
     27 H           4.6153   -4.3244    0.9693 H       1  LIG1        0.0660
     28 H           4.6569   -4.4076   -0.8350 H       1  LIG1        0.0660
     29 H          -4.2517    1.1084    0.0148 H       1  LIG1        0.0626
     30 H          -4.2897    3.5920   -0.0090 H       1  LIG1        0.0654
     31 H           0.0398    3.7067   -0.0260 H       1  LIG1        0.0691
     32 H          -1.4644    7.0296   -0.1718 H       1  LIG1        0.0660
     33 H          -0.5472    5.7518   -0.9748 H       1  LIG1        0.0660
     34 H          -0.5749    5.8716    0.8275 H       1  LIG1        0.0660
@<TRIPOS>BOND
     1     1     2    2
     2     2     3   ar
     3     3     4   ar
     4     4     5   ar
     5     5     6   ar
     6     6     7   ar
     7     2     7   ar
     8     6     8   ar
     9     8     9   ar
    10     9    10   ar
    11    10    11   ar
    12     5    11   ar
    13     9    12    1
    14    12    13    1
    15     4    14   ar
    16    14    15   ar
    17    15    16   ar
    18     3    16   ar
    19    16    17   ar
    20    17    18   ar
    21    18    19   ar
    22    19    20   ar
    23    15    20   ar
    24    19    21    1
    25    21    22    1
    26     8    23    1
    27    10    24    1
    28    11    25    1
    29    13    26    1
    30    13    27    1
    31    13    28    1
    32    17    29    1
    33    18    30    1
    34    20    31    1
    35    22    32    1
    36    22    33    1
    37    22    34    1
