REMARK  Name = NuBBE_2388
REMARK  10 active torsions:
REMARK  status: ('A' for Active; 'I' for Inactive)
REMARK    1  A    between atoms: C_1  and  C_2
REMARK    2  A    between atoms: C_5  and  C_6
REMARK    3  A    between atoms: C_5  and  C_9
REMARK    4  A    between atoms: C_6  and  O_8
REMARK    5  A    between atoms: C_17  and  C_19
REMARK    6  A    between atoms: C_19  and  C_20
REMARK    7  A    between atoms: C_20  and  C_21
REMARK    8  A    between atoms: C_21  and  C_26
REMARK    9  A    between atoms: C_22  and  C_23
REMARK   10  A    between atoms: C_23  and  O_25
REMARK                            x       y       z     vdW  Elec       q    Type
REMARK                         _______ _______ _______ _____ _____    ______ ____
ROOT
ATOM      1  C   LIG A   1      -1.559  -0.548  -0.743  0.00  0.00    +0.012 C 
ATOM      2  C   LIG A   1      -0.633  -0.550   0.497  0.00  0.00    -0.022 C 
ATOM      3  C   LIG A   1      -1.402  -0.197   1.843  0.00  0.00    +0.012 C 
ATOM      4  C   LIG A   1      -2.554  -1.199   2.231  0.00  0.00    +0.068 C 
ATOM      5  C   LIG A   1      -3.128  -0.871   3.635  0.00  0.00    +0.023 C 
ATOM      6  C   LIG A   1      -1.913  -2.605   2.337  0.00  0.00    +0.018 C 
ATOM      7  C   LIG A   1      -1.094  -3.024   1.117  0.00  0.00    +0.002 C 
ATOM      8  C   LIG A   1      -0.054  -1.983   0.694  0.00  0.00    +0.007 C 
ATOM      9  C   LIG A   1      -1.776   1.295   1.955  0.00  0.00    +0.009 C 
ATOM     10  C   LIG A   1      -0.540   2.172   1.792  0.00  0.00    +0.031 C 
ATOM     11  C   LIG A   1       0.030   1.920   0.424  0.00  0.00    -0.073 C 
ATOM     12  C   LIG A   1      -0.036   2.888  -0.506  0.00  0.00    +0.008 C 
ATOM     13  C   LIG A   1       0.556   0.495   0.242  0.00  0.00    +0.021 C 
ENDROOT
BRANCH   4  14
ATOM     14  C   LIG A   1      -3.790  -1.089   1.311  0.00  0.00    +0.311 C 
ATOM     15  O   LIG A   1      -4.390  -0.038   1.120  0.00  0.00    -0.250 OA
BRANCH  14  16
ATOM     16  O   LIG A   1      -4.239  -2.226   0.743  0.00  0.00    -0.480 OA
ATOM     17  H   LIG A   1      -3.739  -3.042   0.908  0.00  0.00    +0.295 HD
ENDBRANCH  14  16
ENDBRANCH   4  14
BRANCH  13  18
ATOM     18  C   LIG A   1       1.324   0.256  -1.094  0.00  0.00    +0.013 C 
BRANCH  18  19
ATOM     19  C   LIG A   1       2.639   1.049  -1.231  0.00  0.00    +0.031 C 
BRANCH  19  20
ATOM     20  C   LIG A   1       3.326   0.830  -2.570  0.00  0.00    -0.066 C 
ATOM     21  C   LIG A   1       3.555   1.872  -3.415  0.00  0.00    +0.090 C 
ATOM     22  C   LIG A   1       3.793  -0.571  -2.869  0.00  0.00    +0.039 C 
BRANCH  21  23
ATOM     23  C   LIG A   1       4.238   1.775  -4.711  0.00  0.00    +0.330 C 
ATOM     24  O   LIG A   1       4.444   0.746  -5.342  0.00  0.00    -0.246 OA
BRANCH  23  25
ATOM     25  O   LIG A   1       4.639   2.992  -5.147  0.00  0.00    -0.477 OA
ATOM     26  H   LIG A   1       4.513   3.732  -4.519  0.00  0.00    +0.295 HD
ENDBRANCH  23  25
ENDBRANCH  21  23
ENDBRANCH  19  20
ENDBRANCH  18  19
ENDBRANCH  13  18
TORSDOF 7
