REMARK  Name = NuBBE_1294
REMARK  15 active torsions:
REMARK  status: ('A' for Active; 'I' for Inactive)
REMARK    1  A    between atoms: C_2  and  O_3
REMARK    2  A    between atoms: C_2  and  C_52
REMARK    3  A    between atoms: O_3  and  C_4
REMARK    4  A    between atoms: C_6  and  C_51
REMARK    5  A    between atoms: C_8  and  C_9
REMARK    6  A    between atoms: C_10  and  O_13
REMARK    7  A    between atoms: O_13  and  C_14
REMARK    8  A    between atoms: C_14  and  C_15
REMARK    9  A    between atoms: C_21  and  O_40
REMARK   10  A    between atoms: C_23  and  C_39
REMARK   11  A    between atoms: C_27  and  C_38
REMARK   12  A    between atoms: C_31  and  C_33
REMARK   13  A    between atoms: O_40  and  C_41
REMARK   14  A    between atoms: C_41  and  C_42
REMARK   15  A    between atoms: C_43  and  C_44
REMARK                            x       y       z     vdW  Elec       q    Type
REMARK                         _______ _______ _______ _____ _____    ______ ____
ROOT
ATOM      1  C   LIG A   1      -3.507  -0.900  -0.088  0.00  0.00    +0.186 C 
ATOM      2  C   LIG A   1      -2.229   0.007  -0.199  0.00  0.00    +0.015 C 
ATOM      3  C   LIG A   1      -1.516  -0.188  -1.534  0.00  0.00    +0.043 C 
ATOM      4  C   LIG A   1      -1.930  -1.248  -2.542  0.00  0.00    +0.034 C 
ATOM      5  C   LIG A   1      -1.615  -2.741  -2.301  0.00  0.00    +0.017 C 
ATOM      6  C   LIG A   1      -3.438  -1.057  -2.745  0.00  0.00    +0.188 C 
ATOM      7  C   LIG A   1      -4.181  -1.354  -1.418  0.00  0.00    +0.090 C 
ATOM      8  C   LIG A   1      -0.955  -0.812  -3.648  0.00  0.00    +0.171 C 
ATOM      9  O   LIG A   1       0.292  -0.563  -2.936  0.00  0.00    -0.372 OA
ATOM     10  C   LIG A   1      -0.021  -0.188  -1.565  0.00  0.00    +0.164 C 
ATOM     11  C   LIG A   1       0.704  -1.075  -0.523  0.00  0.00    +0.216 C 
ATOM     12  C   LIG A   1      -0.040  -1.179   0.893  0.00  0.00    +0.032 C 
ATOM     13  C   LIG A   1      -1.163  -0.067   0.985  0.00  0.00    +0.012 C 
ATOM     14  C   LIG A   1      -1.780   0.026   2.396  0.00  0.00    +0.006 C 
ATOM     15  C   LIG A   1      -0.719   0.449   3.415  0.00  0.00    +0.012 C 
ATOM     16  C   LIG A   1       0.455  -0.537   3.462  0.00  0.00    -0.003 C 
ATOM     17  C   LIG A   1       0.900  -1.086   2.105  0.00  0.00    -0.057 C 
ATOM     18  C   LIG A   1       2.196  -1.448   2.185  0.00  0.00    -0.026 C 
ATOM     19  C   LIG A   1       2.830  -1.018   3.476  0.00  0.00    +0.036 C 
ATOM     20  C   LIG A   1       1.818   0.039   3.982  0.00  0.00    +0.036 C 
ATOM     21  C   LIG A   1       0.018  -1.707   4.397  0.00  0.00    +0.016 C 
ATOM     22  C   LIG A   1      -0.649  -2.594   1.024  0.00  0.00    +0.020 C 
ATOM     23  C   LIG A   1      -2.721   1.515  -0.213  0.00  0.00    +0.015 C 
ENDROOT
BRANCH  20  24
ATOM     24  C   LIG A   1       2.233   1.414   3.475  0.00  0.00    -0.005 A 
ATOM     25  C   LIG A   1       1.893   2.054   2.296  0.00  0.00    +0.198 A 
ATOM     26  O   LIG A   1       2.508   3.253   2.182  0.00  0.00    -0.471 OA
ATOM     27  C   LIG A   1       3.290   3.394   3.277  0.00  0.00    +0.195 A 
ATOM     28  C   LIG A   1       3.163   2.299   4.101  0.00  0.00    +0.045 A 
ENDBRANCH  20  24
BRANCH   1  29
ATOM     29  O   LIG A   1      -4.484  -0.135   0.664  0.00  0.00    -0.461 OA
BRANCH  29  31
ATOM     30  O   LIG A   1      -5.266  -1.887   1.917  0.00  0.00    -0.251 OA
ATOM     31  C   LIG A   1      -5.083  -0.682   1.740  0.00  0.00    +0.304 C 
ATOM     32  C   LIG A   1      -5.413   0.394   2.729  0.00  0.00    +0.136 C 
ENDBRANCH  29  31
ENDBRANCH   1  29
BRANCH   6  33
ATOM     33  O   LIG A   1      -3.898  -1.994  -3.734  0.00  0.00    -0.461 OA
BRANCH  33  34
ATOM     34  C   LIG A   1      -3.868  -1.577  -5.026  0.00  0.00    +0.304 C 
ATOM     35  C   LIG A   1      -3.634  -2.751  -5.926  0.00  0.00    +0.136 C 
ATOM     36  O   LIG A   1      -3.938  -0.414  -5.401  0.00  0.00    -0.251 OA
ENDBRANCH  33  34
ENDBRANCH   6  33
BRANCH  11  37
ATOM     37  O   LIG A   1       2.012  -0.438  -0.446  0.00  0.00    -0.455 OA
BRANCH  37  38
ATOM     38  C   LIG A   1       2.869  -0.804  -1.437  0.00  0.00    +0.332 C 
ATOM     39  O   LIG A   1       2.832  -1.842  -2.085  0.00  0.00    -0.246 OA
BRANCH  38  40
ATOM     40  C   LIG A   1       3.781   0.294  -1.794  0.00  0.00    +0.092 C 
ATOM     41  C   LIG A   1       4.150   1.287  -0.972  0.00  0.00    +0.015 C 
BRANCH  41  42
ATOM     42  C   LIG A   1       4.997   2.404  -1.414  0.00  0.00    -0.025 A 
ATOM     43  C   LIG A   1       5.864   3.014  -0.501  0.00  0.00    +0.008 A 
ATOM     44  C   LIG A   1       6.651   4.103  -0.889  0.00  0.00    +0.001 A 
ATOM     45  C   LIG A   1       6.568   4.600  -2.188  0.00  0.00    +0.000 A 
ATOM     46  C   LIG A   1       5.697   4.013  -3.101  0.00  0.00    +0.001 A 
ATOM     47  C   LIG A   1       4.912   2.926  -2.714  0.00  0.00    +0.008 A 
ENDBRANCH  41  42
ENDBRANCH  38  40
ENDBRANCH  37  38
ENDBRANCH  11  37
TORSDOF 9
