@<TRIPOS>MOLECULE
NuBBE_2024
 38 40 0 0 0
SMALL
GASTEIGER

@<TRIPOS>ATOM
      1 O          -1.8392   -0.8619    0.1507 O.2     1  LIG1       -0.2863
      2 C          -0.6069   -0.8195    0.1082 C.ar    1  LIG1        0.2038
      3 C           0.1398   -2.0898    0.0984 C.ar    1  LIG1        0.1097
      4 C          -0.5213   -3.3218    0.1402 C.ar    1  LIG1        0.1349
      5 O          -1.8849   -3.4420    0.1820 O.3     1  LIG1       -0.5058
      6 C           0.1991   -4.5115    0.1367 C.ar    1  LIG1        0.0259
      7 C           1.5946   -4.4793    0.0882 C.ar    1  LIG1        0.1657
      8 O           2.2632   -5.6716    0.0547 O.3     1  LIG1       -0.5031
      9 C           2.2796   -3.2542    0.0457 C.ar    1  LIG1        0.2049
     10 O           3.6390   -3.0968   -0.0673 O.3     1  LIG1       -0.4885
     11 C           4.4623   -4.0827    0.5450 C.3     1  LIG1        0.0791
     12 C           1.5314   -2.0578    0.0452 C.ar    1  LIG1        0.1870
     13 O           2.2179   -0.8663    0.0014 O.2     1  LIG1       -0.4582
     14 C           1.5028    0.3080    0.0191 C.ar    1  LIG1        0.1040
     15 C           0.1670    0.4563    0.0735 C.ar    1  LIG1        0.0645
     16 C          -0.4735    1.8032    0.0776 C.ar    1  LIG1       -0.0076
     17 C          -1.7394    2.0150   -0.4967 C.ar    1  LIG1       -0.0086
     18 C          -2.3555    3.2785   -0.4838 C.ar    1  LIG1        0.1590
     19 O          -3.6038    3.4006   -1.0307 O.3     1  LIG1       -0.5033
     20 C          -1.7151    4.3739    0.0956 C.ar    1  LIG1        0.1613
     21 O          -2.1858    5.6532    0.2155 O.3     1  LIG1       -0.4915
     22 C          -3.0929    6.1001   -0.7850 C.3     1  LIG1        0.0790
     23 C          -0.4642    4.1734    0.6825 C.ar    1  LIG1       -0.0157
     24 C           0.1496    2.9124    0.6726 C.ar    1  LIG1       -0.0501
     25 H          -2.2696   -2.5358    0.1876 H       1  LIG1        0.2922
     26 H          -0.3447   -5.4517    0.1614 H       1  LIG1        0.0692
     27 H           1.6232   -6.4034    0.0513 H       1  LIG1        0.2923
     28 H           5.4894   -3.7034    0.5361 H       1  LIG1        0.0660
     29 H           4.4763   -5.0150   -0.0252 H       1  LIG1        0.0660
     30 H           4.1786   -4.2490    1.5896 H       1  LIG1        0.0660
     31 H           2.2075    1.1298   -0.0282 H       1  LIG1        0.1037
     32 H          -2.2647    1.1855   -0.9623 H       1  LIG1        0.0661
     33 H          -3.9312    2.5197   -1.2765 H       1  LIG1        0.2923
     34 H          -3.1807    7.1874   -0.6873 H       1  LIG1        0.0660
     35 H          -4.0943    5.6893   -0.6309 H       1  LIG1        0.0660
     36 H          -2.7170    5.8900   -1.7921 H       1  LIG1        0.0660
     37 H           0.0426    5.0134    1.1534 H       1  LIG1        0.0655
     38 H           1.1207    2.8235    1.1540 H       1  LIG1        0.0625
@<TRIPOS>BOND
     1     1     2    2
     2     2     3   ar
     3     3     4   ar
     4     4     5    1
     5     4     6   ar
     6     6     7   ar
     7     7     8    1
     8     7     9   ar
     9     9    10    1
    10    10    11    1
    11     9    12   ar
    12     3    12   ar
    13    12    13   ar
    14    13    14   ar
    15    14    15   ar
    16     2    15   ar
    17    15    16    1
    18    16    17   ar
    19    17    18   ar
    20    18    19    1
    21    18    20   ar
    22    20    21    1
    23    21    22    1
    24    20    23   ar
    25    23    24   ar
    26    16    24   ar
    27     5    25    1
    28     6    26    1
    29     8    27    1
    30    11    28    1
    31    11    29    1
    32    11    30    1
    33    14    31    1
    34    17    32    1
    35    19    33    1
    36    22    34    1
    37    22    35    1
    38    22    36    1
    39    23    37    1
    40    24    38    1
