REMARK  Name = NuBBE_184
REMARK  15 active torsions:
REMARK  status: ('A' for Active; 'I' for Inactive)
REMARK    1  A    between atoms: C_1  and  C_2
REMARK    2  A    between atoms: C_2  and  C_3
REMARK    3  A    between atoms: C_3  and  C_4
REMARK    4  A    between atoms: C_4  and  C_5
REMARK    5  A    between atoms: C_6  and  C_7
REMARK    6  A    between atoms: C_6  and  C_10
REMARK    7  A    between atoms: C_7  and  O_8
REMARK    8  A    between atoms: C_10  and  C_11
REMARK    9  A    between atoms: C_11  and  C_12
REMARK   10  A    between atoms: C_13  and  C_14
REMARK   11  A    between atoms: C_13  and  C_15
REMARK   12  A    between atoms: C_16  and  C_17
REMARK   13  A    between atoms: C_17  and  C_18
REMARK   14  A    between atoms: C_18  and  C_19
REMARK   15  A    between atoms: C_19  and  C_20
REMARK                            x       y       z     vdW  Elec       q    Type
REMARK                         _______ _______ _______ _____ _____    ______ ____
ROOT
ATOM      1  C   LIG A   1       1.112   1.117   0.309  0.00  0.00    -0.016 C 
ATOM      2  C   LIG A   1       1.388   0.454   1.473  0.00  0.00    +0.033 C 
ENDROOT
BRANCH   2   3
ATOM      3  C   LIG A   1       0.329  -0.337   2.156  0.00  0.00    +0.333 C 
ATOM      4  O   LIG A   1      -0.669  -0.897   1.642  0.00  0.00    -0.245 OA
BRANCH   3   5
ATOM      5  O   LIG A   1       0.479  -0.482   3.438  0.00  0.00    -0.477 OA
ATOM      6  H   LIG A   1      -0.254  -1.101   3.646  0.00  0.00    +0.295 HD
ENDBRANCH   3   5
ENDBRANCH   2   3
BRANCH   1   7
ATOM      7  C   LIG A   1      -0.229   1.171  -0.344  0.00  0.00    +0.032 C 
BRANCH   7   8
ATOM      8  C   LIG A   1      -0.286   1.190  -1.878  0.00  0.00    +0.034 C 
BRANCH   8  10
ATOM      9  C   LIG A   1      -2.606   0.335  -1.425  0.00  0.00    +0.038 C 
ATOM     10  C   LIG A   1      -1.736   1.127  -2.351  0.00  0.00    -0.076 C 
ATOM     11  C   LIG A   1      -2.150   1.734  -3.485  0.00  0.00    -0.027 C 
BRANCH  11  12
ATOM     12  C   LIG A   1      -3.535   1.905  -4.096  0.00  0.00    +0.034 C 
BRANCH  12  13
ATOM     13  C   LIG A   1      -4.793   1.334  -3.406  0.00  0.00    +0.078 C 
BRANCH  13  14
ATOM     14  C   LIG A   1      -5.070   1.976  -2.035  0.00  0.00    +0.131 C 
ATOM     15  C   LIG A   1      -5.733   1.127  -0.950  0.00  0.00    +0.086 C 
ATOM     16  O   LIG A   1      -4.749   3.142  -1.791  0.00  0.00    -0.298 OA
ENDBRANCH  13  14
ENDBRANCH  12  13
ENDBRANCH  11  12
ENDBRANCH   8  10
ENDBRANCH   7   8
ENDBRANCH   1   7
BRANCH   2  17
ATOM     17  C   LIG A   1       2.751   0.597   2.108  0.00  0.00    +0.046 C 
BRANCH  17  18
ATOM     18  C   LIG A   1       3.341  -0.546   2.955  0.00  0.00    +0.032 C 
BRANCH  18  19
ATOM     19  C   LIG A   1       3.471  -1.900   2.300  0.00  0.00    -0.028 C 
ATOM     20  C   LIG A   1       4.580  -2.664   2.199  0.00  0.00    -0.080 C 
ATOM     21  C   LIG A   1       5.970  -2.262   2.613  0.00  0.00    +0.038 C 
ATOM     22  C   LIG A   1       4.497  -4.093   1.720  0.00  0.00    +0.038 C 
ENDBRANCH  18  19
ENDBRANCH  17  18
ENDBRANCH   2  17
TORSDOF 11
