@<TRIPOS>MOLECULE
NuBBE_657
 24 24 0 0 0
SMALL
GASTEIGER

@<TRIPOS>ATOM
      1 O          -3.4613   -0.1065    0.6446 O.2     1  LIG1       -0.2974
      2 C          -2.2448   -0.1349    0.4633 C.2     1  LIG1        0.1336
      3 C          -1.4826   -1.4419    0.4532 C.3     1  LIG1        0.0084
      4 C          -0.4197   -1.4505   -0.6382 C.3     1  LIG1       -0.0173
      5 C           0.4871   -0.2041   -0.6153 C.3     1  LIG1        0.0667
      6 C          -0.3941    1.0534   -0.7163 C.3     1  LIG1       -0.0173
      7 C          -1.4310    1.1386    0.3943 C.3     1  LIG1        0.0084
      8 O           1.3296   -0.2557   -1.7704 O.3     1  LIG1       -0.3886
      9 C           1.4133   -0.2196    0.6219 C.3     1  LIG1       -0.0268
     10 C           2.3858    0.9530    0.6994 C.3     1  LIG1       -0.0627
     11 H          -2.1893   -2.2606    0.2794 H       1  LIG1        0.0342
     12 H          -1.0402   -1.5884    1.4436 H       1  LIG1        0.0342
     13 H          -0.9149   -1.5139   -1.6173 H       1  LIG1        0.0297
     14 H           0.1859   -2.3624   -0.5633 H       1  LIG1        0.0297
     15 H          -0.9119    1.0458   -1.6861 H       1  LIG1        0.0297
     16 H           0.2179    1.9622   -0.7350 H       1  LIG1        0.0297
     17 H          -2.1069    1.9781    0.1991 H       1  LIG1        0.0342
     18 H          -0.9628    1.3038    1.3697 H       1  LIG1        0.0342
     19 H           0.7713   -0.2598   -2.5670 H       1  LIG1        0.2102
     20 H           2.0159   -1.1372    0.5977 H       1  LIG1        0.0290
     21 H           0.8343   -0.2482    1.5508 H       1  LIG1        0.0290
     22 H           2.9946    1.0323   -0.2061 H       1  LIG1        0.0231
     23 H           3.0647    0.8170    1.5478 H       1  LIG1        0.0231
     24 H           1.8594    1.8998    0.8504 H       1  LIG1        0.0231
@<TRIPOS>BOND
     1     1     2    2
     2     2     3    1
     3     3     4    1
     4     4     5    1
     5     5     6    1
     6     6     7    1
     7     2     7    1
     8     5     8    1
     9     5     9    1
    10     9    10    1
    11     3    11    1
    12     3    12    1
    13     4    13    1
    14     4    14    1
    15     6    15    1
    16     6    16    1
    17     7    17    1
    18     7    18    1
    19     8    19    1
    20     9    20    1
    21     9    21    1
    22    10    22    1
    23    10    23    1
    24    10    24    1
