REMARK  Name = NuBBE_2063
REMARK  7 active torsions:
REMARK  status: ('A' for Active; 'I' for Inactive)
REMARK    1  A    between atoms: C_2  and  C_3
REMARK    2  A    between atoms: C_3  and  N_5
REMARK    3  A    between atoms: C_3  and  C_9
REMARK    4  A    between atoms: N_5  and  C_6
REMARK    5  A    between atoms: N_5  and  C_7
REMARK    6  A    between atoms: N_5  and  C_8
REMARK    7  A    between atoms: C_9  and  C_10
REMARK                            x       y       z     vdW  Elec       q    Type
REMARK                         _______ _______ _______ _____ _____    ______ ____
ROOT
ATOM      1  C   LIG A   1      -1.012  -0.765  -0.651  0.00  0.00    -0.017 A 
ATOM      2  C   LIG A   1      -1.401  -2.025  -0.231  0.00  0.00    +0.087 A 
ATOM      3  N   LIG A   1      -0.794  -2.956  -1.025  0.00  0.00    -0.360 N 
ATOM      4  C   LIG A   1       0.059  -2.341  -1.908  0.00  0.00    +0.047 A 
ATOM      5  C   LIG A   1       0.910  -2.906  -2.865  0.00  0.00    +0.026 A 
ATOM      6  C   LIG A   1       1.677  -2.038  -3.643  0.00  0.00    +0.002 A 
ATOM      7  C   LIG A   1       1.566  -0.659  -3.492  0.00  0.00    +0.001 A 
ATOM      8  C   LIG A   1       0.687  -0.108  -2.548  0.00  0.00    +0.010 A 
ATOM      9  C   LIG A   1      -0.070  -0.962  -1.718  0.00  0.00    +0.003 A 
ATOM     10  H   LIG A   1      -0.947  -3.954  -0.978  0.00  0.00    +0.165 HD
ENDROOT
BRANCH   1  11
ATOM     11  C   LIG A   1      -1.557   0.525  -0.099  0.00  0.00    +0.098 C 
BRANCH  11  12
ATOM     12  C   LIG A   1      -0.562   1.536   0.510  0.00  0.00    +0.117 C 
BRANCH  12  13
ATOM     13  N   LIG A   1       0.197   1.035   1.857  0.00  0.00    +0.243 N 
ATOM     14  C   LIG A   1       0.967  -0.237   1.631  0.00  0.00    +0.192 C 
ATOM     15  C   LIG A   1       1.185   2.144   2.231  0.00  0.00    +0.192 C 
ATOM     16  C   LIG A   1      -0.797   0.878   2.994  0.00  0.00    +0.192 C 
ENDBRANCH  12  13
BRANCH  12  18
ATOM     17  O   LIG A   1      -0.683   3.916   0.509  0.00  0.00    -0.544 OA
ATOM     18  C   LIG A   1      -1.382   2.872   0.682  0.00  0.00    +0.090 C 
ATOM     19  O   LIG A   1      -2.558   2.744   1.105  0.00  0.00    -0.544 OA
ENDBRANCH  12  18
ENDBRANCH  11  12
ENDBRANCH   1  11
TORSDOF 4
