@<TRIPOS>MOLECULE
NuBBE_539
 34 35 0 0 0
SMALL
GASTEIGER

@<TRIPOS>ATOM
      1 O          -2.1080   -0.7422   -0.1942 O.3     1  LIG1       -0.3876
      2 C          -0.7036   -0.5856    0.0148 C.3     1  LIG1        0.0770
      3 H          -0.4131   -1.2219    0.8578 H       1  LIG1        0.0639
      4 C           0.0119   -1.0293   -1.2710 C.3     1  LIG1        0.0143
      5 C          -0.2065   -2.5249   -1.5679 C.3     1  LIG1        0.1094
      6 H          -1.2833   -2.7410   -1.5838 H       1  LIG1        0.0738
      7 O           0.3748   -3.2960   -0.4938 O.3     1  LIG1       -0.4579
      8 C           0.3745   -4.6516   -0.5926 C.2     1  LIG1        0.3319
      9 C           0.3344   -5.2089   -1.9605 C.2     1  LIG1        0.0187
     10 C           0.3939   -4.4223   -3.0422 C.2     1  LIG1       -0.0738
     11 C           0.4132   -2.9316   -2.9101 C.3     1  LIG1        0.0032
     12 O           0.4716   -5.3844    0.3774 O.2     1  LIG1       -0.2456
     13 C          -0.4837    0.8667    0.3433 C.2     1  LIG1       -0.0552
     14 C           0.0465    1.3384    1.4875 C.2     1  LIG1       -0.0561
     15 C           0.1538    2.7758    1.8098 C.ar    1  LIG1       -0.0252
     16 C          -0.7785    3.7098    1.3329 C.ar    1  LIG1       -0.0546
     17 C          -0.6662    5.0669    1.6462 C.ar    1  LIG1       -0.0612
     18 C           0.3695    5.5096    2.4625 C.ar    1  LIG1       -0.0617
     19 C           1.2829    4.5919    2.9774 C.ar    1  LIG1       -0.0612
     20 C           1.1716    3.2319    2.6597 C.ar    1  LIG1       -0.0546
     21 H          -2.5577   -0.2742    0.5311 H       1  LIG1        0.2102
     22 H           1.0857   -0.8262   -1.1761 H       1  LIG1        0.0329
     23 H          -0.3688   -0.4486   -2.1219 H       1  LIG1        0.0329
     24 H           0.3294   -6.2902   -2.0298 H       1  LIG1        0.0686
     25 H           0.4369   -4.8613   -4.0347 H       1  LIG1        0.0575
     26 H          -0.1537   -2.4812   -3.7326 H       1  LIG1        0.0343
     27 H           1.4523   -2.5926   -2.9908 H       1  LIG1        0.0343
     28 H          -0.8352    1.5615   -0.4159 H       1  LIG1        0.0598
     29 H           0.4187    0.6525    2.2466 H       1  LIG1        0.0621
     30 H          -1.6133    3.3939    0.7132 H       1  LIG1        0.0623
     31 H          -1.3916    5.7738    1.2521 H       1  LIG1        0.0618
     32 H           0.4593    6.5662    2.7017 H       1  LIG1        0.0618
     33 H           2.0848    4.9365    3.6261 H       1  LIG1        0.0618
     34 H           1.8978    2.5385    3.0780 H       1  LIG1        0.0623
@<TRIPOS>BOND
     1     1     2    1
     2     2     3    1
     3     2     4    1
     4     4     5    1
     5     5     6    1
     6     5     7    1
     7     7     8    1
     8     8     9    1
     9     9    10    2
    10    10    11    1
    11     5    11    1
    12     8    12    2
    13     2    13    1
    14    13    14    2
    15    14    15    1
    16    15    16   ar
    17    16    17   ar
    18    17    18   ar
    19    18    19   ar
    20    19    20   ar
    21    15    20   ar
    22     1    21    1
    23     4    22    1
    24     4    23    1
    25     9    24    1
    26    10    25    1
    27    11    26    1
    28    11    27    1
    29    13    28    1
    30    14    29    1
    31    16    30    1
    32    17    31    1
    33    18    32    1
    34    19    33    1
    35    20    34    1
