REMARK  Name = NuBBE_1298
REMARK  4 active torsions:
REMARK  status: ('A' for Active; 'I' for Inactive)
REMARK    1  A    between atoms: O_1  and  C_2
REMARK    2  A    between atoms: C_2  and  C_3
REMARK    3  A    between atoms: N_4  and  C_5
REMARK    4  A    between atoms: C_7  and  O_8
REMARK                            x       y       z     vdW  Elec       q    Type
REMARK                         _______ _______ _______ _____ _____    ______ ____
ROOT
ATOM      1  C   LIG A   1       0.444   0.024  -0.740  0.00  0.00    +0.168 C 
ATOM      2  N   LIG A   1       0.123   1.004   0.338  0.00  0.00    -0.290 NA
ATOM      3  C   LIG A   1      -1.296   1.376   0.381  0.00  0.00    +0.105 C 
ATOM      4  C   LIG A   1       0.504   0.298   1.577  0.00  0.00    +0.116 C 
ATOM      5  C   LIG A   1       0.345  -1.207   1.312  0.00  0.00    +0.131 C 
ATOM      6  C   LIG A   1       0.051  -1.336  -0.176  0.00  0.00    +0.063 C 
ENDROOT
BRANCH   1   7
ATOM      7  C   LIG A   1      -0.206   0.337  -2.081  0.00  0.00    +0.322 C 
ATOM      8  O   LIG A   1      -1.226  -0.158  -2.535  0.00  0.00    -0.249 OA
BRANCH   7   9
ATOM      9  O   LIG A   1       0.453   1.290  -2.775  0.00  0.00    -0.479 OA
ATOM     10  H   LIG A   1      -0.094   1.426  -3.575  0.00  0.00    +0.295 HD
ENDBRANCH   7   9
ENDBRANCH   1   7
BRANCH   5  11
ATOM     11  O   LIG A   1       1.535  -1.920   1.638  0.00  0.00    -0.391 OA
ATOM     12  H   LIG A   1       2.278  -1.506   1.166  0.00  0.00    +0.210 HD
ENDBRANCH   5  11
TORSDOF 3
