@<TRIPOS>MOLECULE
NuBBE_2340
 49 52 0 0 0
SMALL
GASTEIGER

@<TRIPOS>ATOM
      1 C          -4.2213   -2.2770   -3.9024 C.3     1  LIG1        0.0790
      2 O          -4.0451   -2.3262   -2.4865 O.3     1  LIG1       -0.4913
      3 C          -2.8186   -1.9171   -2.0392 C.ar    1  LIG1        0.1657
      4 C          -1.6280   -2.0161   -2.7341 C.ar    1  LIG1        0.2075
      5 O          -1.4313   -2.5246   -3.9809 O.3     1  LIG1       -0.4489
      6 C          -0.0171   -2.3604   -4.1496 C.3     1  LIG1        0.2334
      7 O           0.6250   -1.7895   -2.9973 O.3     1  LIG1       -0.4525
      8 C          -0.4462   -1.5959   -2.1794 C.ar    1  LIG1        0.1703
      9 C          -0.3828   -1.0427   -0.9194 C.ar    1  LIG1       -0.0092
     10 C          -1.5578   -0.9152   -0.1624 C.ar    1  LIG1        0.0001
     11 C          -1.5547   -0.3497    1.2557 C.3     1  LIG1        0.1287
     12 H          -2.5809   -0.4138    1.6414 H       1  LIG1        0.0787
     13 O          -0.7552   -1.1943    2.1213 O.2     1  LIG1       -0.4872
     14 C           0.4904   -0.5810    2.1391 C.2     1  LIG1        0.1130
     15 C           0.4365    0.9222    1.9624 C.3     1  LIG1        0.0595
     16 C           0.6893    1.6180    3.3420 C.3     1  LIG1       -0.0185
     17 C           0.6567    3.1288    3.3137 C.2     1  LIG1       -0.0899
     18 C           1.6873    3.9079    3.6679 C.2     1  LIG1       -0.1026
     19 C          -1.0397    1.0817    1.5213 C.3     1  LIG1        0.0138
     20 H          -1.6000    1.4002    2.4156 H       1  LIG1        0.0350
     21 C          -1.3563    2.1467    0.4804 C.3     1  LIG1       -0.0575
     22 C           1.5991   -1.3144    1.9996 C.2     1  LIG1        0.0271
     23 C           2.8421   -0.6522    1.5333 C.2     1  LIG1        0.2231
     24 C           2.6638    0.6671    0.8088 C.2     1  LIG1        0.1637
     25 O           3.6397    1.2161   -0.0092 O.2     1  LIG1       -0.4916
     26 C           4.4732    0.2833   -0.6907 C.3     1  LIG1        0.0790
     27 C           1.5259    1.3582    1.0026 C.2     1  LIG1       -0.0243
     28 O           3.9124   -1.2129    1.6743 O.2     1  LIG1       -0.2839
     29 C          -2.7700   -1.3832   -0.7368 C.ar    1  LIG1       -0.0094
     30 H          -5.2284   -2.6308   -4.1373 H       1  LIG1        0.0660
     31 H          -3.5473   -2.9486   -4.4385 H       1  LIG1        0.0660
     32 H          -4.1254   -1.2468   -4.2628 H       1  LIG1        0.0660
     33 H           0.1542   -1.7053   -5.0113 H       1  LIG1        0.1166
     34 H           0.4208   -3.3424   -4.3588 H       1  LIG1        0.1166
     35 H           0.5858   -0.7448   -0.5511 H       1  LIG1        0.0659
     36 H          -0.0604    1.2847    4.0726 H       1  LIG1        0.0320
     37 H           1.6560    1.2850    3.7467 H       1  LIG1        0.0320
     38 H          -0.2668    3.6068    2.9970 H       1  LIG1        0.0567
     39 H           2.6320    3.4928    4.0074 H       1  LIG1        0.0532
     40 H           1.6077    4.9905    3.6261 H       1  LIG1        0.0532
     41 H          -0.8674    1.9624   -0.4790 H       1  LIG1        0.0234
     42 H          -1.0321    3.1317    0.8346 H       1  LIG1        0.0234
     43 H          -2.4360    2.2112    0.3102 H       1  LIG1        0.0234
     44 H           1.6101   -2.3948    2.0557 H       1  LIG1        0.0691
     45 H           5.0962    0.8451   -1.3937 H       1  LIG1        0.0660
     46 H           3.8792   -0.4364   -1.2640 H       1  LIG1        0.0660
     47 H           5.1565   -0.2218   -0.0047 H       1  LIG1        0.0660
     48 H           1.4252    2.3298    0.5249 H       1  LIG1        0.0620
     49 H          -3.6964   -1.3321   -0.1653 H       1  LIG1        0.0659
@<TRIPOS>BOND
     1     1     2    1
     2     2     3    1
     3     3     4   ar
     4     4     5    1
     5     5     6    1
     6     6     7    1
     7     4     8   ar
     8     7     8    1
     9     8     9   ar
    10     9    10   ar
    11    11    13    1
    12    13    14    1
    13    14    15    1
    14    16    17    1
    15    17    18    2
    16    15    19    1
    17    11    19    1
    18    14    22    2
    19    22    23    1
    20    23    24    1
    21    25    26    1
    22    24    27    2
    23    15    27    1
    24    10    29   ar
    25     3    29   ar
    26    10    11    1
    27    11    12    1
    28    15    16    1
    29    23    28    2
    30    24    25    1
    31    19    21    1
    32    19    20    1
    33     1    30    1
    34     1    31    1
    35     1    32    1
    36     6    33    1
    37     6    34    1
    38     9    35    1
    39    16    36    1
    40    16    37    1
    41    17    38    1
    42    18    39    1
    43    18    40    1
    44    21    41    1
    45    21    42    1
    46    21    43    1
    47    22    44    1
    48    26    45    1
    49    26    46    1
    50    26    47    1
    51    27    48    1
    52    29    49    1
