@<TRIPOS>MOLECULE
NuBBE_991
 57 61 0 0 0
SMALL
GASTEIGER

@<TRIPOS>ATOM
      1 C          -2.4555    1.4232    2.1062 C.3     1  LIG1       -0.0586
      2 C          -0.9862    0.9375    2.1020 C.3     1  LIG1       -0.0191
      3 C          -0.1604    1.8486    1.1286 C.3     1  LIG1       -0.0252
      4 C          -0.0021    1.1909   -0.2613 C.3     1  LIG1       -0.0339
      5 C           0.6204    2.1373   -1.2936 C.3     1  LIG1       -0.0494
      6 C           0.6476    1.4919   -2.6777 C.3     1  LIG1       -0.0493
      7 C           1.3811    0.1413   -2.6585 C.3     1  LIG1       -0.0303
      8 C           1.4441   -0.4689   -4.0747 C.3     1  LIG1       -0.0184
      9 C           0.2531   -1.3686   -4.3986 C.3     1  LIG1        0.1090
     10 H          -0.6142   -0.7655   -4.6920 H       1  LIG1        0.0647
     11 C          -0.1233   -2.2556   -3.1844 C.3     1  LIG1        0.1942
     12 C          -0.5632   -1.3784   -2.0280 C.3     1  LIG1        0.0120
     13 C           0.7956   -0.8474   -1.5805 C.3     1  LIG1        0.0052
     14 C           0.7873   -0.1459   -0.1937 C.3     1  LIG1       -0.0297
     15 C           0.3240   -1.0052    1.0051 C.3     1  LIG1       -0.0488
     16 C          -0.9923   -0.5373    1.6184 C.3     1  LIG1       -0.0464
     17 C           1.6056   -2.1611   -1.6354 C.3     1  LIG1        0.0573
     18 O           1.0303   -2.9536   -2.6992 O.3     1  LIG1       -0.3459
     19 O          -1.1137   -3.1877   -3.5653 O.3     1  LIG1       -0.3626
     20 O           0.5871   -2.1707   -5.5388 O.3     1  LIG1       -0.3865
     21 C           1.1774    2.1781    1.8060 C.3     1  LIG1        0.0097
     22 C           1.0502    1.6015    3.1810 C.2     1  LIG1        0.1372
     23 C          -0.3651    1.1882    3.5092 C.3     1  LIG1        0.0229
     24 H          -0.8188    2.0860    3.9529 H       1  LIG1        0.0383
     25 C          -0.3905    0.0696    4.5565 C.3     1  LIG1       -0.0459
     26 C          -1.7793   -0.2469    5.0891 C.3     1  LIG1       -0.0646
     27 O           1.9893    1.5549    3.9670 O.2     1  LIG1       -0.2971
     28 H          -2.8848    1.3916    1.0982 H       1  LIG1        0.0235
     29 H          -2.5354    2.4576    2.4594 H       1  LIG1        0.0235
     30 H          -3.0846    0.8032    2.7510 H       1  LIG1        0.0235
     31 H          -0.6912    2.8012    0.9892 H       1  LIG1        0.0313
     32 H          -1.0194    0.9786   -0.6193 H       1  LIG1        0.0307
     33 H           1.6409    2.4107   -1.0001 H       1  LIG1        0.0268
     34 H           0.0442    3.0687   -1.3452 H       1  LIG1        0.0268
     35 H           1.1491    2.1757   -3.3736 H       1  LIG1        0.0268
     36 H          -0.3768    1.3699   -3.0482 H       1  LIG1        0.0268
     37 H           2.4204    0.3639   -2.3732 H       1  LIG1        0.0308
     38 H           2.3666   -1.0598   -4.1623 H       1  LIG1        0.0295
     39 H           1.5456    0.3088   -4.8420 H       1  LIG1        0.0295
     40 H          -1.0404   -1.9866   -1.2503 H       1  LIG1        0.0324
     41 H          -1.2892   -0.6168   -2.3262 H       1  LIG1        0.0324
     42 H           1.8435    0.0845    0.0053 H       1  LIG1        0.0310
     43 H           1.1019   -0.9786    1.7785 H       1  LIG1        0.0268
     44 H           0.2169   -2.0594    0.7364 H       1  LIG1        0.0268
     45 H          -1.2789   -1.2205    2.4227 H       1  LIG1        0.0271
     46 H          -1.7730   -0.6713    0.8566 H       1  LIG1        0.0271
     47 H           1.5337   -2.7613   -0.7256 H       1  LIG1        0.0567
     48 H           2.6692   -2.0035   -1.8414 H       1  LIG1        0.0567
     49 H          -1.2179   -3.7704   -2.7944 H       1  LIG1        0.2128
     50 H           0.0605   -2.9887   -5.4361 H       1  LIG1        0.2100
     51 H           1.3066    3.2620    1.8882 H       1  LIG1        0.0345
     52 H           2.0534    1.7516    1.3157 H       1  LIG1        0.0345
     53 H           0.2230    0.3754    5.4143 H       1  LIG1        0.0269
     54 H           0.0844   -0.8410    4.1745 H       1  LIG1        0.0269
     55 H          -1.7074   -0.9556    5.9207 H       1  LIG1        0.0230
     56 H          -2.4159   -0.7027    4.3274 H       1  LIG1        0.0230
     57 H          -2.2735    0.6567    5.4597 H       1  LIG1        0.0230
@<TRIPOS>BOND
     1     1     2    1
     2     2     3    1
     3     3     4    1
     4     4     5    1
     5     5     6    1
     6     6     7    1
     7     7     8    1
     8     8     9    1
     9     9    11    1
    10    11    12    1
    11    12    13    1
    12    13    14    1
    13     4    14    1
    14    14    15    1
    15    15    16    1
    16     2    16    1
    17     7    13    1
    18    13    17    1
    19    17    18    1
    20    11    18    1
    21    11    19    1
    22     3    21    1
    23    21    22    1
    24    22    23    1
    25    23    24    1
    26     2    23    1
    27    23    25    1
    28    25    26    1
    29    22    27    2
    30     9    20    1
    31     9    10    1
    32     1    28    1
    33     1    29    1
    34     1    30    1
    35     3    31    1
    36     4    32    1
    37     5    33    1
    38     5    34    1
    39     6    35    1
    40     6    36    1
    41     7    37    1
    42     8    38    1
    43     8    39    1
    44    12    40    1
    45    12    41    1
    46    14    42    1
    47    15    43    1
    48    15    44    1
    49    16    45    1
    50    16    46    1
    51    17    47    1
    52    17    48    1
    53    19    49    1
    54    20    50    1
    55    21    51    1
    56    21    52    1
    57    25    53    1
    58    25    54    1
    59    26    55    1
    60    26    56    1
    61    26    57    1
