@<TRIPOS>MOLECULE
NuBBE_1705
 106 111 0 0 0
SMALL
GASTEIGER

@<TRIPOS>ATOM
      1 C          -3.9514   -0.3974   -1.3248 C.3     1  LIG1        0.1080
      2 O          -4.2328   -1.7720   -1.0233 O.3     1  LIG1       -0.4639
      3 C          -4.5548   -2.0581    0.2653 C.2     1  LIG1        0.3040
      4 O          -4.2391   -1.4429    1.2799 O.2     1  LIG1       -0.2512
      5 C          -5.3231   -3.3006    0.4114 C.3     1  LIG1        0.0332
      6 C          -2.4345    0.1356   -1.2926 C.3     1  LIG1        0.1197
      7 C          -1.7370    0.0378    0.1283 C.3     1  LIG1        0.1440
      8 C          -2.5175    0.8516    1.2146 C.3     1  LIG1        0.0969
      9 O          -3.9010    0.7931    1.4162 O.3     1  LIG1       -0.3883
     10 C          -2.1337    2.2900    0.8969 C.3     1  LIG1        0.0604
     11 C          -2.7624    2.7704   -0.4534 C.3     1  LIG1        0.1485
     12 C          -2.6359    1.7382   -1.6898 C.3     1  LIG1        0.1552
     13 O          -1.8439    2.2895   -2.8297 O.3     1  LIG1       -0.4569
     14 C          -0.5414    2.4967   -2.7416 C.2     1  LIG1        0.3043
     15 O           0.0963    2.2585   -1.6604 O.2     1  LIG1       -0.2512
     16 C           0.3624    2.8133   -3.8232 C.3     1  LIG1        0.0332
     17 O          -4.1709    3.0887   -0.1408 O.3     1  LIG1       -0.4573
     18 C          -4.3929    4.1919    0.6562 C.2     1  LIG1        0.3043
     19 O          -3.8465    5.2807    0.5220 O.2     1  LIG1       -0.2512
     20 C          -5.2474    3.8382    1.8505 C.3     1  LIG1        0.0332
     21 C          -0.6268    2.1548    0.8914 C.3     1  LIG1        0.1103
     22 O          -0.4743    0.8715    0.1550 O.3     1  LIG1       -0.3569
     23 C           0.0478    3.4495    0.3333 C.3     1  LIG1       -0.0321
     24 C           0.0053    2.0621    2.3377 C.3     1  LIG1        0.1219
     25 O           1.4252    1.7329    2.3085 O.3     1  LIG1       -0.4582
     26 C           1.8974    0.9192    3.3018 C.2     1  LIG1        0.3410
     27 O           1.2632    0.5356    4.2702 O.2     1  LIG1       -0.2449
     28 C           3.3264    0.5585    3.0833 C.ar    1  LIG1        0.0802
     29 C           3.8176   -0.7636    2.9514 C.ar    1  LIG1        0.0552
     30 C           2.9543   -2.0381    2.8937 C.3     1  LIG1       -0.0089
     31 C           3.2955   -3.0263    1.7193 C.3     1  LIG1       -0.0349
     32 C           2.2752   -4.1436    1.3105 C.3     1  LIG1        0.0540
     33 C           0.8954   -3.7861    0.7518 C.2     1  LIG1        0.3104
     34 O          -0.0904   -4.4939    0.9515 O.2     1  LIG1       -0.2505
     35 O           0.8760   -2.6506   -0.0012 O.3     1  LIG1       -0.4543
     36 C          -0.4049   -2.2310   -0.5892 C.3     1  LIG1        0.1742
     37 C          -1.2621   -1.4891    0.4780 C.3     1  LIG1        0.1356
     38 C          -0.6422   -1.4914    1.8760 C.3     1  LIG1       -0.0296
     39 O          -2.2961   -2.4580    0.5151 O.3     1  LIG1       -0.3821
     40 C          -0.3407   -1.5131   -1.9705 C.3     1  LIG1        0.1802
     41 C          -1.7153   -0.8328   -2.3540 C.3     1  LIG1        0.1584
     42 O          -1.8484   -0.1517   -3.6343 O.3     1  LIG1       -0.4567
     43 C          -1.1603   -0.3997   -4.7667 C.2     1  LIG1        0.3043
     44 O          -0.4503   -1.3692   -4.9820 O.2     1  LIG1       -0.2512
     45 C          -1.3091    0.7771   -5.7018 C.3     1  LIG1        0.0332
     46 O           0.7815   -0.6413   -1.9578 O.3     1  LIG1       -0.4502
     47 C           1.9645   -1.3277   -1.9374 C.2     1  LIG1        0.3397
     48 O           2.1599   -2.4801   -2.2942 O.2     1  LIG1       -0.2449
     49 C           3.0139   -0.4973   -1.3338 C.ar    1  LIG1        0.0590
     50 C           2.7129    0.5201   -0.4373 C.ar    1  LIG1       -0.0478
     51 C           3.7005    1.4128   -0.0547 C.ar    1  LIG1       -0.0610
     52 C           5.0008    1.2562   -0.5179 C.ar    1  LIG1       -0.0617
     53 C           5.3226    0.1703   -1.3257 C.ar    1  LIG1       -0.0610
     54 C           4.3351   -0.7345   -1.7000 C.ar    1  LIG1       -0.0478
     55 C           2.8914   -5.0875    0.2577 C.3     1  LIG1       -0.0523
     56 N           5.1633   -0.9929    2.8378 N.ar    1  LIG1       -0.2591
     57 C           6.0055    0.0681    2.7437 C.ar    1  LIG1        0.0279
     58 C           5.5948    1.3856    2.7888 C.ar    1  LIG1       -0.0428
     59 C           4.2424    1.6309    3.0067 C.ar    1  LIG1       -0.0446
     60 H          -4.6397    0.2204   -0.7490 H       1  LIG1        0.0706
     61 H          -4.3125   -0.2998   -2.3648 H       1  LIG1        0.0706
     62 H          -4.6621   -4.0876    0.7782 H       1  LIG1        0.0342
     63 H          -5.8045   -3.5709   -0.5250 H       1  LIG1        0.0342
     64 H          -6.0776   -3.0493    1.1623 H       1  LIG1        0.0342
     65 H          -2.1144    0.6262    2.1938 H       1  LIG1        0.0628
     66 H          -4.0424   -0.0346    1.9408 H       1  LIG1        0.2099
     67 H          -2.4559    2.9531    1.7044 H       1  LIG1        0.0393
     68 H          -2.3356    3.7206   -0.7797 H       1  LIG1        0.0776
     69 H          -3.6301    1.7912   -2.1528 H       1  LIG1        0.0781
     70 H           0.3013    2.0097   -4.5162 H       1  LIG1        0.0342
     71 H           1.3919    2.6779   -3.4523 H       1  LIG1        0.0342
     72 H           0.2934    3.8131   -4.2488 H       1  LIG1        0.0342
     73 H          -4.6433    3.2940    2.5843 H       1  LIG1        0.0342
     74 H          -6.1064    3.2365    1.5525 H       1  LIG1        0.0342
     75 H          -5.6230    4.7457    2.3368 H       1  LIG1        0.0342
     76 H          -0.4520    3.8949   -0.5264 H       1  LIG1        0.0259
     77 H           1.0906    3.2608    0.0584 H       1  LIG1        0.0259
     78 H           0.0107    4.2967    1.0275 H       1  LIG1        0.0259
     79 H          -0.5219    1.3688    2.9864 H       1  LIG1        0.0727
     80 H          -0.0948    3.0549    2.8017 H       1  LIG1        0.0727
     81 H           1.9045   -1.7712    2.8567 H       1  LIG1        0.0329
     82 H           3.1083   -2.5696    3.8440 H       1  LIG1        0.0329
     83 H           4.2042   -3.5643    2.0371 H       1  LIG1        0.0277
     84 H           3.5885   -2.4631    0.8299 H       1  LIG1        0.0277
     85 H           2.0804   -4.7405    2.2122 H       1  LIG1        0.0411
     86 H          -0.9020   -3.1776   -0.8770 H       1  LIG1        0.0803
     87 H           0.3154   -0.9788    1.8497 H       1  LIG1        0.0259
     88 H          -0.5277   -2.4982    2.2799 H       1  LIG1        0.0259
     89 H          -1.2759   -1.0227    2.6265 H       1  LIG1        0.0259
     90 H          -2.1278   -3.1485    1.1828 H       1  LIG1        0.2104
     91 H          -0.1656   -2.2889   -2.7335 H       1  LIG1        0.0811
     92 H          -2.3593   -1.7177   -2.4801 H       1  LIG1        0.0782
     93 H          -1.9453    1.5486   -5.2476 H       1  LIG1        0.0342
     94 H          -1.7040    0.5248   -6.6788 H       1  LIG1        0.0342
     95 H          -0.3225    1.1924   -5.8969 H       1  LIG1        0.0342
     96 H           1.7142    0.6375   -0.0440 H       1  LIG1        0.0626
     97 H           3.4455    2.2264    0.6156 H       1  LIG1        0.0618
     98 H           5.7656    1.9678   -0.2250 H       1  LIG1        0.0618
     99 H           6.3356    0.0423   -1.6900 H       1  LIG1        0.0618
    100 H           4.5831   -1.6045   -2.3008 H       1  LIG1        0.0626
    101 H           3.0485   -4.5741   -0.6978 H       1  LIG1        0.0238
    102 H           2.2291   -5.9396    0.0522 H       1  LIG1        0.0238
    103 H           3.8511   -5.4930    0.5908 H       1  LIG1        0.0238
    104 H           7.0543   -0.1769    2.5889 H       1  LIG1        0.0829
    105 H           6.2956    2.1954    2.6041 H       1  LIG1        0.0633
    106 H           3.8942    2.6628    3.0226 H       1  LIG1        0.0627
@<TRIPOS>BOND
     1     1     2    1
     2     2     3    1
     3     3     4    2
     4     3     5    1
     5     1     6    1
     6     6     7    1
     7     7     8    1
     8     8     9    1
     9     8    10    1
    10    10    11    1
    11    11    12    1
    12     6    12    1
    13    12    13    1
    14    13    14    1
    15    14    15    2
    16    14    16    1
    17    11    17    1
    18    17    18    1
    19    18    19    2
    20    18    20    1
    21    10    21    1
    22    21    22    1
    23     7    22    1
    24    21    23    1
    25    21    24    1
    26    24    25    1
    27    25    26    1
    28    26    27    2
    29    26    28    1
    30    28    29   ar
    31    29    30    1
    32    30    31    1
    33    31    32    1
    34    32    33    1
    35    33    34    2
    36    33    35    1
    37    35    36    1
    38    36    37    1
    39     7    37    1
    40    37    38    1
    41    37    39    1
    42    36    40    1
    43    40    41    1
    44     6    41    1
    45    41    42    1
    46    42    43    1
    47    43    44    2
    48    43    45    1
    49    40    46    1
    50    46    47    1
    51    47    48    2
    52    47    49    1
    53    49    50   ar
    54    50    51   ar
    55    51    52   ar
    56    52    53   ar
    57    53    54   ar
    58    49    54   ar
    59    32    55    1
    60    29    56   ar
    61    56    57   ar
    62    57    58   ar
    63    58    59   ar
    64    28    59   ar
    65     1    60    1
    66     1    61    1
    67     5    62    1
    68     5    63    1
    69     5    64    1
    70     8    65    1
    71     9    66    1
    72    10    67    1
    73    11    68    1
    74    12    69    1
    75    16    70    1
    76    16    71    1
    77    16    72    1
    78    20    73    1
    79    20    74    1
    80    20    75    1
    81    23    76    1
    82    23    77    1
    83    23    78    1
    84    24    79    1
    85    24    80    1
    86    30    81    1
    87    30    82    1
    88    31    83    1
    89    31    84    1
    90    32    85    1
    91    36    86    1
    92    38    87    1
    93    38    88    1
    94    38    89    1
    95    39    90    1
    96    40    91    1
    97    41    92    1
    98    45    93    1
    99    45    94    1
   100    45    95    1
   101    50    96    1
   102    51    97    1
   103    52    98    1
   104    53    99    1
   105    54   100    1
   106    55   101    1
   107    55   102    1
   108    55   103    1
   109    57   104    1
   110    58   105    1
   111    59   106    1
