REMARK  Name = NuBBE_2093
REMARK  8 active torsions:
REMARK  status: ('A' for Active; 'I' for Inactive)
REMARK    1  A    between atoms: C_1  and  C_2
REMARK    2  A    between atoms: C_2  and  C_3
REMARK    3  A    between atoms: C_2  and  O_4
REMARK    4  A    between atoms: C_2  and  C_5
REMARK    5  A    between atoms: C_5  and  N_6
REMARK    6  A    between atoms: C_7  and  C_9
REMARK    7  A    between atoms: C_10  and  C_11
REMARK    8  A    between atoms: C_12  and  C_13
REMARK                            x       y       z     vdW  Elec       q    Type
REMARK                         _______ _______ _______ _____ _____    ______ ____
ROOT
ATOM      1  C   LIG A   1      -0.925   0.031   0.991  0.00  0.00    +0.067 C 
ATOM      2  C   LIG A   1      -0.011   0.578   0.176  0.00  0.00    +0.005 C 
ENDROOT
BRANCH   1   4
ATOM      3  N   LIG A   1      -3.218  -0.353   1.485  0.00  0.00    -0.309 N 
ATOM      4  C   LIG A   1      -2.305   0.559   1.022  0.00  0.00    +0.237 C 
ATOM      5  O   LIG A   1      -2.579   1.700   0.660  0.00  0.00    -0.271 OA
ATOM      6  H   LIG A   1      -2.946  -1.321   1.599  0.00  0.00    +0.149 HD
BRANCH   3   7
ATOM      7  C   LIG A   1      -4.639  -0.054   1.562  0.00  0.00    +0.138 C 
BRANCH   7   9
ATOM      8  C   LIG A   1      -4.890   0.538  -0.915  0.00  0.00    +0.042 C 
ATOM      9  C   LIG A   1      -5.415  -0.308   0.246  0.00  0.00    +0.076 C 
ATOM     10  C   LIG A   1      -6.905  -0.019   0.460  0.00  0.00    +0.042 C 
BRANCH   9  11
ATOM     11  O   LIG A   1      -5.288  -1.696  -0.101  0.00  0.00    -0.388 OA
ATOM     12  H   LIG A   1      -5.767  -1.830  -0.937  0.00  0.00    +0.210 HD
ENDBRANCH   9  11
ENDBRANCH   7   9
ENDBRANCH   3   7
ENDBRANCH   1   4
BRANCH   2  13
ATOM     13  C   LIG A   1       1.366   0.143   0.190  0.00  0.00    +0.001 C 
ATOM     14  C   LIG A   1       2.320   0.620  -0.624  0.00  0.00    +0.008 C 
BRANCH  14  15
ATOM     15  C   LIG A   1       3.719   0.161  -0.562  0.00  0.00    -0.021 A 
ATOM     16  C   LIG A   1       4.043  -1.163  -0.176  0.00  0.00    +0.012 A 
ATOM     17  C   LIG A   1       5.367  -1.602  -0.116  0.00  0.00    +0.050 A 
ATOM     18  C   LIG A   1       6.350  -0.708  -0.467  0.00  0.00    +0.166 A 
ATOM     19  O   LIG A   1       7.684  -0.963  -0.477  0.00  0.00    -0.453 OA
ATOM     20  C   LIG A   1       8.198   0.307  -0.926  0.00  0.00    +0.466 C 
ATOM     21  O   LIG A   1       7.169   1.290  -1.171  0.00  0.00    -0.453 OA
ATOM     22  C   LIG A   1       6.052   0.575  -0.863  0.00  0.00    +0.167 A 
ATOM     23  C   LIG A   1       4.752   1.039  -0.924  0.00  0.00    +0.057 A 
ENDBRANCH  14  15
ENDBRANCH   2  13
TORSDOF 6
