REMARK  Name = NuBBE_1004
REMARK  10 active torsions:
REMARK  status: ('A' for Active; 'I' for Inactive)
REMARK    1  A    between atoms: C_1  and  C_2
REMARK    2  A    between atoms: C_2  and  C_3
REMARK    3  A    between atoms: C_2  and  C_33
REMARK    4  A    between atoms: C_3  and  C_5
REMARK    5  A    between atoms: C_3  and  C_32
REMARK    6  A    between atoms: C_6  and  C_7
REMARK    7  A    between atoms: C_7  and  C_9
REMARK    8  A    between atoms: C_7  and  C_31
REMARK    9  A    between atoms: C_21  and  C_28
REMARK   10  A    between atoms: C_25  and  C_26
REMARK                            x       y       z     vdW  Elec       q    Type
REMARK                         _______ _______ _______ _____ _____    ______ ____
ROOT
ATOM      1  C   LIG A   1      -1.098  -1.270  -0.727  0.00  0.00    +0.006 C 
ATOM      2  C   LIG A   1      -2.479  -0.812  -1.256  0.00  0.00    +0.009 C 
ATOM      3  C   LIG A   1      -3.212  -0.246  -0.053  0.00  0.00    +0.032 C 
ATOM      4  C   LIG A   1      -2.095   0.500   0.613  0.00  0.00    -0.060 C 
ATOM      5  C   LIG A   1      -2.123   1.771   1.059  0.00  0.00    -0.044 C 
ATOM      6  C   LIG A   1      -3.357   2.526   1.141  0.00  0.00    +0.004 C 
ATOM      7  C   LIG A   1      -3.393   3.862   1.164  0.00  0.00    +0.004 C 
ATOM      8  C   LIG A   1      -2.207   4.691   1.063  0.00  0.00    -0.038 C 
ATOM      9  C   LIG A   1      -2.333   6.026   1.144  0.00  0.00    +0.050 C 
ATOM     10  C   LIG A   1      -1.152   6.919   1.073  0.00  0.00    +0.156 C 
ATOM     11  C   LIG A   1       0.229   6.309   1.134  0.00  0.00    +0.080 C 
ATOM     12  C   LIG A   1       0.210   4.858   1.605  0.00  0.00    +0.019 C 
ATOM     13  C   LIG A   1      -0.851   3.991   0.871  0.00  0.00    +0.000 C 
ATOM     14  C   LIG A   1      -0.869   2.538   1.491  0.00  0.00    +0.029 C 
ATOM     15  C   LIG A   1       0.455   1.754   1.252  0.00  0.00    +0.010 C 
ATOM     16  C   LIG A   1       0.344   0.645   0.198  0.00  0.00    +0.012 C 
ATOM     17  C   LIG A   1      -0.820  -0.323   0.503  0.00  0.00    -0.007 C 
ATOM     18  C   LIG A   1      -0.572  -0.985   1.868  0.00  0.00    +0.016 C 
ATOM     19  C   LIG A   1      -0.539   3.930  -0.645  0.00  0.00    +0.016 C 
ATOM     20  O   LIG A   1      -1.321   8.123   0.944  0.00  0.00    -0.293 OA
ENDROOT
BRANCH   1  21
ATOM     21  C   LIG A   1      -1.020  -2.827  -0.633  0.00  0.00    +0.012 C 
ATOM     22  C   LIG A   1      -2.041  -3.519   0.279  0.00  0.00    +0.012 C 
BRANCH  21  24
ATOM     23  C   LIG A   1       1.151  -3.983  -1.249  0.00  0.00    -0.027 C 
ATOM     24  C   LIG A   1       0.386  -3.324  -0.357  0.00  0.00    -0.027 C 
BRANCH  23  25
ATOM     25  C   LIG A   1       2.571  -4.452  -0.965  0.00  0.00    +0.011 C 
ATOM     26  C   LIG A   1       2.592  -5.986  -0.937  0.00  0.00    +0.012 C 
BRANCH  25  28
ATOM     27  C   LIG A   1       5.032  -4.331  -1.733  0.00  0.00    +0.008 C 
ATOM     28  C   LIG A   1       3.591  -3.860  -1.984  0.00  0.00    -0.011 C 
ATOM     29  C   LIG A   1       3.576  -2.325  -1.977  0.00  0.00    +0.008 C 
ENDBRANCH  25  28
ENDBRANCH  23  25
ENDBRANCH  21  24
ENDBRANCH   1  21
TORSDOF 4
