REMARK  Name = NuBBE_1311
REMARK  14 active torsions:
REMARK  status: ('A' for Active; 'I' for Inactive)
REMARK    1  A    between atoms: C_3  and  O_4
REMARK    2  A    between atoms: O_4  and  C_5
REMARK    3  A    between atoms: C_6  and  C_7
REMARK    4  A    between atoms: C_9  and  O_10
REMARK    5  A    between atoms: O_10  and  C_11
REMARK    6  A    between atoms: C_12  and  O_13
REMARK    7  A    between atoms: O_13  and  C_14
REMARK    8  A    between atoms: C_15  and  O_16
REMARK    9  A    between atoms: O_16  and  C_17
REMARK   10  A    between atoms: C_22  and  O_23
REMARK   11  A    between atoms: C_24  and  O_25
REMARK   12  A    between atoms: O_25  and  C_26
REMARK   13  A    between atoms: C_28  and  O_29
REMARK   14  A    between atoms: O_29  and  C_30
REMARK                            x       y       z     vdW  Elec       q    Type
REMARK                         _______ _______ _______ _____ _____    ______ ____
ROOT
ATOM      1  O   LIG A   1      -3.758   1.237   0.860  0.00  0.00    -0.283 OA
ATOM      2  C   LIG A   1      -2.603   1.207   0.485  0.00  0.00    +0.238 A 
ATOM      3  C   LIG A   1      -1.907  -0.091   0.156  0.00  0.00    +0.211 A 
ATOM      4  C   LIG A   1      -0.561  -0.086   0.128  0.00  0.00    +0.181 A 
ATOM      5  O   LIG A   1       0.207   1.049   0.327  0.00  0.00    -0.447 OA
ATOM      6  C   LIG A   1      -1.790   2.441   0.355  0.00  0.00    +0.113 A 
ATOM      7  C   LIG A   1      -0.412   2.277   0.310  0.00  0.00    +0.188 A 
ATOM      8  C   LIG A   1       0.441   3.383   0.254  0.00  0.00    +0.203 A 
ATOM      9  C   LIG A   1      -0.084   4.676   0.226  0.00  0.00    +0.169 A 
ATOM     10  C   LIG A   1      -1.478   4.837   0.239  0.00  0.00    +0.096 A 
ATOM     11  C   LIG A   1      -2.343   3.732   0.288  0.00  0.00    +0.138 A 
ENDROOT
BRANCH   4  12
ATOM     12  C   LIG A   1       0.263  -1.287  -0.070  0.00  0.00    +0.028 A 
ATOM     13  C   LIG A   1       0.660  -1.694  -1.346  0.00  0.00    +0.061 A 
ATOM     14  C   LIG A   1       1.563  -2.758  -1.518  0.00  0.00    +0.166 A 
ATOM     15  C   LIG A   1       2.143  -3.384  -0.396  0.00  0.00    +0.203 A 
ATOM     16  C   LIG A   1       1.718  -2.997   0.893  0.00  0.00    +0.166 A 
ATOM     17  C   LIG A   1       0.766  -1.974   1.042  0.00  0.00    +0.061 A 
BRANCH  14  18
ATOM     18  O   LIG A   1       1.835  -3.034  -2.836  0.00  0.00    -0.491 OA
ATOM     19  C   LIG A   1       2.128  -4.389  -3.171  0.00  0.00    +0.277 C 
ENDBRANCH  14  18
BRANCH  15  20
ATOM     20  O   LIG A   1       3.179  -4.257  -0.638  0.00  0.00    -0.488 OA
ATOM     21  C   LIG A   1       3.331  -5.350   0.262  0.00  0.00    +0.277 C 
ENDBRANCH  15  20
BRANCH  16  22
ATOM     22  O   LIG A   1       2.368  -3.531   1.975  0.00  0.00    -0.491 OA
ATOM     23  C   LIG A   1       1.603  -3.729   3.157  0.00  0.00    +0.277 C 
ENDBRANCH  16  22
ENDBRANCH   4  12
BRANCH   3  24
ATOM     24  O   LIG A   1      -2.611  -1.266  -0.054  0.00  0.00    -0.488 OA
ATOM     25  C   LIG A   1      -3.939  -1.112  -0.545  0.00  0.00    +0.277 C 
ENDBRANCH   3  24
BRANCH   8  26
ATOM     26  O   LIG A   1       1.790   3.145   0.230  0.00  0.00    -0.501 OA
ATOM     27  H   LIG A   1       1.921   2.178   0.244  0.00  0.00    +0.292 HD
ENDBRANCH   8  26
BRANCH   9  28
ATOM     28  O   LIG A   1       0.603   5.860   0.185  0.00  0.00    -0.491 OA
ATOM     29  C   LIG A   1       2.024   5.790   0.178  0.00  0.00    +0.277 C 
ENDBRANCH   9  28
BRANCH  11  30
ATOM     30  O   LIG A   1      -3.705   3.864   0.323  0.00  0.00    -0.494 OA
ATOM     31  C   LIG A   1      -4.274   4.967  -0.377  0.00  0.00    +0.277 C 
ENDBRANCH  11  30
TORSDOF 8
