@<TRIPOS>MOLECULE
NuBBE_930
 36 37 0 0 0
SMALL
GASTEIGER

@<TRIPOS>ATOM
      1 C          -1.4688   -0.3492    0.6482 C.3     1  LIG1        0.1166
      2 H          -1.7260    0.5387    1.2365 H       1  LIG1        0.0675
      3 C          -2.2094   -0.2548   -0.7274 C.3     1  LIG1        0.1059
      4 H          -3.2804   -0.1450   -0.5116 H       1  LIG1        0.0670
      5 C          -1.7846    0.8923   -1.6241 C.2     1  LIG1       -0.0488
      6 C          -0.8080    0.7824   -2.5423 C.2     1  LIG1       -0.0972
      7 C          -2.5235    2.1949   -1.4755 C.3     1  LIG1       -0.0415
      8 O          -2.1397   -1.4898   -1.4535 O.3     1  LIG1       -0.3846
      9 O          -2.0076   -1.4490    1.4106 O.3     1  LIG1       -0.3840
     10 C           0.0506   -0.4659    0.5847 C.ar    1  LIG1        0.0681
     11 C           0.8491    0.6977    0.6597 C.ar    1  LIG1        0.1483
     12 C           2.2474    0.6588    0.6484 C.ar    1  LIG1        0.0182
     13 C           2.8869   -0.5712    0.5523 C.ar    1  LIG1       -0.0476
     14 C           2.1307   -1.7402    0.4588 C.ar    1  LIG1       -0.0188
     15 C           0.7261   -1.6994    0.4762 C.ar    1  LIG1        0.1294
     16 O          -0.0306   -2.8361    0.3296 O.3     1  LIG1       -0.4946
     17 C           0.5199   -4.0186    0.9069 C.3     1  LIG1        0.0788
     18 C           3.0102    1.8929    0.7500 C.ar    1  LIG1       -0.0443
     19 C           2.3719    3.0589    0.8660 C.ar    1  LIG1        0.0236
     20 C           0.9012    3.1507    0.8889 C.ar    1  LIG1        0.3372
     21 O           0.3433    4.2266    1.0192 O.2     1  LIG1       -0.2452
     22 O           0.2010    1.9553    0.7645 O.2     1  LIG1       -0.4217
     23 H          -0.2654   -0.1497   -2.6725 H       1  LIG1        0.0535
     24 H          -0.5208    1.6190   -3.1707 H       1  LIG1        0.0535
     25 H          -3.3784    2.1063   -0.7976 H       1  LIG1        0.0275
     26 H          -2.9141    2.5273   -2.4443 H       1  LIG1        0.0275
     27 H          -1.8627    2.9721   -1.0792 H       1  LIG1        0.0275
     28 H          -1.9051   -2.1799   -0.8030 H       1  LIG1        0.2103
     29 H          -2.9757   -1.4104    1.3496 H       1  LIG1        0.2104
     30 H           3.9719   -0.6394    0.5423 H       1  LIG1        0.0626
     31 H           2.6668   -2.6785    0.3569 H       1  LIG1        0.0654
     32 H          -0.2644   -4.7811    0.9235 H       1  LIG1        0.0660
     33 H           0.8496   -3.8539    1.9396 H       1  LIG1        0.0660
     34 H           1.3382   -4.4068    0.2925 H       1  LIG1        0.0660
     35 H           4.0944    1.8482    0.7406 H       1  LIG1        0.0627
     36 H           2.9057    3.9968    0.9561 H       1  LIG1        0.0689
@<TRIPOS>BOND
     1     1     2    1
     2     1     3    1
     3     3     4    1
     4     3     5    1
     5     5     6    2
     6     5     7    1
     7     3     8    1
     8     1     9    1
     9     1    10    1
    10    10    11   ar
    11    11    12   ar
    12    12    13   ar
    13    13    14   ar
    14    14    15   ar
    15    10    15   ar
    16    15    16    1
    17    16    17    1
    18    12    18   ar
    19    18    19   ar
    20    19    20   ar
    21    20    21    2
    22    20    22   ar
    23    11    22   ar
    24     6    23    1
    25     6    24    1
    26     7    25    1
    27     7    26    1
    28     7    27    1
    29     8    28    1
    30     9    29    1
    31    13    30    1
    32    14    31    1
    33    17    32    1
    34    17    33    1
    35    17    34    1
    36    18    35    1
    37    19    36    1
