@<TRIPOS>MOLECULE
NuBBE_1715
 28 30 0 0 0
SMALL
GASTEIGER

@<TRIPOS>ATOM
      1 C           0.0938    2.7038    2.2866 C.3     1  LIG1        0.0790
      2 O          -0.6541    2.7241    1.0667 O.3     1  LIG1       -0.4906
      3 C           0.0426    2.0950    0.0665 C.ar    1  LIG1        0.1756
      4 C           0.7572    2.9150   -0.8137 C.ar    1  LIG1        0.1594
      5 O           0.7476    4.2734   -0.6601 O.3     1  LIG1       -0.5033
      6 C           1.4824    2.3806   -1.8691 C.ar    1  LIG1       -0.0130
      7 C           1.4707    1.0023   -2.0712 C.ar    1  LIG1       -0.0149
      8 C           0.7265    0.1714   -1.2238 C.ar    1  LIG1        0.1430
      9 O           0.7680   -1.1670   -1.5343 O.2     1  LIG1       -0.4545
     10 C           0.0269   -2.0340   -0.7752 C.ar    1  LIG1        0.1393
     11 C           0.0748   -3.3807   -1.1417 C.ar    1  LIG1       -0.0186
     12 C          -0.6514   -4.3298   -0.4191 C.ar    1  LIG1       -0.0582
     13 C          -1.4265   -3.9349    0.6716 C.ar    1  LIG1       -0.0609
     14 C          -1.4753   -2.5902    1.0405 C.ar    1  LIG1       -0.0474
     15 C          -0.7461   -1.6432    0.3125 C.ar    1  LIG1        0.0647
     16 C           0.0037    0.7121   -0.1539 C.ar    1  LIG1        0.1097
     17 C          -0.7785   -0.2204    0.6850 C.ar    1  LIG1        0.2038
     18 O          -1.4261    0.1383    1.6597 O.2     1  LIG1       -0.2863
     19 H           0.9102    3.4323    2.2377 H       1  LIG1        0.0660
     20 H           0.4961    1.7127    2.5218 H       1  LIG1        0.0660
     21 H          -0.5792    3.0002    3.0965 H       1  LIG1        0.0660
     22 H           0.0765    4.4570    0.0258 H       1  LIG1        0.2923
     23 H           2.0392    3.0331   -2.5356 H       1  LIG1        0.0656
     24 H           2.0295    0.5748   -2.9005 H       1  LIG1        0.0656
     25 H           0.6772   -3.6931   -1.9912 H       1  LIG1        0.0654
     26 H          -0.6132   -5.3778   -0.7071 H       1  LIG1        0.0619
     27 H          -1.9928   -4.6730    1.2347 H       1  LIG1        0.0618
     28 H          -2.0798   -2.2820    1.8911 H       1  LIG1        0.0626
@<TRIPOS>BOND
     1     1     2    1
     2     2     3    1
     3     3     4   ar
     4     4     5    1
     5     4     6   ar
     6     6     7   ar
     7     7     8   ar
     8     8     9   ar
     9     9    10   ar
    10    10    11   ar
    11    11    12   ar
    12    12    13   ar
    13    13    14   ar
    14    14    15   ar
    15    10    15   ar
    16     8    16   ar
    17     3    16   ar
    18    16    17   ar
    19    15    17   ar
    20    17    18    2
    21     1    19    1
    22     1    20    1
    23     1    21    1
    24     5    22    1
    25     6    23    1
    26     7    24    1
    27    11    25    1
    28    12    26    1
    29    13    27    1
    30    14    28    1
