REMARK  Name = NuBBE_2128
REMARK  3 active torsions:
REMARK  status: ('A' for Active; 'I' for Inactive)
REMARK    1  A    between atoms: C_1  and  C_2
REMARK    2  A    between atoms: C_2  and  C_3
REMARK    3  A    between atoms: C_3  and  C_4
REMARK                            x       y       z     vdW  Elec       q    Type
REMARK                         _______ _______ _______ _____ _____    ______ ____
ROOT
ATOM      1  C   LIG A   1       0.034  -0.135   1.013  0.00  0.00    -0.011 C 
ATOM      2  C   LIG A   1       0.974  -1.355   1.017  0.00  0.00    +0.003 C 
ATOM      3  C   LIG A   1       1.791  -1.484  -0.270  0.00  0.00    +0.000 C 
ATOM      4  C   LIG A   1       2.549  -0.200  -0.594  0.00  0.00    +0.000 C 
ATOM      5  C   LIG A   1       1.639   1.025  -0.595  0.00  0.00    +0.000 C 
ATOM      6  C   LIG A   1       0.848   1.134   0.707  0.00  0.00    +0.003 C 
ENDROOT
BRANCH   1   7
ATOM      7  C   LIG A   1      -1.155  -0.363   0.053  0.00  0.00    +0.003 C 
BRANCH   7   9
ATOM      8  C   LIG A   1      -3.369   0.447  -0.836  0.00  0.00    +0.004 C 
ATOM      9  C   LIG A   1      -2.198   0.757   0.085  0.00  0.00    -0.003 C 
ENDBRANCH   7   9
ENDBRANCH   1   7
TORSDOF 2
