REMARK  Name = NuBBE_1782
REMARK  5 active torsions:
REMARK  status: ('A' for Active; 'I' for Inactive)
REMARK    1  A    between atoms: C_1  and  C_2
REMARK    2  A    between atoms: C_1  and  C_9
REMARK    3  A    between atoms: C_2  and  C_3
REMARK    4  A    between atoms: C_12  and  O_17
REMARK    5  A    between atoms: O_17  and  C_18
REMARK                            x       y       z     vdW  Elec       q    Type
REMARK                         _______ _______ _______ _____ _____    ______ ____
ROOT
ATOM      1  C   LIG A   1       0.595   0.007   0.221  0.00  0.00    +0.184 C 
ATOM      2  C   LIG A   1       1.440  -0.055   1.492  0.00  0.00    +0.118 C 
ATOM      3  C   LIG A   1       1.705  -1.474   1.894  0.00  0.00    +0.108 C 
ATOM      4  C   LIG A   1       1.715  -2.439   0.960  0.00  0.00    +0.132 C 
ATOM      5  C   LIG A   1       1.511  -2.135  -0.464  0.00  0.00    +0.335 C 
ATOM      6  O   LIG A   1       1.706  -3.002  -1.312  0.00  0.00    -0.245 OA
ATOM      7  O   LIG A   1       1.127  -0.882  -0.790  0.00  0.00    -0.458 OA
ENDROOT
BRANCH   3   8
ATOM      8  O   LIG A   1       1.917  -1.632   3.244  0.00  0.00    -0.499 OA
ATOM      9  C   LIG A   1       2.214  -2.939   3.724  0.00  0.00    +0.276 C 
ENDBRANCH   3   8
BRANCH   1  10
ATOM     10  C   LIG A   1      -0.902  -0.278   0.450  0.00  0.00    +0.050 C 
BRANCH  10  11
ATOM     11  C   LIG A   1      -1.740  -0.205  -0.840  0.00  0.00    +0.038 C 
BRANCH  11  12
ATOM     12  C   LIG A   1      -1.700   1.142  -1.521  0.00  0.00    -0.047 A 
ATOM     13  C   LIG A   1      -1.177   1.262  -2.816  0.00  0.00    +0.003 A 
ATOM     14  C   LIG A   1      -1.075   2.514  -3.426  0.00  0.00    +0.000 A 
ATOM     15  C   LIG A   1      -1.514   3.655  -2.759  0.00  0.00    +0.000 A 
ATOM     16  C   LIG A   1      -2.069   3.543  -1.486  0.00  0.00    +0.000 A 
ATOM     17  C   LIG A   1      -2.163   2.294  -0.869  0.00  0.00    +0.003 A 
ENDBRANCH  11  12
ENDBRANCH  10  11
ENDBRANCH   1  10
TORSDOF 4
