@<TRIPOS>MOLECULE
NuBBE_1113
 79 82 0 0 0
SMALL
GASTEIGER

@<TRIPOS>ATOM
      1 C          -4.1969    3.9930    0.2640 C.3     1  LIG1       -0.0555
      2 C          -4.1139    2.4606   -0.0055 C.3     1  LIG1       -0.0048
      3 C          -4.0165    1.6179    1.2653 C.2     1  LIG1       -0.0320
      4 C          -3.8680    0.1273    1.0062 C.3     1  LIG1        0.0774
      5 H          -4.7568   -0.2722    0.5071 H       1  LIG1        0.0641
      6 O          -3.7472   -0.5876    2.2313 O.3     1  LIG1       -0.3875
      7 C          -2.6512   -0.1736    0.1526 C.3     1  LIG1       -0.0196
      8 C          -2.5905    0.6215   -1.1608 C.3     1  LIG1       -0.0314
      9 H          -3.3701    0.1934   -1.8078 H       1  LIG1        0.0307
     10 C          -2.9329    2.1424   -1.0021 C.3     1  LIG1       -0.0286
     11 H          -3.3057    2.4636   -1.9884 H       1  LIG1        0.0312
     12 C          -1.6496    2.9931   -0.7945 C.3     1  LIG1       -0.0487
     13 C          -0.4593    2.2113   -0.2560 C.3     1  LIG1       -0.0468
     14 C          -0.0075    1.0986   -1.2120 C.3     1  LIG1       -0.0259
     15 C           0.8975    1.7415   -2.3053 C.3     1  LIG1       -0.0590
     16 C          -1.2397    0.4579   -1.9245 C.3     1  LIG1       -0.0322
     17 C          -0.8096   -0.9785   -2.2073 C.3     1  LIG1       -0.0492
     18 C           0.0957   -1.3737   -1.0537 C.3     1  LIG1       -0.0492
     19 C           0.8234   -0.0919   -0.5898 C.3     1  LIG1       -0.0328
     20 H           1.7918   -0.0966   -1.1054 H       1  LIG1        0.0309
     21 C           1.1660   -0.1444    0.9375 C.3     1  LIG1       -0.0405
     22 H           0.2314   -0.2334    1.5029 H       1  LIG1        0.0301
     23 C           1.8970    1.0988    1.4676 C.3     1  LIG1       -0.0621
     24 C           2.0066   -1.4087    1.3040 C.3     1  LIG1       -0.0499
     25 C           3.4252   -1.3959    0.7131 C.3     1  LIG1       -0.0497
     26 C           4.2956   -2.6218    1.0695 C.3     1  LIG1       -0.0389
     27 H           4.2287   -2.7419    2.1617 H       1  LIG1        0.0303
     28 C           3.7557   -3.9509    0.4887 C.3     1  LIG1       -0.0528
     29 C           3.6427   -4.0528   -1.0247 C.3     1  LIG1       -0.0650
     30 C           5.8012   -2.3118    0.7858 C.3     1  LIG1       -0.0439
     31 C           6.7207   -3.4885    1.1155 C.3     1  LIG1       -0.0624
     32 C           6.1116   -1.7709   -0.6140 C.3     1  LIG1       -0.0624
     33 H          -1.3999    0.9452   -2.8977 H       1  LIG1        0.0309
     34 C          -4.7453    2.0128    2.3276 C.2     1  LIG1       -0.0170
     35 C          -6.2067    2.0084    1.9523 C.2     1  LIG1        0.1562
     36 C          -6.6220    1.9582    0.4763 C.3     1  LIG1        0.0107
     37 C          -5.4994    2.0551   -0.5892 C.3     1  LIG1       -0.0366
     38 O          -7.0448    2.1209    2.8523 O.2     1  LIG1       -0.2927
     39 H          -3.4428    4.3265    0.9852 H       1  LIG1        0.0238
     40 H          -5.1664    4.2997    0.6724 H       1  LIG1        0.0238
     41 H          -4.0640    4.5585   -0.6660 H       1  LIG1        0.0238
     42 H          -3.1548   -0.0829    2.8139 H       1  LIG1        0.2102
     43 H          -2.6613   -1.2478   -0.0726 H       1  LIG1        0.0296
     44 H          -1.7616   -0.0202    0.7618 H       1  LIG1        0.0296
     45 H          -1.8009    3.8514   -0.1401 H       1  LIG1        0.0268
     46 H          -1.3768    3.4342   -1.7622 H       1  LIG1        0.0268
     47 H          -0.7404    1.8216    0.7250 H       1  LIG1        0.0271
     48 H           0.3614    2.9196   -0.0906 H       1  LIG1        0.0271
     49 H           0.3835    2.5410   -2.8476 H       1  LIG1        0.0235
     50 H           1.2167    1.0017   -3.0490 H       1  LIG1        0.0235
     51 H           1.8022    2.1702   -1.8584 H       1  LIG1        0.0235
     52 H          -0.2350   -1.0113   -3.1416 H       1  LIG1        0.0268
     53 H          -1.6542   -1.6641   -2.3266 H       1  LIG1        0.0268
     54 H           0.8092   -2.1407   -1.3752 H       1  LIG1        0.0268
     55 H          -0.4940   -1.8137   -0.2444 H       1  LIG1        0.0268
     56 H           2.3382    0.9008    2.4515 H       1  LIG1        0.0233
     57 H           1.2262    1.9433    1.6252 H       1  LIG1        0.0233
     58 H           2.6942    1.4193    0.7907 H       1  LIG1        0.0233
     59 H           1.4693   -2.3105    0.9961 H       1  LIG1        0.0268
     60 H           2.0825   -1.4690    2.3982 H       1  LIG1        0.0268
     61 H           3.9418   -0.5039    1.0860 H       1  LIG1        0.0268
     62 H           3.3725   -1.2918   -0.3728 H       1  LIG1        0.0268
     63 H           2.7612   -4.1369    0.9113 H       1  LIG1        0.0265
     64 H           4.3703   -4.7859    0.8456 H       1  LIG1        0.0265
     65 H           3.1445   -3.1865   -1.4660 H       1  LIG1        0.0230
     66 H           3.0569   -4.9383   -1.2931 H       1  LIG1        0.0230
     67 H           4.6229   -4.1757   -1.4907 H       1  LIG1        0.0230
     68 H           6.0807   -1.5074    1.4824 H       1  LIG1        0.0298
     69 H           6.6027   -4.3096    0.4024 H       1  LIG1        0.0232
     70 H           6.5217   -3.8680    2.1231 H       1  LIG1        0.0232
     71 H           7.7697   -3.1729    1.0848 H       1  LIG1        0.0232
     72 H           5.7975   -2.4485   -1.4076 H       1  LIG1        0.0232
     73 H           7.1887   -1.6115   -0.7345 H       1  LIG1        0.0232
     74 H           5.6275   -0.8041   -0.7840 H       1  LIG1        0.0232
     75 H          -4.6039    3.0065    2.7597 H       1  LIG1        0.0653
     76 H          -7.3160    2.7931    0.3194 H       1  LIG1        0.0345
     77 H          -7.1825    1.0285    0.3247 H       1  LIG1        0.0345
     78 H          -5.8063    2.7668   -1.3676 H       1  LIG1        0.0278
     79 H          -5.4390    1.0920   -1.1112 H       1  LIG1        0.0278
@<TRIPOS>BOND
     1     1     2    1
     2     2     3    1
     3     3     4    1
     4     4     7    1
     5     7     8    1
     6     8     9    1
     7     8    10    1
     8    10    11    1
     9     2    10    1
    10    10    12    1
    11    12    13    1
    12    13    14    1
    13    14    15    1
    14    14    16    1
    15    16    17    1
    16    17    18    1
    17    18    19    1
    18    19    20    1
    19    14    19    1
    20    21    23    1
    21    21    24    1
    22    24    25    1
    23    25    26    1
    24    26    27    1
    25    26    28    1
    26    28    29    1
    27    26    30    1
    28    30    31    1
    29    30    32    1
    30     8    16    1
    31    16    33    1
    32     3    34    2
    33    34    35    1
    34    35    36    1
    35    36    37    1
    36     2    37    1
    37    35    38    2
    38     4     6    1
    39     4     5    1
    40    21    22    1
    41    21    19    1
    42     1    39    1
    43     1    40    1
    44     1    41    1
    45     6    42    1
    46     7    43    1
    47     7    44    1
    48    12    45    1
    49    12    46    1
    50    13    47    1
    51    13    48    1
    52    15    49    1
    53    15    50    1
    54    15    51    1
    55    17    52    1
    56    17    53    1
    57    18    54    1
    58    18    55    1
    59    23    56    1
    60    23    57    1
    61    23    58    1
    62    24    59    1
    63    24    60    1
    64    25    61    1
    65    25    62    1
    66    28    63    1
    67    28    64    1
    68    29    65    1
    69    29    66    1
    70    29    67    1
    71    30    68    1
    72    31    69    1
    73    31    70    1
    74    31    71    1
    75    32    72    1
    76    32    73    1
    77    32    74    1
    78    34    75    1
    79    36    76    1
    80    36    77    1
    81    37    78    1
    82    37    79    1
