REMARK  Name = NuBBE_995
REMARK  13 active torsions:
REMARK  status: ('A' for Active; 'I' for Inactive)
REMARK    1  A    between atoms: C_1  and  C_2
REMARK    2  A    between atoms: C_6  and  C_8
REMARK    3  A    between atoms: C_8  and  C_9
REMARK    4  A    between atoms: C_15  and  O_17
REMARK    5  A    between atoms: O_17  and  C_18
REMARK    6  A    between atoms: C_18  and  C_19
REMARK    7  A    between atoms: C_21  and  O_23
REMARK    8  A    between atoms: O_23  and  C_24
REMARK    9  A    between atoms: C_24  and  C_25
REMARK   10  A    between atoms: C_27  and  O_29
REMARK   11  A    between atoms: O_29  and  C_30
REMARK   12  A    between atoms: C_30  and  C_31
REMARK   13  A    between atoms: C_34  and  C_35
REMARK                            x       y       z     vdW  Elec       q    Type
REMARK                         _______ _______ _______ _____ _____    ______ ____
ROOT
ATOM      1  C   LIG A   1      -2.184   2.502   1.424  0.00  0.00    +0.012 C 
ATOM      2  C   LIG A   1      -1.595   2.148   0.040  0.00  0.00    -0.019 C 
ATOM      3  C   LIG A   1      -0.154   1.566   0.243  0.00  0.00    +0.006 C 
ATOM      4  C   LIG A   1       0.738   2.804   0.395  0.00  0.00    +0.079 C 
ATOM      5  C   LIG A   1       0.032   3.853  -0.412  0.00  0.00    +0.137 C 
ATOM      6  C   LIG A   1      -1.343   3.404  -0.876  0.00  0.00    +0.061 C 
ATOM      7  O   LIG A   1       0.551   4.931  -0.676  0.00  0.00    -0.297 OA
ATOM      8  C   LIG A   1       0.231   0.613  -0.918  0.00  0.00    -0.003 C 
ATOM      9  C   LIG A   1       2.034   0.325  -1.024  0.00  0.00    +0.004 C 
ATOM     10  C   LIG A   1       2.691  -1.377  -1.294  0.00  0.00    +0.008 C 
ATOM     11  C   LIG A   1       1.342  -2.635  -1.086  0.00  0.00    +0.040 C 
ATOM     12  C   LIG A   1       1.266  -1.577  -0.159  0.00  0.00    +0.224 C 
ATOM     13  C   LIG A   1       1.499  -2.533   1.075  0.00  0.00    +0.257 C 
ATOM     14  C   LIG A   1       0.222  -3.281   1.505  0.00  0.00    +0.221 C 
ATOM     15  C   LIG A   1      -0.908  -3.128   0.493  0.00  0.00    +0.055 C 
ATOM     16  C   LIG A   1      -0.471  -2.526  -0.877  0.00  0.00    -0.019 C 
ATOM     17  C   LIG A   1      -1.109  -3.395  -1.989  0.00  0.00    +0.012 C 
ATOM     18  C   LIG A   1      -1.027  -0.758  -0.982  0.00  0.00    -0.001 C 
ATOM     19  C   LIG A   1      -2.281  -0.318  -0.230  0.00  0.00    +0.005 C 
ATOM     20  C   LIG A   1      -2.565   1.140  -0.636  0.00  0.00    +0.008 C 
ENDROOT
BRANCH   6  21
ATOM     21  C   LIG A   1      -2.412   4.501  -0.857  0.00  0.00    +0.008 C 
ATOM     22  C   LIG A   1      -2.112   5.661  -1.810  0.00  0.00    +0.004 C 
ENDBRANCH   6  21
BRANCH  12  23
ATOM     23  O   LIG A   1       0.776  -1.224  -1.937  0.00  0.00    -0.457 OA
BRANCH  23  24
ATOM     24  C   LIG A   1       0.921  -1.393  -3.305  0.00  0.00    +0.304 C 
ATOM     25  C   LIG A   1       0.191  -0.286  -4.064  0.00  0.00    +0.136 C 
ATOM     26  O   LIG A   1       1.591  -2.238  -3.854  0.00  0.00    -0.251 OA
ENDBRANCH  23  24
ENDBRANCH  12  23
BRANCH  13  27
ATOM     27  O   LIG A   1       1.911  -1.585   2.119  0.00  0.00    -0.454 OA
BRANCH  27  28
ATOM     28  C   LIG A   1       3.231  -1.355   2.258  0.00  0.00    +0.304 C 
ATOM     29  C   LIG A   1       3.487  -0.091   3.000  0.00  0.00    +0.136 C 
ATOM     30  O   LIG A   1       4.118  -2.025   1.740  0.00  0.00    -0.251 OA
ENDBRANCH  27  28
ENDBRANCH  13  27
BRANCH  14  31
ATOM     31  O   LIG A   1      -0.286  -2.768   2.759  0.00  0.00    -0.458 OA
BRANCH  31  32
ATOM     32  C   LIG A   1       0.433  -3.126   3.873  0.00  0.00    +0.304 C 
ATOM     33  C   LIG A   1       0.099  -2.063   4.908  0.00  0.00    +0.136 C 
ATOM     34  O   LIG A   1       1.181  -4.070   3.992  0.00  0.00    -0.251 OA
ENDBRANCH  31  32
ENDBRANCH  14  31
TORSDOF 7
