@<TRIPOS>MOLECULE
NuBBE_157
 33 34 0 0 0
SMALL
GASTEIGER

@<TRIPOS>ATOM
      1 O          -2.4964   -0.8147    3.8153 O.2     1  LIG1       -0.2450
      2 C          -1.6616   -0.0896    3.3071 C.2     1  LIG1        0.3391
      3 O          -1.1578    1.0582    3.8257 O.3     1  LIG1       -0.4644
      4 C          -1.7126    1.4539    5.0791 C.3     1  LIG1        0.0820
      5 C          -1.0029   -0.3631    2.0051 C.ar    1  LIG1        0.0629
      6 C          -0.9548   -1.6791    1.5342 C.ar    1  LIG1       -0.0025
      7 C          -0.3316   -1.9448    0.3156 C.ar    1  LIG1        0.1595
      8 O          -0.2644   -3.2292   -0.1544 O.3     1  LIG1       -0.5033
      9 C           0.2262   -0.9105   -0.4491 C.ar    1  LIG1        0.1656
     10 O           0.8102   -1.2568   -1.6388 O.3     1  LIG1       -0.4823
     11 C           1.0871   -0.1929   -2.5643 C.3     1  LIG1        0.1056
     12 C          -0.1951    0.1479   -3.3400 C.3     1  LIG1       -0.0252
     13 C           2.1187   -0.7555   -3.5521 C.3     1  LIG1       -0.0252
     14 C           1.6971    1.0205   -1.8497 C.3     1  LIG1       -0.0093
     15 C           0.7678    1.5402   -0.7659 C.3     1  LIG1       -0.0205
     16 C           0.1856    0.4057    0.0238 C.ar    1  LIG1       -0.0011
     17 C          -0.4436    0.6743    1.2460 C.ar    1  LIG1       -0.0409
     18 H          -1.0440    2.2001    5.5181 H       1  LIG1        0.0661
     19 H          -1.7918    0.6125    5.7738 H       1  LIG1        0.0661
     20 H          -2.6893    1.9163    4.9128 H       1  LIG1        0.0661
     21 H          -1.3979   -2.4785    2.1215 H       1  LIG1        0.0663
     22 H          -0.6623   -3.8319    0.4929 H       1  LIG1        0.2923
     23 H          -0.5818   -0.7405   -3.8529 H       1  LIG1        0.0268
     24 H          -0.0158    0.9290   -4.0858 H       1  LIG1        0.0268
     25 H          -1.0008    0.4842   -2.6794 H       1  LIG1        0.0268
     26 H           1.7350   -1.6550   -4.0472 H       1  LIG1        0.0268
     27 H           3.0334   -1.0593   -3.0299 H       1  LIG1        0.0268
     28 H           2.3849   -0.0222   -4.3205 H       1  LIG1        0.0268
     29 H           1.9346    1.8252   -2.5553 H       1  LIG1        0.0307
     30 H           2.6408    0.7207   -1.3728 H       1  LIG1        0.0307
     31 H          -0.0488    2.1216   -1.2097 H       1  LIG1        0.0316
     32 H           1.3286    2.2117   -0.1046 H       1  LIG1        0.0316
     33 H          -0.4969    1.7015    1.6015 H       1  LIG1        0.0630
@<TRIPOS>BOND
     1     1     2    2
     2     2     3    1
     3     3     4    1
     4     2     5    1
     5     5     6   ar
     6     6     7   ar
     7     7     8    1
     8     7     9   ar
     9     9    10    1
    10    10    11    1
    11    11    12    1
    12    11    13    1
    13    11    14    1
    14    14    15    1
    15     9    16   ar
    16    15    16    1
    17    16    17   ar
    18     5    17   ar
    19     4    18    1
    20     4    19    1
    21     4    20    1
    22     6    21    1
    23     8    22    1
    24    12    23    1
    25    12    24    1
    26    12    25    1
    27    13    26    1
    28    13    27    1
    29    13    28    1
    30    14    29    1
    31    14    30    1
    32    15    31    1
    33    15    32    1
    34    17    33    1
