REMARK  Name = NuBBE_2278
REMARK  6 active torsions:
REMARK  status: ('A' for Active; 'I' for Inactive)
REMARK    1  A    between atoms: C_2  and  C_3
REMARK    2  A    between atoms: C_2  and  O_11
REMARK    3  A    between atoms: C_4  and  O_5
REMARK    4  A    between atoms: C_9  and  O_10
REMARK    5  A    between atoms: O_11  and  C_12
REMARK    6  A    between atoms: C_12  and  C_13
REMARK                            x       y       z     vdW  Elec       q    Type
REMARK                         _______ _______ _______ _____ _____    ______ ____
ROOT
ATOM      1  O   LIG A   1      -1.573  -0.948  -0.607  0.00  0.00    -0.245 OA
ATOM      2  C   LIG A   1      -0.396  -0.689  -0.852  0.00  0.00    +0.347 C 
ENDROOT
BRANCH   2   3
ATOM      3  C   LIG A   1       0.642  -1.729  -0.711  0.00  0.00    +0.141 A 
ATOM      4  C   LIG A   1       0.397  -2.801   0.166  0.00  0.00    +0.134 A 
ATOM      5  C   LIG A   1       1.319  -3.837   0.301  0.00  0.00    +0.046 A 
ATOM      6  C   LIG A   1       2.494  -3.822  -0.446  0.00  0.00    +0.007 A 
ATOM      7  C   LIG A   1       2.751  -2.769  -1.324  0.00  0.00    +0.046 A 
ATOM      8  C   LIG A   1       1.829  -1.727  -1.457  0.00  0.00    +0.134 A 
BRANCH   4   9
ATOM      9  O   LIG A   1      -0.735  -2.913   0.935  0.00  0.00    -0.506 OA
ATOM     10  H   LIG A   1      -1.370  -2.216   0.662  0.00  0.00    +0.292 HD
ENDBRANCH   4   9
BRANCH   8  11
ATOM     11  O   LIG A   1       2.097  -0.733  -2.358  0.00  0.00    -0.506 OA
ATOM     12  H   LIG A   1       2.984  -0.858  -2.731  0.00  0.00    +0.292 HD
ENDBRANCH   8  11
ENDBRANCH   2   3
BRANCH   2  13
ATOM     13  O   LIG A   1       0.105   0.519  -1.184  0.00  0.00    -0.456 OA
BRANCH  13  14
ATOM     14  C   LIG A   1      -0.855   1.568  -1.344  0.00  0.00    +0.268 C 
BRANCH  14  15
ATOM     15  C   LIG A   1      -1.133   2.222  -0.015  0.00  0.00    -0.010 A 
ATOM     16  C   LIG A   1      -0.340   3.277   0.452  0.00  0.00    +0.007 A 
ATOM     17  C   LIG A   1      -0.585   3.837   1.708  0.00  0.00    +0.000 A 
ATOM     18  C   LIG A   1      -1.608   3.335   2.513  0.00  0.00    +0.000 A 
ATOM     19  C   LIG A   1      -2.393   2.278   2.062  0.00  0.00    +0.000 A 
ATOM     20  C   LIG A   1      -2.162   1.732   0.802  0.00  0.00    +0.007 A 
ENDBRANCH  14  15
ENDBRANCH  13  14
ENDBRANCH   2  13
TORSDOF 6
