@<TRIPOS>MOLECULE
NuBBE_2191
 50 52 0 0 0
SMALL
GASTEIGER

@<TRIPOS>ATOM
      1 C          -1.6687   -0.6863    1.6831 C.3     1  LIG1       -0.0551
      2 C          -0.4289   -0.0742    0.9894 C.3     1  LIG1        0.0003
      3 C          -0.6677    1.4034    0.5200 C.3     1  LIG1       -0.0194
      4 C          -1.6778    1.4702   -0.6279 C.3     1  LIG1        0.0143
      5 C          -1.2280    0.6199   -1.7881 C.2     1  LIG1        0.1599
      6 C          -0.4448   -0.6233   -1.5147 C.2     1  LIG1        0.0028
      7 C          -0.0843   -1.4303   -2.7368 C.3     1  LIG1       -0.0147
      8 C           1.1158   -2.3724   -2.5006 C.3     1  LIG1       -0.0033
      9 C           2.4126   -1.5606   -2.4632 C.2     1  LIG1       -0.0845
     10 C           3.3559   -1.5514   -1.5110 C.2     1  LIG1       -0.1021
     11 C           1.2307   -3.3430   -3.6929 C.3     1  LIG1       -0.0554
     12 C           0.8186   -3.1837   -1.2340 C.3     1  LIG1        0.0193
     13 C          -0.1352   -0.9562   -0.2446 C.2     1  LIG1        0.0077
     14 C           0.4928   -2.3130   -0.0373 C.2     1  LIG1        0.1609
     15 O           0.6669   -2.7603    1.0962 O.2     1  LIG1       -0.2923
     16 O          -1.5672    0.8966   -2.9380 O.2     1  LIG1       -0.2924
     17 H           0.2943    1.7103    0.0733 H       1  LIG1        0.0319
     18 C          -0.9532    2.4428    1.6680 C.3     1  LIG1       -0.0309
     19 C          -0.3997    3.8236    1.2265 C.3     1  LIG1       -0.0595
     20 C          -2.4526    2.6497    1.9683 C.3     1  LIG1       -0.0595
     21 C          -0.2371    2.0334    2.9791 C.3     1  LIG1       -0.0476
     22 C           1.0397    1.2548    2.7110 C.3     1  LIG1       -0.0518
     23 C           0.7827   -0.0651    1.9779 C.3     1  LIG1       -0.0432
     24 H          -2.5563   -0.6505    1.0428 H       1  LIG1        0.0238
     25 H          -1.9145   -0.1868    2.6214 H       1  LIG1        0.0238
     26 H          -1.5114   -1.7399    1.9405 H       1  LIG1        0.0238
     27 H          -1.7584    2.4991   -0.9954 H       1  LIG1        0.0348
     28 H          -2.6766    1.1366   -0.3309 H       1  LIG1        0.0348
     29 H           0.1482   -0.7642   -3.5785 H       1  LIG1        0.0323
     30 H          -0.9704   -2.0080   -3.0334 H       1  LIG1        0.0323
     31 H           2.5858   -0.9210   -3.3314 H       1  LIG1        0.0572
     32 H           3.3041   -2.1551   -0.6109 H       1  LIG1        0.0532
     33 H           4.2377   -0.9249   -1.6205 H       1  LIG1        0.0532
     34 H           1.3887   -2.8054   -4.6355 H       1  LIG1        0.0238
     35 H           0.3203   -3.9429   -3.8071 H       1  LIG1        0.0238
     36 H           2.0688   -4.0376   -3.5603 H       1  LIG1        0.0238
     37 H           1.6699   -3.8255   -0.9763 H       1  LIG1        0.0353
     38 H          -0.0463   -3.8422   -1.3886 H       1  LIG1        0.0353
     39 H          -0.8821    4.1771    0.3092 H       1  LIG1        0.0235
     40 H           0.6791    3.7835    1.0406 H       1  LIG1        0.0235
     41 H          -0.5713    4.5840    1.9974 H       1  LIG1        0.0235
     42 H          -2.9799    3.0961    1.1182 H       1  LIG1        0.0235
     43 H          -2.5884    3.3286    2.8188 H       1  LIG1        0.0235
     44 H          -2.9589    1.7144    2.2175 H       1  LIG1        0.0235
     45 H          -0.8936    1.4258    3.6123 H       1  LIG1        0.0271
     46 H           0.0001    2.9212    3.5791 H       1  LIG1        0.0271
     47 H           1.5550    1.0471    3.6563 H       1  LIG1        0.0266
     48 H           1.7290    1.8703    2.1201 H       1  LIG1        0.0266
     49 H           0.6430   -0.8458    2.7372 H       1  LIG1        0.0274
     50 H           1.7136   -0.3190    1.4536 H       1  LIG1        0.0274
@<TRIPOS>BOND
     1     1     2    1
     2     2     3    1
     3     3     4    1
     4     4     5    1
     5     5     6    1
     6     6     7    1
     7     7     8    1
     8     8     9    1
     9     9    10    2
    10     8    11    1
    11     8    12    1
    12     6    13    2
    13     2    13    1
    14    13    14    1
    15    12    14    1
    16    14    15    2
    17     5    16    2
    18     3    17    1
    19     3    18    1
    20    18    19    1
    21    18    20    1
    22    18    21    1
    23    21    22    1
    24    22    23    1
    25     2    23    1
    26     1    24    1
    27     1    25    1
    28     1    26    1
    29     4    27    1
    30     4    28    1
    31     7    29    1
    32     7    30    1
    33     9    31    1
    34    10    32    1
    35    10    33    1
    36    11    34    1
    37    11    35    1
    38    11    36    1
    39    12    37    1
    40    12    38    1
    41    19    39    1
    42    19    40    1
    43    19    41    1
    44    20    42    1
    45    20    43    1
    46    20    44    1
    47    21    45    1
    48    21    46    1
    49    22    47    1
    50    22    48    1
    51    23    49    1
    52    23    50    1
