@<TRIPOS>MOLECULE
NuBBE_2084
 39 42 0 0 0
SMALL
GASTEIGER

@<TRIPOS>ATOM
      1 C           3.3886   -0.5555   -0.1798 C.3     1  LIG1        0.0168
      2 C           2.6191    0.7434   -0.0694 C.ar    1  LIG1        0.0694
      3 C           1.2628    0.8706    0.2631 C.ar    1  LIG1        0.0694
      4 C           0.6030    2.0955    0.3269 C.ar    1  LIG1        0.0107
      5 C          -0.7775    1.8281    0.6052 C.ar    1  LIG1        0.0109
      6 C          -0.9171    0.4501    0.7216 C.ar    1  LIG1        0.0477
      7 N           0.3289   -0.0977    0.5603 N.ar    1  LIG1       -0.3527
      8 H           0.5177   -1.0853    0.5988 H       1  LIG1        0.1660
      9 C          -2.1399   -0.1805    0.9571 C.ar    1  LIG1       -0.0343
     10 C          -3.2698    0.6333    1.0821 C.ar    1  LIG1       -0.0180
     11 C          -3.1741    2.0217    0.9863 C.ar    1  LIG1        0.1208
     12 C          -1.9307    2.6266    0.7499 C.ar    1  LIG1       -0.0102
     13 O          -4.2212    2.8992    1.0993 O.3     1  LIG1       -0.4951
     14 C          -5.5009    2.3328    1.3545 C.3     1  LIG1        0.0788
     15 C           1.3436    3.2638    0.0984 C.ar    1  LIG1       -0.0338
     16 C           2.6881    3.0957   -0.1858 C.ar    1  LIG1        0.0286
     17 N           3.3166    1.9024   -0.2731 N.ar    1  LIG1       -0.2575
     18 C           2.6041   -1.7669   -0.6500 C.ar    1  LIG1       -0.0413
     19 C           1.9315   -1.7542   -1.8840 C.ar    1  LIG1       -0.0548
     20 C           1.2168   -2.8732   -2.3192 C.ar    1  LIG1       -0.0199
     21 C           1.1834   -4.0141   -1.5257 C.ar    1  LIG1        0.1169
     22 C           1.8365   -4.0470   -0.2999 C.ar    1  LIG1       -0.0199
     23 C           2.5424   -2.9254    0.1410 C.ar    1  LIG1       -0.0548
     24 O           0.5137   -5.1345   -1.9190 O.3     1  LIG1       -0.5068
     25 H           3.8331   -0.7562    0.8027 H       1  LIG1        0.0377
     26 H           4.2246   -0.4179   -0.8773 H       1  LIG1        0.0377
     27 H          -2.2179   -1.2600    1.0332 H       1  LIG1        0.0639
     28 H          -4.2193    0.1379    1.2549 H       1  LIG1        0.0655
     29 H          -1.8610    3.7072    0.6669 H       1  LIG1        0.0661
     30 H          -6.2215    3.1520    1.4329 H       1  LIG1        0.0660
     31 H          -5.5102    1.7894    2.3055 H       1  LIG1        0.0660
     32 H          -5.8183    1.6881    0.5278 H       1  LIG1        0.0660
     33 H           0.8929    4.2472    0.1365 H       1  LIG1        0.0639
     34 H           3.3229    3.9610   -0.3655 H       1  LIG1        0.0830
     35 H           1.9503   -0.8617   -2.5083 H       1  LIG1        0.0622
     36 H           0.7039   -2.8358   -3.2752 H       1  LIG1        0.0654
     37 H           1.8036   -4.9480    0.3069 H       1  LIG1        0.0654
     38 H           3.0450   -2.9666    1.1053 H       1  LIG1        0.0622
     39 H           0.1066   -4.9655   -2.7848 H       1  LIG1        0.2921
@<TRIPOS>BOND
     1     1     2    1
     2     2     3   ar
     3     3     4   ar
     4     4     5   ar
     5     5     6   ar
     6     6     7   ar
     7     7     8    1
     8     3     7   ar
     9     6     9   ar
    10     9    10   ar
    11    10    11   ar
    12    11    12   ar
    13     5    12   ar
    14    11    13    1
    15    13    14    1
    16     4    15   ar
    17    15    16   ar
    18    16    17   ar
    19     2    17   ar
    20     1    18    1
    21    18    19   ar
    22    19    20   ar
    23    20    21   ar
    24    21    22   ar
    25    22    23   ar
    26    18    23   ar
    27    21    24    1
    28     1    25    1
    29     1    26    1
    30     9    27    1
    31    10    28    1
    32    12    29    1
    33    14    30    1
    34    14    31    1
    35    14    32    1
    36    15    33    1
    37    16    34    1
    38    19    35    1
    39    20    36    1
    40    22    37    1
    41    23    38    1
    42    24    39    1
