REMARK  Name = NuBBE_76
REMARK  12 active torsions:
REMARK  status: ('A' for Active; 'I' for Inactive)
REMARK    1  A    between atoms: C_1  and  C_2
REMARK    2  A    between atoms: C_11  and  C_12
REMARK    3  A    between atoms: C_17  and  O_21
REMARK    4  A    between atoms: C_24  and  C_26
REMARK    5  A    between atoms: C_26  and  C_28
REMARK    6  A    between atoms: C_26  and  C_36
REMARK    7  A    between atoms: C_28  and  C_29
REMARK    8  A    between atoms: C_29  and  C_30
REMARK    9  A    between atoms: C_30  and  C_32
REMARK   10  A    between atoms: C_30  and  C_35
REMARK   11  A    between atoms: C_32  and  C_33
REMARK   12  A    between atoms: C_32  and  C_34
REMARK                            x       y       z     vdW  Elec       q    Type
REMARK                         _______ _______ _______ _____ _____    ______ ____
ROOT
ATOM      1  C   LIG A   1       0.739  -1.946   1.562  0.00  0.00    +0.012 C 
ATOM      2  C   LIG A   1       0.256  -0.786   0.631  0.00  0.00    -0.026 C 
ATOM      3  C   LIG A   1      -0.011   0.534   1.387  0.00  0.00    -0.001 C 
ATOM      4  C   LIG A   1      -1.264   0.613   2.265  0.00  0.00    +0.000 C 
ATOM      5  C   LIG A   1      -2.523   0.085   1.504  0.00  0.00    +0.003 C 
ATOM      6  C   LIG A   1      -2.211  -0.397   0.064  0.00  0.00    +0.005 C 
ATOM      7  C   LIG A   1      -1.010  -1.334  -0.043  0.00  0.00    +0.007 C 
ATOM      8  C   LIG A   1      -3.560  -0.810   2.296  0.00  0.00    -0.008 C 
ATOM      9  C   LIG A   1      -4.959  -0.432   1.727  0.00  0.00    +0.016 C 
ATOM     10  C   LIG A   1      -3.501  -0.567   3.794  0.00  0.00    -0.065 C 
ATOM     11  C   LIG A   1      -2.399  -0.073   4.421  0.00  0.00    -0.027 C 
ATOM     12  C   LIG A   1      -1.117   0.202   3.724  0.00  0.00    +0.031 C 
ATOM     13  C   LIG A   1      -4.569  -1.224   4.613  0.00  0.00    +0.062 C 
ATOM     14  C   LIG A   1      -4.423  -2.745   4.437  0.00  0.00    +0.119 C 
ATOM     15  C   LIG A   1      -4.322  -3.179   2.968  0.00  0.00    +0.032 C 
ATOM     16  C   LIG A   1      -3.343  -2.333   2.139  0.00  0.00    +0.013 C 
ATOM     17  C   LIG A   1       1.360   0.921   1.928  0.00  0.00    +0.004 C 
ATOM     18  C   LIG A   1       2.331   0.439   0.823  0.00  0.00    +0.004 C 
ATOM     19  C   LIG A   1       1.471  -0.302  -0.267  0.00  0.00    -0.002 C 
ENDROOT
BRANCH  14  20
ATOM     20  O   LIG A   1      -5.515  -3.421   5.056  0.00  0.00    -0.392 OA
ATOM     21  H   LIG A   1      -6.327  -3.152   4.593  0.00  0.00    +0.210 HD
ENDBRANCH  14  20
BRANCH  19  22
ATOM     22  C   LIG A   1       1.222   0.667  -1.516  0.00  0.00    -0.010 C 
ATOM     23  C   LIG A   1       0.231   0.118  -2.553  0.00  0.00    +0.008 C 
BRANCH  22  24
ATOM     24  C   LIG A   1       2.567   1.003  -2.255  0.00  0.00    +0.004 C 
BRANCH  24  25
ATOM     25  C   LIG A   1       2.467   2.115  -3.323  0.00  0.00    +0.004 C 
BRANCH  25  26
ATOM     26  C   LIG A   1       3.801   2.522  -4.013  0.00  0.00    -0.011 C 
ATOM     27  C   LIG A   1       4.750   3.219  -3.027  0.00  0.00    +0.007 C 
BRANCH  26  28
ATOM     28  C   LIG A   1       4.538   1.379  -4.775  0.00  0.00    -0.014 C 
ATOM     29  C   LIG A   1       3.611   0.600  -5.713  0.00  0.00    +0.007 C 
ATOM     30  C   LIG A   1       5.732   1.925  -5.581  0.00  0.00    +0.007 C 
ENDBRANCH  26  28
ENDBRANCH  25  26
ENDBRANCH  24  25
ENDBRANCH  22  24
ENDBRANCH  19  22
TORSDOF 6
