@<TRIPOS>MOLECULE
NuBBE_1119
 23 24 0 0 0
SMALL
GASTEIGER

@<TRIPOS>ATOM
      1 O          -4.6603    0.3426   -0.4593 O.2     1  LIG1       -0.2452
      2 C          -3.4644    0.6017   -0.3620 C.ar    1  LIG1        0.3372
      3 C          -2.9978    1.9972   -0.3085 C.ar    1  LIG1        0.0236
      4 C          -1.7027    2.3179   -0.2189 C.ar    1  LIG1       -0.0443
      5 O          -2.4959   -0.3896   -0.2928 O.2     1  LIG1       -0.4220
      6 C          -1.1269   -0.0663   -0.1991 C.ar    1  LIG1        0.1426
      7 C          -0.7066    1.2604   -0.1703 C.ar    1  LIG1        0.0185
      8 C           0.6587    1.5272   -0.0901 C.ar    1  LIG1       -0.0373
      9 C           1.5785    0.4657   -0.0365 C.ar    1  LIG1        0.0566
     10 C           3.0198    0.7868    0.0535 C.2     1  LIG1        0.1537
     11 H           3.7294   -0.0557    0.0872 H       1  LIG1        0.1083
     12 O           3.4175    1.9464    0.0948 O.2     1  LIG1       -0.2956
     13 C           1.1410   -0.8707   -0.0379 C.ar    1  LIG1        0.1338
     14 O           2.0962   -1.8500    0.0323 O.3     1  LIG1       -0.4943
     15 C           1.6834   -3.0974    0.5872 C.3     1  LIG1        0.0788
     16 C          -0.2277   -1.1322   -0.1344 C.ar    1  LIG1        0.0238
     17 H          -3.7722    2.7539   -0.3468 H       1  LIG1        0.0689
     18 H          -1.3820    3.3535   -0.1790 H       1  LIG1        0.0627
     19 H           1.0206    2.5537   -0.0607 H       1  LIG1        0.0633
     20 H           2.5858   -3.6490    0.8681 H       1  LIG1        0.0660
     21 H           1.1421   -3.6925   -0.1550 H       1  LIG1        0.0660
     22 H           1.0841   -2.9608    1.4943 H       1  LIG1        0.0660
     23 H          -0.6207   -2.1431   -0.1663 H       1  LIG1        0.0691
@<TRIPOS>BOND
     1     1     2    2
     2     2     3   ar
     3     3     4   ar
     4     2     5   ar
     5     5     6   ar
     6     6     7   ar
     7     4     7   ar
     8     7     8   ar
     9     8     9   ar
    10     9    10    1
    11    10    11    1
    12    10    12    2
    13     9    13   ar
    14    13    14    1
    15    14    15    1
    16    13    16   ar
    17     6    16   ar
    18     3    17    1
    19     4    18    1
    20     8    19    1
    21    15    20    1
    22    15    21    1
    23    15    22    1
    24    16    23    1
