REMARK  Name = NuBBE_2070
REMARK  2 active torsions:
REMARK  status: ('A' for Active; 'I' for Inactive)
REMARK    1  A    between atoms: C_3  and  C_4
REMARK    2  A    between atoms: C_5  and  O_6
REMARK                            x       y       z     vdW  Elec       q    Type
REMARK                         _______ _______ _______ _____ _____    ______ ____
ROOT
ATOM      1  O   LIG A   1      -4.051   1.824   0.047  0.00  0.00    -0.250 OA
ATOM      2  C   LIG A   1      -3.065   1.142   0.134  0.00  0.00    +0.319 C 
ATOM      3  C   LIG A   1      -1.694   1.409  -0.461  0.00  0.00    +0.125 C 
ATOM      4  C   LIG A   1      -2.050   0.694  -1.874  0.00  0.00    +0.029 C 
ATOM      5  C   LIG A   1      -0.624   2.833  -1.040  0.00  0.00    +0.183 C 
ATOM      6  C   LIG A   1       0.278   1.770  -0.950  0.00  0.00    +0.066 C 
ATOM      7  C   LIG A   1       0.179   2.011   0.844  0.00  0.00    +0.015 C 
ATOM      8  C   LIG A   1       0.659   0.667   1.047  0.00  0.00    +0.005 C 
ATOM      9  C   LIG A   1       1.908   1.844   0.399  0.00  0.00    +0.170 C 
ATOM     10  O   LIG A   1       1.059   3.237  -0.443  0.00  0.00    -0.347 OA
ATOM     11  C   LIG A   1       0.779  -0.715   0.196  0.00  0.00    +0.008 C 
ATOM     12  C   LIG A   1       0.464  -1.843   1.196  0.00  0.00    +0.062 C 
ATOM     13  C   LIG A   1      -1.099  -1.887   1.440  0.00  0.00    +0.056 C 
ATOM     14  C   LIG A   1      -1.853  -0.538   1.324  0.00  0.00    +0.182 C 
ATOM     15  O   LIG A   1      -3.044  -0.245   0.554  0.00  0.00    -0.461 OA
ATOM     16  C   LIG A   1      -1.004   0.623   0.956  0.00  0.00    +0.060 C 
ATOM     17  C   LIG A   1       1.919  -0.924  -0.811  0.00  0.00    +0.005 C 
ATOM     18  C   LIG A   1       2.099  -2.362  -1.268  0.00  0.00    +0.008 C 
ATOM     19  C   LIG A   1       2.215  -3.299  -0.091  0.00  0.00    +0.075 C 
ATOM     20  C   LIG A   1       0.990  -3.221   0.791  0.00  0.00    +0.137 C 
ATOM     21  O   LIG A   1       0.530  -4.246   1.299  0.00  0.00    -0.297 OA
ENDROOT
BRANCH   5  22
ATOM     22  O   LIG A   1      -1.156   3.981  -0.454  0.00  0.00    -0.364 OA
ATOM     23  H   LIG A   1      -1.940   3.770   0.072  0.00  0.00    +0.213 HD
ENDBRANCH   5  22
TORSDOF 1
