@<TRIPOS>MOLECULE
NuBBE_2098
 48 51 0 0 0
SMALL
GASTEIGER

@<TRIPOS>ATOM
      1 C          -0.7396    3.3809    0.1201 C.3     1  LIG1       -0.0234
      2 C          -2.0464    3.8538   -0.4770 C.2     1  LIG1       -0.0904
      3 C          -2.9335    4.6255    0.1666 C.2     1  LIG1       -0.1026
      4 C          -0.7996    1.9544    0.7925 C.3     1  LIG1        0.0443
      5 C           0.5789    1.5434    1.3459 C.3     1  LIG1        0.2390
      6 O           0.4969    0.3155    2.0852 O.3     1  LIG1       -0.3582
      7 O           1.3468    1.2490    0.2000 O.3     1  LIG1       -0.3337
      8 C           0.4826    0.5613   -0.7468 C.3     1  LIG1        0.0908
      9 H           0.6795    1.0604   -1.7050 H       1  LIG1        0.0650
     10 C          -0.9908    0.8820   -0.3186 C.3     1  LIG1       -0.0017
     11 H          -1.4872    1.3196   -1.1937 H       1  LIG1        0.0334
     12 C          -1.8842   -0.2916    0.0858 C.3     1  LIG1       -0.0590
     13 C           0.9217   -0.8880   -0.9347 C.ar    1  LIG1       -0.0114
     14 C           2.0668   -1.3951   -0.2970 C.ar    1  LIG1       -0.0103
     15 C           2.4183   -2.7178   -0.4968 C.ar    1  LIG1        0.1702
     16 C           1.6915   -3.5640   -1.3046 C.ar    1  LIG1        0.2075
     17 C           0.5780   -3.1045   -1.9813 C.ar    1  LIG1        0.1657
     18 C           0.2187   -1.7547   -1.8062 C.ar    1  LIG1       -0.0104
     19 O          -0.2679   -3.8220   -2.7777 O.3     1  LIG1       -0.4913
     20 C           0.2890   -4.9517   -3.4381 C.3     1  LIG1        0.0790
     21 O           2.2122   -4.8232   -1.3005 O.3     1  LIG1       -0.4489
     22 C           3.3699   -4.6555   -0.4603 C.3     1  LIG1        0.2334
     23 O           3.4899   -3.3290    0.0817 O.3     1  LIG1       -0.4525
     24 C           1.0623    2.5782    2.4039 C.2     1  LIG1        0.2150
     25 O           2.2209    2.9268    2.5505 O.2     1  LIG1       -0.2869
     26 C           0.0010    3.0737    3.3515 C.2     1  LIG1       -0.0176
     27 C          -1.2899    2.7681    3.1474 C.2     1  LIG1       -0.0798
     28 C          -1.7966    1.9604    1.9751 C.3     1  LIG1       -0.0227
     29 H          -0.4031    4.1398    0.8367 H       1  LIG1        0.0315
     30 H           0.0145    3.4005   -0.6779 H       1  LIG1        0.0315
     31 H          -2.2608    3.5624   -1.5035 H       1  LIG1        0.0566
     32 H          -2.7745    4.9491    1.1912 H       1  LIG1        0.0532
     33 H          -3.8597    4.9320   -0.3112 H       1  LIG1        0.0532
     34 H           1.4127    0.1543    2.3782 H       1  LIG1        0.2132
     35 H          -1.4400   -0.9125    0.8676 H       1  LIG1        0.0234
     36 H          -2.1188   -0.9281   -0.7706 H       1  LIG1        0.0234
     37 H          -2.8543    0.0724    0.4424 H       1  LIG1        0.0234
     38 H           2.6798   -0.7756    0.3492 H       1  LIG1        0.0659
     39 H          -0.6371   -1.3831   -2.3672 H       1  LIG1        0.0659
     40 H          -0.4743   -5.3395   -4.1207 H       1  LIG1        0.0660
     41 H           0.5307   -5.7597   -2.7422 H       1  LIG1        0.0660
     42 H           1.1575   -4.6632   -4.0391 H       1  LIG1        0.0660
     43 H           4.2652   -4.8765   -1.0537 H       1  LIG1        0.1166
     44 H           3.3170   -5.3718    0.3680 H       1  LIG1        0.1166
     45 H           0.3468    3.6484    4.2018 H       1  LIG1        0.0651
     46 H          -2.0321    3.0979    3.8688 H       1  LIG1        0.0573
     47 H          -2.7709    2.3467    1.6604 H       1  LIG1        0.0315
     48 H          -1.9881    0.9504    2.3538 H       1  LIG1        0.0315
@<TRIPOS>BOND
     1     1     2    1
     2     2     3    2
     3     4     5    1
     4     5     7    1
     5     7     8    1
     6     8    10    1
     7     4    10    1
     8    13    14   ar
     9    14    15   ar
    10    15    16   ar
    11    16    17   ar
    12    17    18   ar
    13    13    18   ar
    14    17    19    1
    15    19    20    1
    16    16    21    1
    17    21    22    1
    18    22    23    1
    19    15    23    1
    20     5    24    1
    21    24    26    1
    22    26    27    2
    23    27    28    1
    24     4    28    1
    25     1     4    1
    26     5     6    1
    27    24    25    2
    28    10    12    1
    29    10    11    1
    30     8    13    1
    31     8     9    1
    32     1    29    1
    33     1    30    1
    34     2    31    1
    35     3    32    1
    36     3    33    1
    37     6    34    1
    38    12    35    1
    39    12    36    1
    40    12    37    1
    41    14    38    1
    42    18    39    1
    43    20    40    1
    44    20    41    1
    45    20    42    1
    46    22    43    1
    47    22    44    1
    48    26    45    1
    49    27    46    1
    50    28    47    1
    51    28    48    1
