REMARK  Name = NuBBE_1238
REMARK  9 active torsions:
REMARK  status: ('A' for Active; 'I' for Inactive)
REMARK    1  A    between atoms: N_4  and  C_5
REMARK    2  A    between atoms: C_5  and  O_6
REMARK    3  A    between atoms: O_6  and  C_7
REMARK    4  A    between atoms: C_7  and  C_8
REMARK    5  A    between atoms: C_12  and  O_13
REMARK    6  A    between atoms: O_13  and  C_14
REMARK    7  A    between atoms: C_15  and  O_16
REMARK    8  A    between atoms: O_16  and  C_17
REMARK    9  A    between atoms: C_18  and  O_19
REMARK                            x       y       z     vdW  Elec       q    Type
REMARK                         _______ _______ _______ _____ _____    ______ ____
ROOT
ATOM      1  C   LIG A   1      -0.924  -3.840  -0.695  0.00  0.00    +0.026 A 
ATOM      2  C   LIG A   1      -0.274  -2.598  -0.572  0.00  0.00    +0.056 A 
ATOM      3  N   LIG A   1      -0.942  -1.349  -0.551  0.00  0.00    -0.306 N 
ATOM      4  C   LIG A   1      -0.239  -0.110  -0.539  0.00  0.00    +0.063 A 
ATOM      5  C   LIG A   1      -0.877   1.140  -0.572  0.00  0.00    +0.076 A 
ATOM      6  C   LIG A   1      -0.172   2.358  -0.564  0.00  0.00    +0.167 A 
ATOM      7  C   LIG A   1       1.229   2.364  -0.517  0.00  0.00    +0.204 A 
ATOM      8  C   LIG A   1       1.892   1.127  -0.536  0.00  0.00    +0.175 A 
ATOM      9  C   LIG A   1       1.165  -0.087  -0.532  0.00  0.00    +0.091 A 
ATOM     10  C   LIG A   1       1.885  -1.376  -0.496  0.00  0.00    +0.201 A 
ATOM     11  O   LIG A   1       3.115  -1.387  -0.461  0.00  0.00    -0.286 OA
ATOM     12  C   LIG A   1       1.129  -2.639  -0.518  0.00  0.00    +0.046 A 
ATOM     13  C   LIG A   1       1.845  -3.847  -0.494  0.00  0.00    +0.014 A 
ATOM     14  C   LIG A   1       1.168  -5.056  -0.567  0.00  0.00    +0.001 A 
ATOM     15  C   LIG A   1      -0.216  -5.051  -0.685  0.00  0.00    +0.002 A 
ENDROOT
BRANCH   6  16
ATOM     16  O   LIG A   1      -1.006   3.450  -0.545  0.00  0.00    -0.491 OA
ATOM     17  C   LIG A   1      -0.533   4.638  -1.167  0.00  0.00    +0.277 C 
ENDBRANCH   6  16
BRANCH   7  18
ATOM     18  O   LIG A   1       1.850   3.584  -0.495  0.00  0.00    -0.488 OA
ATOM     19  C   LIG A   1       3.098   3.679   0.180  0.00  0.00    +0.277 C 
ENDBRANCH   7  18
BRANCH   8  20
ATOM     20  O   LIG A   1       3.268   1.113  -0.589  0.00  0.00    -0.503 OA
ATOM     21  H   LIG A   1       3.571   0.177  -0.590  0.00  0.00    +0.292 HD
ENDBRANCH   8  20
BRANCH   3  22
ATOM     22  C   LIG A   1      -2.329  -1.315  -0.040  0.00  0.00    +0.359 C 
BRANCH  22  23
ATOM     23  O   LIG A   1      -2.324  -1.081   1.374  0.00  0.00    -0.443 OA
BRANCH  23  24
ATOM     24  C   LIG A   1      -3.059  -0.020   1.796  0.00  0.00    +0.306 C 
ATOM     25  C   LIG A   1      -2.937   0.135   3.281  0.00  0.00    +0.136 C 
ATOM     26  O   LIG A   1      -3.716   0.721   1.087  0.00  0.00    -0.251 OA
ENDBRANCH  23  24
ENDBRANCH  22  23
ENDBRANCH   3  22
TORSDOF 6
