@<TRIPOS>MOLECULE
NuBBE_1187
 23 22 0 0 0
SMALL
GASTEIGER

@<TRIPOS>ATOM
      1 O           1.3733    0.7259    0.5707 O.3     1  LIG1       -0.3866
      2 C           0.0042    0.7720    0.1485 C.3     1  LIG1        0.1094
      3 H          -0.5159    1.4138    0.8712 H       1  LIG1        0.0646
      4 C          -0.0467    1.4739   -1.2237 C.3     1  LIG1        0.0808
      5 H          -1.0827    1.6345   -1.5391 H       1  LIG1        0.0617
      6 C           0.7407    0.7586   -2.3168 C.3     1  LIG1       -0.0364
      7 O           0.5666    2.7645   -1.0335 O.3     1  LIG1       -0.3894
      8 C          -0.6282   -0.6291    0.1814 C.3     1  LIG1        0.1158
      9 H          -0.1105   -1.3039   -0.5098 H       1  LIG1        0.0650
     10 C          -0.6182   -1.2594    1.5874 C.3     1  LIG1        0.1381
     11 H          -1.0941   -0.5972    2.3177 H       1  LIG1        0.0697
     12 C           0.7884   -1.5838    2.0741 C.2     1  LIG1        0.1512
     13 O           1.1572   -2.7286    2.3599 O.2     1  LIG1       -0.2982
     14 O          -1.4311   -2.4456    1.5337 O.3     1  LIG1       -0.3819
     15 O          -1.9931   -0.5427   -0.2696 O.3     1  LIG1       -0.3861
     16 H           1.7264    1.6152    0.3528 H       1  LIG1        0.2100
     17 H           0.7461    1.3587   -3.2336 H       1  LIG1        0.0255
     18 H           0.3167   -0.2209   -2.5511 H       1  LIG1        0.0255
     19 H           1.7911    0.6299   -2.0320 H       1  LIG1        0.0255
     20 H           0.4944    3.2419   -1.8794 H       1  LIG1        0.2099
     21 H           1.4537   -0.7333    2.2667 H       1  LIG1        0.1055
     22 H          -1.2494   -2.9339    2.3616 H       1  LIG1        0.2105
     23 H          -2.3890   -1.4104   -0.0369 H       1  LIG1        0.2100
@<TRIPOS>BOND
     1     1     2    1
     2     2     3    1
     3     4     6    1
     4     4     7    1
     5     2     8    1
     6     8     9    1
     7    10    12    1
     8    12    13    2
     9    10    14    1
    10     8    15    1
    11    10    11    1
    12    10     8    1
    13     4     5    1
    14     4     2    1
    15     1    16    1
    16     6    17    1
    17     6    18    1
    18     6    19    1
    19     7    20    1
    20    12    21    1
    21    14    22    1
    22    15    23    1
