@<TRIPOS>MOLECULE
NuBBE_415
 83 87 0 0 0
SMALL
GASTEIGER

@<TRIPOS>ATOM
      1 H          -0.7256   -2.6127   -0.1112 H       1  LIG1        0.0311
      2 C           0.0429   -2.8678   -0.8574 C.3     1  LIG1       -0.0295
      3 C           1.2569   -3.4697   -0.0082 C.3     1  LIG1       -0.0238
      4 C           2.6491   -3.7171   -0.6862 C.3     1  LIG1       -0.0590
      5 C           0.8351   -4.8395    0.6058 C.3     1  LIG1       -0.0121
      6 H           1.7009   -5.2994    1.1046 H       1  LIG1        0.0328
      7 C           0.4344   -5.7325   -0.5913 C.3     1  LIG1        0.0583
      8 H           1.1592   -5.6699   -1.4056 H       1  LIG1        0.0596
      9 C          -0.8825   -5.2868   -1.1795 C.3     1  LIG1       -0.0263
     10 C          -0.6907   -3.8890   -1.7756 C.3     1  LIG1       -0.0469
     11 O           0.4214   -7.1152   -0.2208 O.3     1  LIG1       -0.3915
     12 C          -0.2572   -4.7496    1.6881 C.3     1  LIG1       -0.0596
     13 C           1.5728   -2.4217    1.0659 C.3     1  LIG1       -0.0467
     14 C           2.1229   -1.1643    0.3749 C.3     1  LIG1       -0.0487
     15 C           1.0161   -0.5079   -0.4996 C.3     1  LIG1       -0.0294
     16 C           0.3616   -1.4741   -1.5553 C.3     1  LIG1       -0.0254
     17 C          -0.9352   -0.7037   -1.9039 C.3     1  LIG1       -0.0466
     18 C          -0.5701    0.6966   -2.4033 C.3     1  LIG1       -0.0463
     19 C          -0.3599    1.9234   -1.2678 C.3     1  LIG1       -0.0230
     20 C           1.1997    1.0763   -0.8791 C.3     1  LIG1       -0.0231
     21 C           1.9770    1.6534    0.3495 C.3     1  LIG1       -0.0463
     22 C           1.4444    2.9231    0.8170 C.3     1  LIG1       -0.0468
     23 C           0.0148    2.6471    1.3074 C.3     1  LIG1       -0.0287
     24 C          -0.7857    3.0073    0.0567 C.3     1  LIG1       -0.0292
     25 C          -2.1921    3.6005    0.5819 C.3     1  LIG1       -0.0440
     26 C          -2.0940    4.6251    1.8201 C.3     1  LIG1       -0.0346
     27 C          -2.9081    4.0809    3.0449 C.3     1  LIG1       -0.0598
     28 C          -0.6352    4.8119    2.2795 C.3     1  LIG1       -0.0474
     29 C          -0.0803    3.4781    2.5983 C.3     1  LIG1       -0.0469
     30 C          -2.6191    6.0343    1.4953 C.3     1  LIG1       -0.0598
     31 H          -0.3797    3.9431   -0.3741 H       1  LIG1        0.0312
     32 C          -0.5906    1.2649    1.6958 C.3     1  LIG1       -0.0593
     33 C           2.3278    1.2234   -1.9601 C.3     1  LIG1       -0.0588
     34 C          -1.7043    2.3455   -2.0373 C.3     1  LIG1       -0.0588
     35 C           1.0606   -1.7819   -2.9090 C.3     1  LIG1       -0.0590
     36 H           0.2255   -0.4677    0.2450 H       1  LIG1        0.0312
     37 H           2.7417   -4.6527   -1.2425 H       1  LIG1        0.0235
     38 H           3.4225   -3.7918    0.0961 H       1  LIG1        0.0235
     39 H           2.9800   -2.9326   -1.3467 H       1  LIG1        0.0235
     40 H          -1.6878   -5.2974   -0.4397 H       1  LIG1        0.0290
     41 H          -1.2016   -5.9836   -1.9644 H       1  LIG1        0.0290
     42 H          -1.6776   -3.4939   -2.0466 H       1  LIG1        0.0269
     43 H          -0.1406   -4.0304   -2.7068 H       1  LIG1        0.0269
     44 H           1.3082   -7.4502   -0.4929 H       1  LIG1        0.2098
     45 H           0.1735   -4.4429    2.6476 H       1  LIG1        0.0233
     46 H          -0.7459   -5.7162    1.8442 H       1  LIG1        0.0233
     47 H          -1.0407   -4.0224    1.4492 H       1  LIG1        0.0233
     48 H           2.3184   -2.8005    1.7781 H       1  LIG1        0.0271
     49 H           0.7103   -2.1703    1.6602 H       1  LIG1        0.0271
     50 H           3.0308   -1.3198   -0.2138 H       1  LIG1        0.0268
     51 H           2.4762   -0.5813    1.2210 H       1  LIG1        0.0268
     52 H          -1.6202   -0.6229   -1.0631 H       1  LIG1        0.0271
     53 H          -1.4903   -1.2158   -2.6998 H       1  LIG1        0.0271
     54 H          -1.1966    0.8598   -3.2962 H       1  LIG1        0.0271
     55 H           0.3319    0.6849   -3.0197 H       1  LIG1        0.0271
     56 H           3.0542    1.7565    0.1948 H       1  LIG1        0.0271
     57 H           1.9012    1.0518    1.2514 H       1  LIG1        0.0271
     58 H           1.5248    3.6785    0.0250 H       1  LIG1        0.0271
     59 H           2.1157    3.3010    1.5956 H       1  LIG1        0.0271
     60 H          -2.8616    2.7626    0.8190 H       1  LIG1        0.0273
     61 H          -2.6935    4.1818   -0.1985 H       1  LIG1        0.0273
     62 H          -2.9630    2.9889    3.0541 H       1  LIG1        0.0235
     63 H          -3.9436    4.4489    3.0517 H       1  LIG1        0.0235
     64 H          -2.4620    4.3881    3.9953 H       1  LIG1        0.0235
     65 H          -0.5816    5.4521    3.1794 H       1  LIG1        0.0271
     66 H          -0.0422    5.3253    1.5134 H       1  LIG1        0.0271
     67 H          -0.6787    2.9656    3.3606 H       1  LIG1        0.0271
     68 H           0.8917    3.5584    3.1038 H       1  LIG1        0.0271
     69 H          -3.6820    6.1492    1.7274 H       1  LIG1        0.0235
     70 H          -2.4698    6.2889    0.4436 H       1  LIG1        0.0235
     71 H          -2.0928    6.8001    2.0842 H       1  LIG1        0.0235
     72 H          -1.0234    0.7446    0.8402 H       1  LIG1        0.0235
     73 H          -1.4870    1.3837    2.3190 H       1  LIG1        0.0235
     74 H           0.0937    0.6167    2.2455 H       1  LIG1        0.0235
     75 H           2.4426    2.2686   -2.2672 H       1  LIG1        0.0235
     76 H           2.2298    0.6292   -2.8571 H       1  LIG1        0.0235
     77 H           3.2988    0.8847   -1.5691 H       1  LIG1        0.0235
     78 H          -2.4881    1.5507   -2.0224 H       1  LIG1        0.0235
     79 H          -1.5285    2.7651   -3.0335 H       1  LIG1        0.0235
     80 H          -2.3141    3.1265   -1.6127 H       1  LIG1        0.0235
     81 H           1.4217   -0.9301   -3.4726 H       1  LIG1        0.0235
     82 H           0.3450   -2.2426   -3.6027 H       1  LIG1        0.0235
     83 H           1.8877   -2.4789   -2.8377 H       1  LIG1        0.0235
@<TRIPOS>BOND
     1     1     2    1
     2     2     3    1
     3     3     4    1
     4     3     5    1
     5     5     6    1
     6     5     7    1
     7     7     8    1
     8     7     9    1
     9     9    10    1
    10     2    10    1
    11     7    11    1
    12     5    12    1
    13     3    13    1
    14    13    14    1
    15    14    15    1
    16    15    16    1
    17    16    17    1
    18    17    18    1
    19    18    19    1
    20    19    20    1
    21    20    21    1
    22    21    22    1
    23    22    23    1
    24    23    24    1
    25    24    25    1
    26    25    26    1
    27    26    27    1
    28    26    28    1
    29    28    29    1
    30    26    30    1
    31    24    31    1
    32    29    23    1
    33    23    32    1
    34    20    33    1
    35    24    19    1
    36    19    34    1
    37     2    16    1
    38    16    35    1
    39    20    15    1
    40    15    36    1
    41     4    37    1
    42     4    38    1
    43     4    39    1
    44     9    40    1
    45     9    41    1
    46    10    42    1
    47    10    43    1
    48    11    44    1
    49    12    45    1
    50    12    46    1
    51    12    47    1
    52    13    48    1
    53    13    49    1
    54    14    50    1
    55    14    51    1
    56    17    52    1
    57    17    53    1
    58    18    54    1
    59    18    55    1
    60    21    56    1
    61    21    57    1
    62    22    58    1
    63    22    59    1
    64    25    60    1
    65    25    61    1
    66    27    62    1
    67    27    63    1
    68    27    64    1
    69    28    65    1
    70    28    66    1
    71    29    67    1
    72    29    68    1
    73    30    69    1
    74    30    70    1
    75    30    71    1
    76    32    72    1
    77    32    73    1
    78    32    74    1
    79    33    75    1
    80    33    76    1
    81    33    77    1
    82    34    78    1
    83    34    79    1
    84    34    80    1
    85    35    81    1
    86    35    82    1
    87    35    83    1
