@<TRIPOS>MOLECULE
NuBBE_1992
 54 56 0 0 0
SMALL
GASTEIGER

@<TRIPOS>ATOM
      1 C          -1.7670   -5.9397    0.1394 C.3     1  LIG1        0.0790
      2 O          -1.8430   -4.5232    0.2844 O.3     1  LIG1       -0.4913
      3 C          -0.9981   -3.7919   -0.5148 C.ar    1  LIG1        0.1655
      4 C          -1.0446   -2.3930   -0.4129 C.ar    1  LIG1        0.2042
      5 C          -0.2291   -1.5870   -1.2133 C.ar    1  LIG1        0.1669
      6 O          -0.2140   -0.2148   -1.1558 O.3     1  LIG1       -0.4767
      7 C          -1.1972    0.3652   -0.2602 C.3     1  LIG1        0.1618
      8 H          -2.1204    0.4508   -0.8540 H       1  LIG1        0.0822
      9 C          -0.6767    1.7603    0.0943 C.ar    1  LIG1        0.0034
     10 C          -1.3662    2.9049   -0.3183 C.ar    1  LIG1       -0.0093
     11 C          -0.8647    4.1862   -0.0376 C.ar    1  LIG1        0.1655
     12 O          -1.5859    5.3296   -0.3233 O.3     1  LIG1       -0.4913
     13 C          -3.0049    5.1817   -0.3003 C.3     1  LIG1        0.0790
     14 C           0.4149    4.3632    0.5542 C.ar    1  LIG1        0.2035
     15 O           0.8238    5.6851    0.5250 O.3     1  LIG1       -0.4885
     16 C           1.8731    5.9926    1.3984 C.3     1  LIG1        0.0791
     17 C           1.1089    3.2228    1.0282 C.ar    1  LIG1        0.1655
     18 O           2.3983    3.1535    1.5278 O.3     1  LIG1       -0.4913
     19 C           2.7151    3.7566    2.7907 C.3     1  LIG1        0.0790
     20 C           0.5348    1.9455    0.7965 C.ar    1  LIG1       -0.0093
     21 C          -1.4283   -0.5702    0.9488 C.3     1  LIG1        0.1385
     22 H          -0.4835   -0.7495    1.4792 H       1  LIG1        0.0771
     23 C          -2.4638   -0.1195    1.9699 C.3     1  LIG1       -0.0239
     24 O          -1.9174   -1.8412    0.4843 O.3     1  LIG1       -0.4781
     25 C           0.6543   -2.1803   -2.1151 C.ar    1  LIG1       -0.0125
     26 C           0.7537   -3.5774   -2.1941 C.ar    1  LIG1       -0.0365
     27 C           1.7048   -4.2513   -3.1520 C.3     1  LIG1       -0.0095
     28 C           2.8071   -5.1078   -2.5432 C.2     1  LIG1       -0.0868
     29 C           3.0273   -5.4466   -1.3027 C.2     1  LIG1       -0.1023
     30 C          -0.0877   -4.3652   -1.3998 C.ar    1  LIG1       -0.0126
     31 H          -2.5298   -6.3990    0.7732 H       1  LIG1        0.0660
     32 H          -0.7896   -6.3099    0.4703 H       1  LIG1        0.0660
     33 H          -1.9726   -6.2452   -0.8934 H       1  LIG1        0.0660
     34 H          -2.2954    2.8037   -0.8733 H       1  LIG1        0.0659
     35 H          -3.4532    6.1599   -0.1005 H       1  LIG1        0.0660
     36 H          -3.3468    4.5021    0.4903 H       1  LIG1        0.0660
     37 H          -3.3577    4.8417   -1.2787 H       1  LIG1        0.0660
     38 H           2.1602    7.0446    1.4486 H       1  LIG1        0.0660
     39 H           2.7646    5.4809    1.0262 H       1  LIG1        0.0660
     40 H           1.5248    5.7576    2.4095 H       1  LIG1        0.0660
     41 H           1.8425    3.8925    3.4357 H       1  LIG1        0.0660
     42 H           3.2441    4.7081    2.6667 H       1  LIG1        0.0660
     43 H           3.4938    3.1857    3.2998 H       1  LIG1        0.0660
     44 H           1.0700    1.0619    1.1407 H       1  LIG1        0.0659
     45 H          -2.0445    0.5909    2.6861 H       1  LIG1        0.0266
     46 H          -2.8254   -0.9901    2.5348 H       1  LIG1        0.0266
     47 H          -3.3417    0.3243    1.4910 H       1  LIG1        0.0266
     48 H           1.2591   -1.5454   -2.7570 H       1  LIG1        0.0658
     49 H           2.1722   -3.4897   -3.7820 H       1  LIG1        0.0355
     50 H           1.1071   -4.8791   -3.8258 H       1  LIG1        0.0355
     51 H           3.5093   -5.4772   -3.3064 H       1  LIG1        0.0570
     52 H           2.3890   -5.1426   -0.4616 H       1  LIG1        0.0532
     53 H           3.8876   -6.0721   -1.0261 H       1  LIG1        0.0532
     54 H           0.0084   -5.4429   -1.4915 H       1  LIG1        0.0658
@<TRIPOS>BOND
     1     1     2    1
     2     2     3    1
     3     3     4   ar
     4     4     5   ar
     5     5     6    1
     6     6     7    1
     7     7     8    1
     8     7     9    1
     9     9    10   ar
    10    10    11   ar
    11    11    12    1
    12    12    13    1
    13    11    14   ar
    14    14    15    1
    15    15    16    1
    16    14    17   ar
    17    17    18    1
    18    18    19    1
    19    17    20   ar
    20     9    20   ar
    21     7    21    1
    22    21    22    1
    23    21    23    1
    24    21    24    1
    25     4    24    1
    26     5    25   ar
    27    25    26   ar
    28    26    27    1
    29    27    28    1
    30    28    29    2
    31    26    30   ar
    32     3    30   ar
    33     1    31    1
    34     1    32    1
    35     1    33    1
    36    10    34    1
    37    13    35    1
    38    13    36    1
    39    13    37    1
    40    16    38    1
    41    16    39    1
    42    16    40    1
    43    19    41    1
    44    19    42    1
    45    19    43    1
    46    20    44    1
    47    23    45    1
    48    23    46    1
    49    23    47    1
    50    25    48    1
    51    27    49    1
    52    27    50    1
    53    28    51    1
    54    29    52    1
    55    29    53    1
    56    30    54    1
