REMARK  Name = NuBBE_477
REMARK  8 active torsions:
REMARK  status: ('A' for Active; 'I' for Inactive)
REMARK    1  A    between atoms: C_2  and  C_3
REMARK    2  A    between atoms: C_2  and  O_13
REMARK    3  A    between atoms: C_4  and  C_5
REMARK    4  A    between atoms: C_7  and  O_8
REMARK    5  A    between atoms: C_9  and  O_12
REMARK    6  A    between atoms: O_13  and  C_14
REMARK    7  A    between atoms: C_14  and  C_15
REMARK    8  A    between atoms: C_15  and  C_16
REMARK                            x       y       z     vdW  Elec       q    Type
REMARK                         _______ _______ _______ _____ _____    ______ ____
ROOT
ATOM      1  C   LIG A   1       0.558   0.725   1.240  0.00  0.00    +0.092 C 
ATOM      2  C   LIG A   1      -0.077   1.863   1.570  0.00  0.00    +0.015 C 
ENDROOT
BRANCH   2   3
ATOM      3  C   LIG A   1       0.620   3.037   2.122  0.00  0.00    -0.021 A 
ATOM      4  C   LIG A   1      -0.051   3.897   3.007  0.00  0.00    +0.057 A 
ATOM      5  C   LIG A   1       0.594   5.039   3.479  0.00  0.00    +0.159 A 
ATOM      6  C   LIG A   1       1.892   5.337   3.072  0.00  0.00    +0.158 A 
ATOM      7  C   LIG A   1       2.565   4.509   2.191  0.00  0.00    +0.050 A 
ATOM      8  C   LIG A   1       1.925   3.365   1.712  0.00  0.00    +0.012 A 
BRANCH   5   9
ATOM      9  O   LIG A   1      -0.011   5.911   4.342  0.00  0.00    -0.503 OA
ATOM     10  H   LIG A   1      -0.906   5.581   4.532  0.00  0.00    +0.292 HD
ENDBRANCH   5   9
BRANCH   6  11
ATOM     11  O   LIG A   1       2.515   6.461   3.533  0.00  0.00    -0.503 OA
ATOM     12  H   LIG A   1       1.858   6.880   4.123  0.00  0.00    +0.292 HD
ENDBRANCH   6  11
ENDBRANCH   2   3
BRANCH   1  14
ATOM     13  O   LIG A   1      -1.372  -0.493   0.523  0.00  0.00    -0.246 OA
ATOM     14  C   LIG A   1      -0.155  -0.397   0.607  0.00  0.00    +0.332 C 
BRANCH  14  15
ATOM     15  O   LIG A   1       0.759  -1.272   0.123  0.00  0.00    -0.461 OA
BRANCH  15  16
ATOM     16  C   LIG A   1       0.208  -2.444  -0.508  0.00  0.00    +0.237 C 
BRANCH  16  17
ATOM     17  C   LIG A   1      -0.216  -2.131  -1.942  0.00  0.00    +0.076 C 
BRANCH  17  18
ATOM     18  C   LIG A   1      -0.812  -3.316  -2.657  0.00  0.00    -0.044 A 
ATOM     19  C   LIG A   1      -2.189  -3.567  -2.575  0.00  0.00    +0.003 A 
ATOM     20  C   LIG A   1      -2.752  -4.653  -3.248  0.00  0.00    +0.000 A 
ATOM     21  C   LIG A   1      -1.944  -5.499  -4.005  0.00  0.00    +0.000 A 
ATOM     22  C   LIG A   1      -0.573  -5.262  -4.087  0.00  0.00    +0.000 A 
ATOM     23  C   LIG A   1      -0.008  -4.177  -3.414  0.00  0.00    +0.003 A 
ENDBRANCH  17  18
ENDBRANCH  16  17
ENDBRANCH  15  16
ENDBRANCH  14  15
ENDBRANCH   1  14
TORSDOF 8
