REMARK  Name = NuBBE_2017
REMARK  9 active torsions:
REMARK  status: ('A' for Active; 'I' for Inactive)
REMARK    1  A    between atoms: C_3  and  O_4
REMARK    2  A    between atoms: O_4  and  C_5
REMARK    3  A    between atoms: C_7  and  C_8
REMARK    4  A    between atoms: C_8  and  C_9
REMARK    5  A    between atoms: C_11  and  C_13
REMARK    6  A    between atoms: C_14  and  C_16
REMARK    7  A    between atoms: C_25  and  O_29
REMARK    8  A    between atoms: C_26  and  O_28
REMARK    9  A    between atoms: O_29  and  C_30
REMARK                            x       y       z     vdW  Elec       q    Type
REMARK                         _______ _______ _______ _____ _____    ______ ____
ROOT
ATOM      1  O   LIG A   1      -3.593  -0.460   0.316  0.00  0.00    -0.286 OA
ATOM      2  C   LIG A   1      -2.432  -0.432   0.708  0.00  0.00    +0.232 C 
ATOM      3  C   LIG A   1      -1.967  -1.277   1.928  0.00  0.00    +0.162 C 
ATOM      4  C   LIG A   1      -0.613  -1.401   2.087  0.00  0.00    +0.032 C 
ATOM      5  C   LIG A   1       0.385  -1.068   0.978  0.00  0.00    +0.028 C 
ATOM      6  C   LIG A   1       0.997   0.385   0.895  0.00  0.00    +0.009 C 
ATOM      7  C   LIG A   1       1.298   1.052   2.240  0.00  0.00    +0.009 C 
ATOM      8  C   LIG A   1       0.005   1.236   0.001  0.00  0.00    +0.065 C 
ATOM      9  C   LIG A   1      -1.350   0.433  -0.023  0.00  0.00    +0.168 C 
ATOM     10  C   LIG A   1      -0.456  -0.969  -0.297  0.00  0.00    +0.165 C 
ENDROOT
BRANCH   8  11
ATOM     11  C   LIG A   1       0.497   1.655  -1.408  0.00  0.00    -0.037 A 
ATOM     12  C   LIG A   1       1.632   2.498  -1.540  0.00  0.00    +0.008 A 
ATOM     13  C   LIG A   1       2.100   2.912  -2.798  0.00  0.00    +0.050 A 
ATOM     14  C   LIG A   1       1.417   2.488  -3.913  0.00  0.00    +0.166 A 
ATOM     15  O   LIG A   1       1.732   2.780  -5.203  0.00  0.00    -0.453 OA
ATOM     16  C   LIG A   1       0.685   2.075  -5.904  0.00  0.00    +0.466 C 
ATOM     17  O   LIG A   1      -0.239   1.402  -5.022  0.00  0.00    -0.453 OA
ATOM     18  C   LIG A   1       0.297   1.705  -3.808  0.00  0.00    +0.167 A 
ATOM     19  C   LIG A   1      -0.194   1.291  -2.584  0.00  0.00    +0.053 A 
ENDBRANCH   8  11
BRANCH   3  20
ATOM     20  O   LIG A   1      -2.957  -1.724   2.771  0.00  0.00    -0.492 OA
ATOM     21  C   LIG A   1      -2.564  -2.002   4.104  0.00  0.00    +0.277 C 
ENDBRANCH   3  20
BRANCH  10  22
ATOM     22  O   LIG A   1      -1.199  -2.136  -0.656  0.00  0.00    -0.388 OA
ATOM     23  H   LIG A   1      -0.656  -2.683  -1.250  0.00  0.00    +0.210 HD
ENDBRANCH  10  22
BRANCH   9  24
ATOM     24  O   LIG A   1      -1.622   1.097   1.415  0.00  0.00    -0.365 OA
ATOM     25  C   LIG A   1      -2.200   2.406   1.406  0.00  0.00    +0.195 C 
ENDBRANCH   9  24
BRANCH   5  26
ATOM     26  C   LIG A   1       1.539  -2.123   0.986  0.00  0.00    +0.040 C 
BRANCH  26  27
ATOM     27  C   LIG A   1       1.182  -3.575   0.769  0.00  0.00    -0.034 C 
ATOM     28  C   LIG A   1       2.070  -4.578   0.691  0.00  0.00    +0.004 C 
ENDBRANCH  26  27
ENDBRANCH   5  26
TORSDOF 6
