REMARK  Name = NuBBE_2326
REMARK  8 active torsions:
REMARK  status: ('A' for Active; 'I' for Inactive)
REMARK    1  A    between atoms: C_1  and  C_2
REMARK    2  A    between atoms: C_4  and  C_5
REMARK    3  A    between atoms: C_5  and  O_6
REMARK    4  A    between atoms: C_11  and  C_31
REMARK    5  A    between atoms: C_14  and  C_30
REMARK    6  A    between atoms: C_15  and  C_29
REMARK    7  A    between atoms: C_18  and  C_19
REMARK    8  A    between atoms: C_22  and  C_24
REMARK                            x       y       z     vdW  Elec       q    Type
REMARK                         _______ _______ _______ _____ _____    ______ ____
ROOT
ATOM      1  C   LIG A   1      -0.379  -4.122  -4.278  0.00  0.00    +0.044 C 
ATOM      2  C   LIG A   1      -0.202  -3.362  -2.993  0.00  0.00    -0.046 C 
ATOM      3  C   LIG A   1      -0.830  -2.039  -2.810  0.00  0.00    -0.028 C 
ATOM      4  C   LIG A   1      -2.082  -1.741  -3.220  0.00  0.00    +0.096 C 
ATOM      5  C   LIG A   1       0.654  -3.799  -2.053  0.00  0.00    +0.003 C 
ATOM      6  C   LIG A   1       0.912  -3.039  -0.852  0.00  0.00    +0.001 C 
ATOM      7  C   LIG A   1       0.685  -1.706  -0.785  0.00  0.00    -0.053 C 
ATOM      8  C   LIG A   1       0.125  -1.021  -2.072  0.00  0.00    +0.015 C 
ATOM      9  C   LIG A   1      -0.553   0.315  -1.686  0.00  0.00    +0.016 C 
ATOM     10  C   LIG A   1      -1.322   0.180  -0.380  0.00  0.00    +0.009 C 
ATOM     11  C   LIG A   1      -0.376   0.069   0.874  0.00  0.00    -0.020 C 
ATOM     12  C   LIG A   1       0.897  -0.861   0.519  0.00  0.00    -0.004 C 
ATOM     13  C   LIG A   1       2.159   0.022   0.302  0.00  0.00    +0.012 C 
ATOM     14  C   LIG A   1       2.546   0.862   1.519  0.00  0.00    +0.008 C 
ATOM     15  C   LIG A   1       1.387   1.709   2.108  0.00  0.00    -0.022 C 
ATOM     16  C   LIG A   1       1.238   1.374   3.613  0.00  0.00    +0.012 C 
ATOM     17  C   LIG A   1       0.071   1.551   1.272  0.00  0.00    +0.003 C 
ATOM     18  C   LIG A   1      -1.053   2.431   1.881  0.00  0.00    +0.015 C 
ATOM     19  C   LIG A   1      -0.674   3.919   1.883  0.00  0.00    +0.052 C 
ATOM     20  C   LIG A   1      -1.742   4.742   2.599  0.00  0.00    +0.015 C 
ATOM     21  C   LIG A   1       1.806   3.205   2.033  0.00  0.00    +0.081 C 
ATOM     22  C   LIG A   1       0.702   4.131   2.502  0.00  0.00    +0.137 C 
ATOM     23  O   LIG A   1       0.952   5.075   3.252  0.00  0.00    -0.297 OA
ATOM     24  C   LIG A   1       1.237  -1.820   1.705  0.00  0.00    +0.016 C 
ATOM     25  C   LIG A   1      -1.284  -0.547   1.970  0.00  0.00    +0.012 C 
ATOM     26  C   LIG A   1       1.271  -0.669  -3.059  0.00  0.00    +0.021 C 
ENDROOT
BRANCH   4  27
ATOM     27  C   LIG A   1      -3.085  -2.646  -3.795  0.00  0.00    +0.330 C 
ATOM     28  O   LIG A   1      -3.783  -2.386  -4.758  0.00  0.00    -0.246 OA
BRANCH  27  29
ATOM     29  O   LIG A   1      -3.276  -3.746  -3.053  0.00  0.00    -0.477 OA
ATOM     30  H   LIG A   1      -4.004  -4.218  -3.505  0.00  0.00    +0.295 HD
ENDBRANCH  27  29
ENDBRANCH   4  27
TORSDOF 2
