@<TRIPOS>MOLECULE
NuBBE_325
 49 52 0 0 0
SMALL
GASTEIGER

@<TRIPOS>ATOM
      1 C           0.6150    0.0130    1.8081 C.3     1  LIG1       -0.0575
      2 C          -0.6988   -0.0787    1.0202 C.3     1  LIG1        0.0139
      3 H          -1.4690   -0.3831    1.7359 H       1  LIG1        0.0350
      4 C          -0.6579   -1.1019   -0.1369 C.3     1  LIG1        0.1288
      5 H          -1.6805   -1.4150   -0.3885 H       1  LIG1        0.0787
      6 C           0.1651   -2.3623    0.0495 C.ar    1  LIG1       -0.0034
      7 C          -0.4480   -3.5165    0.5900 C.ar    1  LIG1       -0.0514
      8 C           0.2704   -4.7051    0.7657 C.ar    1  LIG1       -0.0158
      9 C           1.5965   -4.7187    0.3941 C.ar    1  LIG1        0.1662
     10 C           2.2082   -3.6078   -0.1314 C.ar    1  LIG1        0.1666
     11 O           3.5156   -3.8304   -0.4342 O.3     1  LIG1       -0.4526
     12 C           3.6538   -5.2130   -0.0439 C.3     1  LIG1        0.2332
     13 O           2.4399   -5.7808    0.4912 O.3     1  LIG1       -0.4526
     14 C           1.5263   -2.4213   -0.3123 C.ar    1  LIG1       -0.0095
     15 O          -0.1974   -0.3906   -1.2897 O.2     1  LIG1       -0.4835
     16 C          -0.3219    0.9667   -1.0232 C.2     1  LIG1        0.1545
     17 C          -1.0679    1.2244    0.2722 C.3     1  LIG1        0.0631
     18 C          -2.6028    1.3297   -0.0150 C.3     1  LIG1       -0.0184
     19 C          -3.4506    1.6013    1.2044 C.2     1  LIG1       -0.0899
     20 C          -4.0391    0.6548    1.9460 C.2     1  LIG1       -0.1026
     21 C          -0.5972    2.5175    0.8957 C.2     1  LIG1       -0.0241
     22 C          -0.0409    3.5156    0.2015 C.2     1  LIG1        0.1674
     23 O           0.3307    4.6785    0.8637 O.2     1  LIG1       -0.4914
     24 C           0.3638    5.8594    0.0710 C.3     1  LIG1        0.0790
     25 C           0.2684    1.9086   -1.7790 C.2     1  LIG1        0.2090
     26 O           1.0226    1.7401   -2.9161 O.2     1  LIG1       -0.4885
     27 C           1.2047    0.4149   -3.3978 C.3     1  LIG1        0.0791
     28 C           0.1181    3.3100   -1.2919 C.2     1  LIG1        0.2645
     29 O           0.1385    4.2449   -2.0908 O.2     1  LIG1       -0.2800
     30 H           1.4588    0.3015    1.1740 H       1  LIG1        0.0234
     31 H           0.8504   -0.9435    2.2847 H       1  LIG1        0.0234
     32 H           0.5283    0.7453    2.6172 H       1  LIG1        0.0234
     33 H          -1.5004   -3.4953    0.8664 H       1  LIG1        0.0623
     34 H          -0.2006   -5.5907    1.1767 H       1  LIG1        0.0655
     35 H           4.4409   -5.2869    0.7158 H       1  LIG1        0.1166
     36 H           3.9580   -5.7980   -0.9199 H       1  LIG1        0.1166
     37 H           2.0444   -1.5628   -0.7270 H       1  LIG1        0.0659
     38 H          -2.9703    0.4240   -0.5138 H       1  LIG1        0.0320
     39 H          -2.7972    2.1406   -0.7329 H       1  LIG1        0.0320
     40 H          -3.5967    2.6469    1.4751 H       1  LIG1        0.0567
     41 H          -3.9294   -0.4010    1.7207 H       1  LIG1        0.0532
     42 H          -4.6351    0.9209    2.8142 H       1  LIG1        0.0532
     43 H          -0.7643    2.6586    1.9670 H       1  LIG1        0.0620
     44 H           0.6020    6.7047    0.7228 H       1  LIG1        0.0660
     45 H          -0.6186    6.0447   -0.3763 H       1  LIG1        0.0660
     46 H           1.1535    5.8109   -0.6847 H       1  LIG1        0.0660
     47 H           1.8236    0.4534   -4.2978 H       1  LIG1        0.0660
     48 H           0.2437   -0.0310   -3.6736 H       1  LIG1        0.0660
     49 H           1.7433   -0.1962   -2.6673 H       1  LIG1        0.0660
@<TRIPOS>BOND
     1     2     4    1
     2     6     7   ar
     3     7     8   ar
     4     8     9   ar
     5     9    10   ar
     6    10    11    1
     7    11    12    1
     8    12    13    1
     9     9    13    1
    10    10    14   ar
    11     6    14   ar
    12     4    15    1
    13    15    16    1
    14    16    17    1
    15    17    18    1
    16    18    19    1
    17    19    20    2
    18     2    17    1
    19    17    21    1
    20    21    22    2
    21    22    23    1
    22    23    24    1
    23    16    25    2
    24    25    26    1
    25    26    27    1
    26    25    28    1
    27    22    28    1
    28    28    29    2
    29     2     3    1
    30     2     1    1
    31     4     6    1
    32     4     5    1
    33     1    30    1
    34     1    31    1
    35     1    32    1
    36     7    33    1
    37     8    34    1
    38    12    35    1
    39    12    36    1
    40    14    37    1
    41    18    38    1
    42    18    39    1
    43    19    40    1
    44    20    41    1
    45    20    42    1
    46    21    43    1
    47    24    44    1
    48    24    45    1
    49    24    46    1
    50    27    47    1
    51    27    48    1
    52    27    49    1
