REMARK  Name = NuBBE_1884
REMARK  17 active torsions:
REMARK  status: ('A' for Active; 'I' for Inactive)
REMARK    1  A    between atoms: C_4  and  O_32
REMARK    2  A    between atoms: C_5  and  O_6
REMARK    3  A    between atoms: O_6  and  C_7
REMARK    4  A    between atoms: C_8  and  O_30
REMARK    5  A    between atoms: C_12  and  C_13
REMARK    6  A    between atoms: C_15  and  O_16
REMARK    7  A    between atoms: O_16  and  C_17
REMARK    8  A    between atoms: C_17  and  C_18
REMARK    9  A    between atoms: C_19  and  O_25
REMARK   10  A    between atoms: C_21  and  O_22
REMARK   11  A    between atoms: O_22  and  C_23
REMARK   12  A    between atoms: C_23  and  C_24
REMARK   13  A    between atoms: O_25  and  C_26
REMARK   14  A    between atoms: C_27  and  O_28
REMARK   15  A    between atoms: O_28  and  C_29
REMARK   16  A    between atoms: O_30  and  C_31
REMARK   17  A    between atoms: O_32  and  C_33
REMARK                            x       y       z     vdW  Elec       q    Type
REMARK                         _______ _______ _______ _____ _____    ______ ____
ROOT
ATOM      1  O   LIG A   1      -4.084  -0.837   0.022  0.00  0.00    -0.283 OA
ATOM      2  C   LIG A   1      -2.901  -0.808  -0.162  0.00  0.00    +0.238 A 
ATOM      3  C   LIG A   1      -2.048  -2.020  -0.074  0.00  0.00    +0.113 A 
ATOM      4  C   LIG A   1      -2.398  -3.283  -0.552  0.00  0.00    +0.180 A 
ATOM      5  C   LIG A   1      -1.526  -4.385  -0.302  0.00  0.00    +0.204 A 
ATOM      6  C   LIG A   1      -0.288  -4.166   0.343  0.00  0.00    +0.169 A 
ATOM      7  C   LIG A   1       0.078  -2.862   0.697  0.00  0.00    +0.096 A 
ATOM      8  C   LIG A   1      -0.797  -1.805   0.468  0.00  0.00    +0.147 A 
ATOM      9  O   LIG A   1      -0.348  -0.530   0.738  0.00  0.00    -0.451 OA
ATOM     10  C   LIG A   1      -0.927   0.486  -0.029  0.00  0.00    +0.184 A 
ATOM     11  C   LIG A   1      -2.161   0.429  -0.547  0.00  0.00    +0.211 A 
ENDROOT
BRANCH  10  12
ATOM     12  C   LIG A   1       0.014   1.602  -0.202  0.00  0.00    +0.066 A 
ATOM     13  C   LIG A   1       0.942   1.531  -1.259  0.00  0.00    +0.064 A 
ATOM     14  C   LIG A   1       2.003   2.445  -1.357  0.00  0.00    +0.163 A 
ATOM     15  C   LIG A   1       2.115   3.454  -0.389  0.00  0.00    +0.165 A 
ATOM     16  C   LIG A   1       1.144   3.549   0.613  0.00  0.00    +0.095 A 
ATOM     17  C   LIG A   1       0.111   2.625   0.745  0.00  0.00    +0.135 A 
BRANCH  15  18
ATOM     18  O   LIG A   1       3.093   4.408  -0.480  0.00  0.00    -0.491 OA
ATOM     19  C   LIG A   1       3.651   4.890   0.742  0.00  0.00    +0.277 C 
ENDBRANCH  15  18
BRANCH  14  20
ATOM     20  O   LIG A   1       2.836   2.215  -2.426  0.00  0.00    -0.489 OA
BRANCH  20  21
ATOM     21  C   LIG A   1       4.191   2.663  -2.332  0.00  0.00    +0.226 C 
ATOM     22  C   LIG A   1       4.953   1.895  -1.262  0.00  0.00    +0.048 C 
ENDBRANCH  20  21
ENDBRANCH  14  20
BRANCH  17  23
ATOM     23  O   LIG A   1      -0.836   2.714   1.738  0.00  0.00    -0.491 OA
BRANCH  23  24
ATOM     24  C   LIG A   1      -0.398   3.313   2.965  0.00  0.00    +0.226 C 
ATOM     25  C   LIG A   1      -1.570   3.447   3.919  0.00  0.00    +0.048 C 
ENDBRANCH  23  24
ENDBRANCH  17  23
ENDBRANCH  10  12
BRANCH   5  26
ATOM     26  O   LIG A   1      -1.928  -5.593  -0.830  0.00  0.00    -0.488 OA
ATOM     27  C   LIG A   1      -1.621  -6.761  -0.076  0.00  0.00    +0.277 C 
ENDBRANCH   5  26
BRANCH  11  28
ATOM     28  O   LIG A   1      -2.722   1.425  -1.337  0.00  0.00    -0.488 OA
ATOM     29  C   LIG A   1      -3.651   0.989  -2.329  0.00  0.00    +0.277 C 
ENDBRANCH  11  28
BRANCH   6  30
ATOM     30  O   LIG A   1       0.582  -5.217   0.490  0.00  0.00    -0.491 OA
ATOM     31  C   LIG A   1       1.483  -5.144   1.593  0.00  0.00    +0.277 C 
ENDBRANCH   6  30
BRANCH   4  32
ATOM     32  O   LIG A   1      -3.530  -3.556  -1.286  0.00  0.00    -0.490 OA
ATOM     33  C   LIG A   1      -3.907  -2.548  -2.223  0.00  0.00    +0.277 C 
ENDBRANCH   4  32
TORSDOF 10
