REMARK  Name = NuBBE_2212
REMARK  3 active torsions:
REMARK  status: ('A' for Active; 'I' for Inactive)
REMARK    1  A    between atoms: C_1  and  C_3
REMARK    2  A    between atoms: C_9  and  C_12
REMARK    3  A    between atoms: C_13  and  O_16
REMARK                            x       y       z     vdW  Elec       q    Type
REMARK                         _______ _______ _______ _____ _____    ______ ____
ROOT
ATOM      1  C   LIG A   1      -1.101  -1.408  -0.319  0.00  0.00    +0.018 A 
ATOM      2  C   LIG A   1      -0.414  -0.178  -0.368  0.00  0.00    -0.016 A 
ATOM      3  C   LIG A   1       0.996  -0.191  -0.414  0.00  0.00    +0.104 A 
ATOM      4  C   LIG A   1       1.759   1.078  -0.545  0.00  0.00    +0.343 C 
ATOM      5  O   LIG A   1       2.960   1.054  -0.791  0.00  0.00    -0.245 OA
ATOM      6  O   LIG A   1       1.077   2.239  -0.405  0.00  0.00    -0.458 OA
ATOM      7  C   LIG A   1      -0.237   2.251   0.179  0.00  0.00    +0.178 C 
ATOM      8  C   LIG A   1      -1.111   1.154  -0.424  0.00  0.00    +0.081 C 
ATOM      9  C   LIG A   1      -0.130   2.192   1.701  0.00  0.00    +0.052 C 
ATOM     10  C   LIG A   1       1.692  -1.410  -0.370  0.00  0.00    +0.131 A 
ATOM     11  C   LIG A   1       1.005  -2.614  -0.276  0.00  0.00    +0.047 A 
ATOM     12  C   LIG A   1      -0.388  -2.614  -0.255  0.00  0.00    +0.015 A 
ENDROOT
BRANCH   1  13
ATOM     13  C   LIG A   1      -2.582  -1.491  -0.356  0.00  0.00    +0.259 C 
ATOM     14  O   LIG A   1      -3.179  -2.545  -0.168  0.00  0.00    -0.296 OA
ENDBRANCH   1  13
BRANCH  10  15
ATOM     15  O   LIG A   1       3.057  -1.505  -0.421  0.00  0.00    -0.506 OA
ATOM     16  H   LIG A   1       3.434  -0.612  -0.588  0.00  0.00    +0.292 HD
ENDBRANCH  10  15
TORSDOF 2
