@<TRIPOS>MOLECULE
NuBBE_1926
 51 53 0 0 0
SMALL
GASTEIGER

@<TRIPOS>ATOM
      1 C          -0.7319    1.3196   -0.8961 C.3     1  LIG1       -0.0587
      2 C           0.3357    0.2053   -0.8108 C.3     1  LIG1       -0.0215
      3 C          -0.1418   -1.1847   -1.3983 C.3     1  LIG1       -0.0229
      4 C          -1.3922   -1.7070   -0.6677 C.3     1  LIG1        0.0140
      5 C          -1.1970   -1.7735    0.8312 C.2     1  LIG1        0.1595
      6 C          -0.4664   -0.6394    1.4678 C.2     1  LIG1       -0.0045
      7 C          -0.9156   -0.2043    2.6579 C.2     1  LIG1       -0.0676
      8 C          -0.3364    0.9789    3.4042 C.3     1  LIG1        0.0043
      9 C          -1.4954    1.7973    4.0111 C.3     1  LIG1       -0.0526
     10 C           0.5038    0.4574    4.5642 C.2     1  LIG1       -0.0815
     11 C           1.7472    0.8105    4.9198 C.2     1  LIG1       -0.1018
     12 C           0.4068    1.8905    2.3947 C.3     1  LIG1       -0.0401
     13 C           1.3580    1.1239    1.4699 C.3     1  LIG1       -0.0445
     14 C           0.7018   -0.0561    0.7094 C.3     1  LIG1       -0.0071
     15 O          -1.7121   -2.6617    1.5075 O.2     1  LIG1       -0.2924
     16 H           0.6643   -1.8861   -1.1228 H       1  LIG1        0.0316
     17 C          -0.2279   -1.3092   -2.9647 C.3     1  LIG1       -0.0311
     18 C          -0.2954   -2.8077   -3.3660 C.3     1  LIG1       -0.0595
     19 C          -1.4676   -0.6429   -3.5922 C.3     1  LIG1       -0.0595
     20 C           1.0591   -0.7385   -3.6055 C.3     1  LIG1       -0.0476
     21 C           1.4300    0.6483   -3.1042 C.3     1  LIG1       -0.0520
     22 C           1.5985    0.6653   -1.5885 C.3     1  LIG1       -0.0468
     23 H          -1.6461    1.0717   -0.3495 H       1  LIG1        0.0235
     24 H          -1.0199    1.5551   -1.9188 H       1  LIG1        0.0235
     25 H          -0.3491    2.2574   -0.4800 H       1  LIG1        0.0235
     26 H          -1.6221   -2.7259   -0.9952 H       1  LIG1        0.0348
     27 H          -2.2733   -1.0887   -0.8641 H       1  LIG1        0.0348
     28 H          -1.7496   -0.7217    3.1338 H       1  LIG1        0.0584
     29 H          -1.1206    2.6860    4.5333 H       1  LIG1        0.0241
     30 H          -2.0749    1.2103    4.7348 H       1  LIG1        0.0241
     31 H          -2.1941    2.1381    3.2372 H       1  LIG1        0.0241
     32 H           0.0118   -0.2897    5.1901 H       1  LIG1        0.0575
     33 H           2.3270    1.5529    4.3841 H       1  LIG1        0.0532
     34 H           2.2197    0.3515    5.7839 H       1  LIG1        0.0532
     35 H           0.9626    2.6792    2.9172 H       1  LIG1        0.0277
     36 H          -0.3261    2.4209    1.7733 H       1  LIG1        0.0277
     37 H           2.1790    0.7173    2.0743 H       1  LIG1        0.0272
     38 H           1.8352    1.8353    0.7916 H       1  LIG1        0.0272
     39 H           1.4743   -0.8415    0.6990 H       1  LIG1        0.0355
     40 H           0.5146   -3.3822   -2.9029 H       1  LIG1        0.0235
     41 H          -0.2019   -2.9284   -4.4520 H       1  LIG1        0.0235
     42 H          -1.2450   -3.2678   -3.0752 H       1  LIG1        0.0235
     43 H          -2.3970   -1.0020   -3.1397 H       1  LIG1        0.0235
     44 H          -1.5284   -0.8749   -4.6629 H       1  LIG1        0.0235
     45 H          -1.4540    0.4437   -3.5231 H       1  LIG1        0.0235
     46 H           0.9598   -0.7097   -4.6982 H       1  LIG1        0.0271
     47 H           1.9011   -1.4125   -3.3956 H       1  LIG1        0.0271
     48 H           0.6845    1.3851   -3.4199 H       1  LIG1        0.0266
     49 H           2.3750    0.9537   -3.5696 H       1  LIG1        0.0266
     50 H           1.8859    1.6826   -1.3009 H       1  LIG1        0.0271
     51 H           2.4458    0.0182   -1.3258 H       1  LIG1        0.0271
@<TRIPOS>BOND
     1     2     3    1
     2     3     4    1
     3     4     5    1
     4     5     6    1
     5     6     7    2
     6     7     8    1
     7    10    11    2
     8     8    12    1
     9    12    13    1
    10    13    14    1
    11     6    14    1
    12     2    14    1
    13     3    17    1
    14    17    20    1
    15    20    21    1
    16    21    22    1
    17     2    22    1
    18     1     2    1
    19     3    16    1
    20     5    15    2
    21     8     9    1
    22     8    10    1
    23    17    18    1
    24    17    19    1
    25     1    23    1
    26     1    24    1
    27     1    25    1
    28     4    26    1
    29     4    27    1
    30     7    28    1
    31     9    29    1
    32     9    30    1
    33     9    31    1
    34    10    32    1
    35    11    33    1
    36    11    34    1
    37    12    35    1
    38    12    36    1
    39    13    37    1
    40    13    38    1
    41    14    39    1
    42    18    40    1
    43    18    41    1
    44    18    42    1
    45    19    43    1
    46    19    44    1
    47    19    45    1
    48    20    46    1
    49    20    47    1
    50    21    48    1
    51    21    49    1
    52    22    50    1
    53    22    51    1
