@<TRIPOS>MOLECULE
NuBBE_1433
 36 39 0 0 0
SMALL
GASTEIGER

@<TRIPOS>ATOM
      1 C          -3.7591    1.5837   -0.4130 C.3     1  LIG1       -0.0215
      2 C          -2.4637    1.9246   -1.1584 C.3     1  LIG1        0.1236
      3 O          -1.3769    1.5150   -0.3116 O.3     1  LIG1       -0.4795
      4 C          -2.3376    3.4458   -1.3042 C.3     1  LIG1       -0.0215
      5 C          -2.4932    1.2962   -2.5303 C.2     1  LIG1       -0.0409
      6 C          -1.6465    0.3381   -2.9135 C.2     1  LIG1       -0.0513
      7 C          -0.6552   -0.1213   -1.9538 C.ar    1  LIG1        0.0187
      8 C          -0.5562    0.4761   -0.6890 C.ar    1  LIG1        0.1549
      9 C           0.3991    0.0647    0.2569 C.ar    1  LIG1        0.1205
     10 N           0.4537    0.6841    1.4516 N.ar    1  LIG1       -0.2081
     11 C           1.4082    0.2571    2.2864 C.ar    1  LIG1        0.2312
     12 O           1.6168    0.8025    3.5187 O.2     1  LIG1       -0.4449
     13 C           2.6647    0.1442    4.0779 C.ar    1  LIG1        0.0952
     14 C           3.1354   -0.8274    3.2261 C.ar    1  LIG1       -0.0109
     15 C           2.3185   -0.7658    2.0665 C.ar    1  LIG1        0.0820
     16 C           2.2215   -1.4359    0.8405 C.ar    1  LIG1        0.1417
     17 O           3.0977   -2.4519    0.5139 O.3     1  LIG1       -0.4937
     18 C           2.6925   -3.6689    1.1434 C.3     1  LIG1        0.0788
     19 C           1.2671   -0.9969   -0.1030 C.ar    1  LIG1        0.0465
     20 C           1.1624   -1.5895   -1.3776 C.ar    1  LIG1       -0.0482
     21 C           0.2109   -1.1558   -2.2952 C.ar    1  LIG1       -0.0503
     22 H          -4.6473    1.9273   -0.9547 H       1  LIG1        0.0271
     23 H          -3.7667    2.0385    0.5846 H       1  LIG1        0.0271
     24 H          -3.8481    0.5016   -0.2581 H       1  LIG1        0.0271
     25 H          -3.1635    3.8737   -1.8832 H       1  LIG1        0.0271
     26 H          -1.3958    3.7137   -1.7984 H       1  LIG1        0.0271
     27 H          -2.3183    3.9321   -0.3217 H       1  LIG1        0.0271
     28 H          -3.2510    1.6448   -3.2270 H       1  LIG1        0.0611
     29 H          -1.6898   -0.1010   -3.9034 H       1  LIG1        0.0623
     30 H           2.9510    0.4804    5.0649 H       1  LIG1        0.1030
     31 H           3.9642   -1.4950    3.4123 H       1  LIG1        0.0657
     32 H           2.8538   -3.6266    2.2251 H       1  LIG1        0.0660
     33 H           3.3135   -4.4749    0.7413 H       1  LIG1        0.0660
     34 H           1.6455   -3.9063    0.9229 H       1  LIG1        0.0660
     35 H           1.8346   -2.3961   -1.6652 H       1  LIG1        0.0625
     36 H           0.1577   -1.6307   -3.2718 H       1  LIG1        0.0625
@<TRIPOS>BOND
     1     1     2    1
     2     2     3    1
     3     2     4    1
     4     2     5    1
     5     5     6    2
     6     6     7    1
     7     7     8   ar
     8     3     8    1
     9     8     9   ar
    10     9    10   ar
    11    10    11   ar
    12    11    12   ar
    13    12    13   ar
    14    13    14   ar
    15    11    15   ar
    16    14    15   ar
    17    15    16   ar
    18    16    17    1
    19    17    18    1
    20     9    19   ar
    21    16    19   ar
    22    19    20   ar
    23    20    21   ar
    24     7    21   ar
    25     1    22    1
    26     1    23    1
    27     1    24    1
    28     4    25    1
    29     4    26    1
    30     4    27    1
    31     5    28    1
    32     6    29    1
    33    13    30    1
    34    14    31    1
    35    18    32    1
    36    18    33    1
    37    18    34    1
    38    20    35    1
    39    21    36    1
