REMARK  Name = NuBBE_31
REMARK  9 active torsions:
REMARK  status: ('A' for Active; 'I' for Inactive)
REMARK    1  A    between atoms: C_1  and  O_2
REMARK    2  A    between atoms: O_2  and  C_3
REMARK    3  A    between atoms: C_4  and  O_5
REMARK    4  A    between atoms: O_5  and  C_6
REMARK    5  A    between atoms: C_7  and  O_8
REMARK    6  A    between atoms: O_8  and  C_9
REMARK    7  A    between atoms: C_11  and  C_12
REMARK    8  A    between atoms: C_13  and  C_14
REMARK    9  A    between atoms: C_14  and  O_15
REMARK                            x       y       z     vdW  Elec       q    Type
REMARK                         _______ _______ _______ _____ _____    ______ ____
ROOT
ATOM      1  C   LIG A   1      -0.511   0.658   1.393  0.00  0.00    +0.166 A 
ATOM      2  C   LIG A   1      -0.057   1.724   0.589  0.00  0.00    +0.203 A 
ATOM      3  C   LIG A   1       0.652   1.444  -0.595  0.00  0.00    +0.166 A 
ATOM      4  C   LIG A   1       0.843   0.110  -0.986  0.00  0.00    +0.057 A 
ATOM      5  C   LIG A   1       0.330  -0.950  -0.228  0.00  0.00    -0.018 A 
ATOM      6  C   LIG A   1      -0.322  -0.664   0.977  0.00  0.00    +0.057 A 
ENDROOT
BRANCH   1   8
ATOM      7  C   LIG A   1      -1.078   0.078   3.626  0.00  0.00    +0.277 C 
ATOM      8  O   LIG A   1      -1.201   0.987   2.537  0.00  0.00    -0.491 OA
ENDBRANCH   1   8
BRANCH   2   9
ATOM      9  O   LIG A   1      -0.311   2.982   1.085  0.00  0.00    -0.488 OA
ATOM     10  C   LIG A   1      -0.522   4.014   0.129  0.00  0.00    +0.277 C 
ENDBRANCH   2   9
BRANCH   3  11
ATOM     11  O   LIG A   1       1.214   2.489  -1.284  0.00  0.00    -0.491 OA
ATOM     12  C   LIG A   1       1.331   2.326  -2.693  0.00  0.00    +0.277 C 
ENDBRANCH   3  11
BRANCH   5  13
ATOM     13  C   LIG A   1       0.534  -2.327  -0.706  0.00  0.00    +0.015 C 
ATOM     14  C   LIG A   1      -0.316  -3.339  -0.467  0.00  0.00    +0.092 C 
BRANCH  14  15
ATOM     15  C   LIG A   1      -0.055  -4.668  -1.028  0.00  0.00    +0.330 C 
ATOM     16  O   LIG A   1       0.696  -4.947  -1.946  0.00  0.00    -0.246 OA
BRANCH  15  17
ATOM     17  O   LIG A   1      -0.768  -5.598  -0.378  0.00  0.00    -0.477 OA
ATOM     18  H   LIG A   1      -0.523  -6.438  -0.821  0.00  0.00    +0.295 HD
ENDBRANCH  15  17
ENDBRANCH  14  15
ENDBRANCH   5  13
TORSDOF 6
