@<TRIPOS>MOLECULE
NuBBE_475
 42 43 0 0 0
SMALL
GASTEIGER

@<TRIPOS>ATOM
      1 O           0.5182    3.4581   -2.3009 O.2     1  LIG1       -0.2452
      2 C          -0.0484    2.6753   -1.5667 C.2     1  LIG1        0.3381
      3 C           0.5901    1.5396   -0.8346 C.2     1  LIG1        0.0745
      4 C           1.9300    1.5328   -0.7909 C.2     1  LIG1        0.0992
      5 O           2.6977    0.6200   -0.1126 O.2     1  LIG1       -0.4603
      6 C           2.0062   -0.1380    0.8927 C.3     1  LIG1        0.2490
      7 H           2.6369   -0.9913    1.1708 H       1  LIG1        0.1209
      8 C           0.6480   -0.6540    0.3937 C.3     1  LIG1        0.0465
      9 C          -0.2385    0.4961   -0.1245 C.3     1  LIG1        0.0071
     10 C          -1.2809   -0.2096   -1.0273 C.3     1  LIG1       -0.0078
     11 C          -0.8068   -1.6577   -1.2269 C.3     1  LIG1        0.1067
     12 H          -0.9100   -1.9894   -2.2677 H       1  LIG1        0.0737
     13 C           0.6779   -1.5984   -0.8243 C.3     1  LIG1        0.0035
     14 H           1.2274   -1.1231   -1.6482 H       1  LIG1        0.0339
     15 C           1.3244   -2.9474   -0.5713 C.3     1  LIG1       -0.0585
     16 O          -1.5377   -2.5575   -0.3657 O.3     1  LIG1       -0.4612
     17 C          -2.8342   -2.7851   -0.7118 C.2     1  LIG1        0.3042
     18 C          -3.5046   -3.7081    0.2699 C.3     1  LIG1        0.0332
     19 O          -3.4147   -2.2932   -1.6764 O.2     1  LIG1       -0.2512
     20 H          -0.7461    0.9860    0.7170 H       1  LIG1        0.0358
     21 H           0.1247   -1.1363    1.2321 H       1  LIG1        0.0383
     22 O           1.7587    0.6708    2.0605 O.3     1  LIG1       -0.4247
     23 C           2.8747    1.0882    2.7203 C.2     1  LIG1        0.3068
     24 C           2.5255    2.2629    3.5878 C.3     1  LIG1        0.0333
     25 O           3.9987    0.6401    2.5831 O.2     1  LIG1       -0.2511
     26 O          -1.3535    2.7287   -1.1703 O.3     1  LIG1       -0.4646
     27 C          -2.0125    3.9571   -1.4532 C.3     1  LIG1        0.0820
     28 H           2.5693    2.2507   -1.2959 H       1  LIG1        0.1030
     29 H          -1.3709    0.2724   -2.0065 H       1  LIG1        0.0307
     30 H          -2.2634   -0.1651   -0.5447 H       1  LIG1        0.0307
     31 H           0.9400   -3.4293    0.3315 H       1  LIG1        0.0234
     32 H           2.4082   -2.8336   -0.4615 H       1  LIG1        0.0234
     33 H           1.1505   -3.6144   -1.4224 H       1  LIG1        0.0234
     34 H          -3.8979   -4.5848   -0.2556 H       1  LIG1        0.0342
     35 H          -4.3218   -3.1752    0.7669 H       1  LIG1        0.0342
     36 H          -2.8019   -4.0510    1.0332 H       1  LIG1        0.0342
     37 H           1.6495    2.0380    4.2012 H       1  LIG1        0.0342
     38 H           2.3289    3.1283    2.9488 H       1  LIG1        0.0342
     39 H           3.3617    2.4956    4.2527 H       1  LIG1        0.0342
     40 H          -2.8858    3.9994   -0.7960 H       1  LIG1        0.0661
     41 H          -2.3491    3.9948   -2.4925 H       1  LIG1        0.0661
     42 H          -1.3683    4.8078   -1.2140 H       1  LIG1        0.0661
@<TRIPOS>BOND
     1     1     2    2
     2     3     4    2
     3     4     5    1
     4     5     6    1
     5     6     8    1
     6     8     9    1
     7     9    10    1
     8    10    11    1
     9    11    13    1
    10    16    17    1
    11    17    18    1
    12    17    19    2
    13     3     9    1
    14    13     8    1
    15    22    23    1
    16    23    24    1
    17    23    25    2
    18     2    26    1
    19    26    27    1
    20     2     3    1
    21     6     7    1
    22     6    22    1
    23     8    21    1
    24     9    20    1
    25    11    16    1
    26    11    12    1
    27    13    15    1
    28    13    14    1
    29     4    28    1
    30    10    29    1
    31    10    30    1
    32    15    31    1
    33    15    32    1
    34    15    33    1
    35    18    34    1
    36    18    35    1
    37    18    36    1
    38    24    37    1
    39    24    38    1
    40    24    39    1
    41    27    40    1
    42    27    41    1
    43    27    42    1
