REMARK  Name = NuBBE_1441
REMARK  9 active torsions:
REMARK  status: ('A' for Active; 'I' for Inactive)
REMARK    1  A    between atoms: C_6  and  C_7
REMARK    2  A    between atoms: C_8  and  O_17
REMARK    3  A    between atoms: C_9  and  C_16
REMARK    4  A    between atoms: C_12  and  O_14
REMARK    5  A    between atoms: C_19  and  C_20
REMARK    6  A    between atoms: C_19  and  O_41
REMARK    7  A    between atoms: C_23  and  C_30
REMARK    8  A    between atoms: C_24  and  O_26
REMARK    9  A    between atoms: C_34  and  C_36
REMARK                            x       y       z     vdW  Elec       q    Type
REMARK                         _______ _______ _______ _____ _____    ______ ____
ROOT
ATOM      1  O   LIG A   1       4.130  -0.878   4.014  0.00  0.00    -0.293 OA
ATOM      2  C   LIG A   1       3.578  -0.952   2.914  0.00  0.00    +0.182 C 
ATOM      3  C   LIG A   1       3.431   0.295   2.052  0.00  0.00    +0.111 C 
ATOM      4  C   LIG A   1       2.008   0.309   1.544  0.00  0.00    +0.135 C 
ATOM      5  C   LIG A   1       1.647  -0.923   0.696  0.00  0.00    +0.038 C 
ATOM      6  C   LIG A   1       2.616  -0.990  -0.518  0.00  0.00    +0.017 C 
ATOM      7  C   LIG A   1       1.758  -2.216   1.562  0.00  0.00    +0.156 C 
ATOM      8  C   LIG A   1       3.101  -2.319   2.338  0.00  0.00    +0.200 C 
ATOM      9  O   LIG A   1       2.815  -3.240   3.409  0.00  0.00    -0.446 OA
ATOM     10  C   LIG A   1       1.496  -3.215   3.719  0.00  0.00    +0.340 C 
ATOM     11  C   LIG A   1       0.722  -2.416   2.698  0.00  0.00    +0.259 C 
ATOM     12  O   LIG A   1       1.003  -3.752   4.700  0.00  0.00    -0.248 OA
ATOM     13  C   LIG A   1       4.280  -2.965   1.604  0.00  0.00    +0.067 C 
ATOM     14  C   LIG A   1       0.208  -0.512   0.239  0.00  0.00    +0.066 C 
ATOM     15  C   LIG A   1      -0.451  -1.013  -1.082  0.00  0.00    +0.101 C 
ATOM     16  C   LIG A   1       0.325  -0.887  -2.406  0.00  0.00    +0.044 C 
ATOM     17  C   LIG A   1      -1.779  -0.271  -1.236  0.00  0.00    +0.133 C 
ATOM     18  O   LIG A   1      -2.981  -1.013  -0.957  0.00  0.00    -0.361 OA
ATOM     19  C   LIG A   1      -1.879   1.242  -0.956  0.00  0.00    +0.037 C 
ATOM     20  C   LIG A   1      -0.455   1.825  -0.707  0.00  0.00    +0.153 C 
ATOM     21  C   LIG A   1       0.216   1.026   0.411  0.00  0.00    +0.154 C 
ATOM     22  O   LIG A   1       1.596   1.395   0.695  0.00  0.00    -0.369 OA
ATOM     23  C   LIG A   1      -2.801   1.487   0.269  0.00  0.00    +0.017 C 
ATOM     24  C   LIG A   1      -2.764  -0.627  -2.314  0.00  0.00    +0.155 C 
ATOM     25  C   LIG A   1      -3.453   0.620  -2.767  0.00  0.00    +0.043 C 
ATOM     26  C   LIG A   1      -2.531   1.774  -2.284  0.00  0.00    +0.036 C 
ENDROOT
BRANCH  26  27
ATOM     27  C   LIG A   1      -3.219   3.107  -2.209  0.00  0.00    -0.006 A 
ATOM     28  C   LIG A   1      -4.547   3.381  -1.935  0.00  0.00    +0.198 A 
ATOM     29  O   LIG A   1      -4.787   4.715  -1.950  0.00  0.00    -0.471 OA
ATOM     30  C   LIG A   1      -3.608   5.322  -2.228  0.00  0.00    +0.195 A 
ATOM     31  C   LIG A   1      -2.618   4.386  -2.402  0.00  0.00    +0.045 A 
ENDBRANCH  26  27
BRANCH  11  32
ATOM     32  O   LIG A   1       0.254  -1.233   3.315  0.00  0.00    -0.378 OA
ATOM     33  H   LIG A   1      -0.317  -1.508   4.062  0.00  0.00    +0.211 HD
ENDBRANCH  11  32
BRANCH   7  34
ATOM     34  O   LIG A   1       1.585  -3.324   0.640  0.00  0.00    -0.380 OA
ATOM     35  H   LIG A   1       1.759  -4.167   1.104  0.00  0.00    +0.210 HD
ENDBRANCH   7  34
BRANCH  20  36
ATOM     36  O   LIG A   1      -0.498   3.200  -0.325  0.00  0.00    -0.389 OA
ATOM     37  H   LIG A   1       0.381   3.415   0.043  0.00  0.00    +0.210 HD
ENDBRANCH  20  36
BRANCH  15  38
ATOM     38  O   LIG A   1      -0.697  -2.418  -0.914  0.00  0.00    -0.386 OA
ATOM     39  H   LIG A   1       0.145  -2.851  -0.672  0.00  0.00    +0.210 HD
ENDBRANCH  15  38
TORSDOF 5
