@<TRIPOS>MOLECULE
NuBBE_1549
 76 79 0 0 0
SMALL
GASTEIGER

@<TRIPOS>ATOM
      1 O           1.2226   -6.2746    2.1859 O.2     1  LIG1       -0.2921
      2 C           1.1000   -5.1557    1.6878 C.2     1  LIG1        0.1617
      3 C           0.9568   -3.9989    2.6104 C.2     1  LIG1       -0.0221
      4 C           0.9903   -2.7280    2.1833 C.2     1  LIG1       -0.0742
      5 C           1.1464   -2.3127    0.7192 C.3     1  LIG1       -0.0064
      6 C           2.6608   -2.1139    0.5037 C.3     1  LIG1       -0.0555
      7 C           0.5124   -3.4931   -0.1108 C.3     1  LIG1       -0.0164
      8 C           0.3143   -3.1285   -1.5972 C.3     1  LIG1       -0.0106
      9 C          -0.5992   -1.8924   -1.7377 C.3     1  LIG1        0.1096
     10 H          -0.8216   -1.6952   -2.7932 H       1  LIG1        0.0740
     11 O          -1.8463   -2.1667   -1.0354 O.3     1  LIG1       -0.4609
     12 C          -2.7722   -2.9582   -1.6219 C.2     1  LIG1        0.3042
     13 C          -3.8684   -3.2758   -0.6593 C.3     1  LIG1        0.0332
     14 O          -2.6918   -3.4229   -2.7503 O.2     1  LIG1       -0.2512
     15 C           0.0416   -0.6267   -1.0682 C.3     1  LIG1        0.0186
     16 C           1.3331   -0.2510   -1.8408 C.3     1  LIG1       -0.0552
     17 C           0.3151   -0.9851    0.4418 C.3     1  LIG1       -0.0225
     18 C           0.8018    0.2773    1.1786 C.3     1  LIG1       -0.0483
     19 C          -0.3636    1.2521    1.3022 C.3     1  LIG1       -0.0464
     20 C          -0.9945    1.6742   -0.0409 C.3     1  LIG1       -0.0183
     21 C          -2.4775    2.0360    0.2472 C.3     1  LIG1       -0.0586
     22 C          -0.9983    0.5610   -1.1434 C.3     1  LIG1        0.0322
     23 C          -0.8938    1.3884   -2.4182 C.2     1  LIG1        0.1379
     24 C          -0.5939    2.8409   -2.1654 C.3     1  LIG1        0.0099
     25 C          -0.2227    2.8796   -0.6776 C.3     1  LIG1       -0.0215
     26 H           0.8555    2.6849   -0.5979 H       1  LIG1        0.0314
     27 C          -0.5053    4.2631   -0.0360 C.3     1  LIG1        0.0130
     28 C           0.3443    5.3976   -0.5993 C.2     1  LIG1        0.1708
     29 C           0.1028    6.8080   -0.0585 C.3     1  LIG1        0.1501
     30 O          -0.1828    6.8660    1.3403 O.3     1  LIG1       -0.4571
     31 C           0.6967    7.5771    2.0975 C.2     1  LIG1        0.3043
     32 C           0.2146    7.6909    3.5112 C.3     1  LIG1        0.0332
     33 O           1.7532    8.0530    1.7037 O.2     1  LIG1       -0.2512
     34 O           1.1334    5.2119   -1.5279 O.2     1  LIG1       -0.2938
     35 O          -1.0662    0.9275   -3.5410 O.2     1  LIG1       -0.2971
     36 C           1.1091   -4.9151    0.1683 C.3     1  LIG1        0.0311
     37 C           0.2024   -6.0050   -0.4564 C.3     1  LIG1       -0.0525
     38 C           2.5303   -5.1496   -0.3609 C.3     1  LIG1       -0.0525
     39 H           0.8510   -4.2475    3.6607 H       1  LIG1        0.0649
     40 H           0.9186   -1.9502    2.9388 H       1  LIG1        0.0579
     41 H           3.2608   -2.7521    1.1637 H       1  LIG1        0.0238
     42 H           2.9846   -1.0934    0.7285 H       1  LIG1        0.0238
     43 H           2.9744   -2.3465   -0.5156 H       1  LIG1        0.0238
     44 H          -0.5134   -3.5853    0.2843 H       1  LIG1        0.0320
     45 H          -0.1734   -3.9580   -2.1169 H       1  LIG1        0.0304
     46 H           1.2704   -2.9757   -2.1047 H       1  LIG1        0.0304
     47 H          -3.5487   -4.0913   -0.0017 H       1  LIG1        0.0342
     48 H          -4.7711   -3.5710   -1.1967 H       1  LIG1        0.0342
     49 H          -4.1130   -2.3931   -0.0543 H       1  LIG1        0.0342
     50 H           2.1184   -0.9977   -1.7600 H       1  LIG1        0.0237
     51 H           1.7596    0.6968   -1.5041 H       1  LIG1        0.0237
     52 H           1.1448   -0.1614   -2.9164 H       1  LIG1        0.0237
     53 H          -0.6722   -1.2053    0.8799 H       1  LIG1        0.0316
     54 H           1.6443    0.7559    0.6711 H       1  LIG1        0.0269
     55 H           1.1522    0.0443    2.1880 H       1  LIG1        0.0269
     56 H          -0.0403    2.1303    1.8717 H       1  LIG1        0.0271
     57 H          -1.1253    0.7678    1.9292 H       1  LIG1        0.0271
     58 H          -3.0192    1.1559    0.6183 H       1  LIG1        0.0235
     59 H          -2.9993    2.3764   -0.6537 H       1  LIG1        0.0235
     60 H          -2.5687    2.8114    1.0133 H       1  LIG1        0.0235
     61 H          -2.0093    0.1381   -1.1719 H       1  LIG1        0.0389
     62 H          -1.4854    3.4324   -2.3912 H       1  LIG1        0.0345
     63 H           0.2415    3.1581   -2.7960 H       1  LIG1        0.0345
     64 H          -1.5540    4.5467   -0.1775 H       1  LIG1        0.0346
     65 H          -0.3002    4.2161    1.0383 H       1  LIG1        0.0346
     66 H          -0.7641    7.2193   -0.5869 H       1  LIG1        0.0778
     67 H           0.9686    7.4195   -0.3360 H       1  LIG1        0.0778
     68 H           0.7198    8.5336    3.9954 H       1  LIG1        0.0342
     69 H           0.4402    6.7723    4.0564 H       1  LIG1        0.0342
     70 H          -0.8591    7.8958    3.5310 H       1  LIG1        0.0342
     71 H          -0.8362   -5.8973   -0.1243 H       1  LIG1        0.0239
     72 H           0.5263   -7.0120   -0.1654 H       1  LIG1        0.0239
     73 H           0.2223   -5.9773   -1.5503 H       1  LIG1        0.0239
     74 H           3.2958   -4.6838    0.2625 H       1  LIG1        0.0239
     75 H           2.6461   -4.7926   -1.3886 H       1  LIG1        0.0239
     76 H           2.7740   -6.2198   -0.3619 H       1  LIG1        0.0239
@<TRIPOS>BOND
     1     2     3    1
     2     3     4    2
     3     4     5    1
     4     5     7    1
     5     7     8    1
     6     8     9    1
     7    11    12    1
     8    12    13    1
     9    12    14    2
    10     9    15    1
    11    15    17    1
    12     5    17    1
    13    17    18    1
    14    18    19    1
    15    19    20    1
    16    20    22    1
    17    15    22    1
    18    22    23    1
    19    23    24    1
    20    24    25    1
    21    20    25    1
    22    27    28    1
    23    28    29    1
    24    29    30    1
    25    30    31    1
    26    31    32    1
    27    31    33    2
    28    28    34    2
    29     7    36    1
    30     2    36    1
    31     1     2    2
    32     5     6    1
    33     9    10    1
    34     9    11    1
    35    15    16    1
    36    20    21    1
    37    23    35    2
    38    25    26    1
    39    25    27    1
    40    36    37    1
    41    36    38    1
    42     3    39    1
    43     4    40    1
    44     6    41    1
    45     6    42    1
    46     6    43    1
    47     7    44    1
    48     8    45    1
    49     8    46    1
    50    13    47    1
    51    13    48    1
    52    13    49    1
    53    16    50    1
    54    16    51    1
    55    16    52    1
    56    17    53    1
    57    18    54    1
    58    18    55    1
    59    19    56    1
    60    19    57    1
    61    21    58    1
    62    21    59    1
    63    21    60    1
    64    22    61    1
    65    24    62    1
    66    24    63    1
    67    27    64    1
    68    27    65    1
    69    29    66    1
    70    29    67    1
    71    32    68    1
    72    32    69    1
    73    32    70    1
    74    37    71    1
    75    37    72    1
    76    37    73    1
    77    38    74    1
    78    38    75    1
    79    38    76    1
