@<TRIPOS>MOLECULE
NuBBE_1841
 54 56 0 0 0
SMALL
GASTEIGER

@<TRIPOS>ATOM
      1 O          -2.0906    0.7063   -2.2949 O.3     1  LIG1       -0.3644
      2 C          -3.3061   -0.0213   -2.4392 C.3     1  LIG1        0.0382
      3 C          -1.6768    0.9982   -0.9471 C.3     1  LIG1        0.1507
      4 C          -0.3794    1.7635   -1.0525 C.2     1  LIG1        0.1382
      5 C          -0.2331    3.0752   -0.8538 C.2     1  LIG1        0.0261
      6 C          -1.3893    3.8904   -0.4286 C.2     1  LIG1        0.1855
      7 O          -1.2735    5.0982   -0.3092 O.2     1  LIG1       -0.2875
      8 C          -2.6454    3.1593   -0.0651 C.2     1  LIG1        0.0023
      9 C          -2.7353    1.8288   -0.2672 C.2     1  LIG1       -0.0378
     10 C          -3.7547    3.9789    0.5377 C.3     1  LIG1       -0.0063
     11 C          -4.7166    4.5656   -0.4662 C.2     1  LIG1       -0.0867
     12 C          -4.4406    4.9162   -1.7307 C.2     1  LIG1       -0.1023
     13 O           0.7342    0.9502   -1.1732 O.2     1  LIG1       -0.4847
     14 C           0.2565   -0.3868   -0.9155 C.3     1  LIG1        0.1310
     15 H           0.1643   -0.8498   -1.9079 H       1  LIG1        0.0788
     16 C          -1.1506   -0.2759   -0.2700 C.3     1  LIG1        0.0372
     17 H          -1.7073   -1.1742   -0.5565 H       1  LIG1        0.0373
     18 C          -1.1979   -0.2150    1.2602 C.3     1  LIG1       -0.0553
     19 C           1.2931   -1.1673   -0.1361 C.ar    1  LIG1        0.0001
     20 C           2.1573   -0.5233    0.7531 C.ar    1  LIG1       -0.0094
     21 C           3.0809   -1.2414    1.5199 C.ar    1  LIG1        0.1655
     22 O           3.9312   -0.6174    2.4066 O.3     1  LIG1       -0.4913
     23 C           4.2447    0.7402    2.0961 C.3     1  LIG1        0.0790
     24 C           3.1514   -2.6475    1.4117 C.ar    1  LIG1        0.2035
     25 C           2.3198   -3.3029    0.4811 C.ar    1  LIG1        0.1655
     26 C           1.3904   -2.5572   -0.2674 C.ar    1  LIG1       -0.0094
     27 O           2.3749   -4.6713    0.3791 O.3     1  LIG1       -0.4913
     28 C           2.1017   -5.2089   -0.9132 C.3     1  LIG1        0.0790
     29 O           4.0262   -3.2545    2.2828 O.3     1  LIG1       -0.4885
     30 C           4.6338   -4.4734    1.8780 C.3     1  LIG1        0.0791
     31 H          -3.4477   -0.2384   -3.5012 H       1  LIG1        0.0524
     32 H          -4.1640    0.5687   -2.1051 H       1  LIG1        0.0524
     33 H          -3.2805   -0.9736   -1.9043 H       1  LIG1        0.0524
     34 H           0.7248    3.5748   -0.9110 H       1  LIG1        0.0690
     35 H          -3.6506    1.3181    0.0189 H       1  LIG1        0.0609
     36 H          -3.3568    4.7809    1.1708 H       1  LIG1        0.0357
     37 H          -4.3334    3.3377    1.2165 H       1  LIG1        0.0357
     38 H          -5.7269    4.7369   -0.0990 H       1  LIG1        0.0570
     39 H          -3.4456    4.8198   -2.1547 H       1  LIG1        0.0532
     40 H          -5.2026    5.3483   -2.3710 H       1  LIG1        0.0532
     41 H          -0.6330    0.6276    1.6681 H       1  LIG1        0.0235
     42 H          -0.8156   -1.1404    1.7024 H       1  LIG1        0.0235
     43 H          -2.2369   -0.1229    1.5994 H       1  LIG1        0.0235
     44 H           2.0846    0.5556    0.8506 H       1  LIG1        0.0659
     45 H           3.4354    1.4083    2.4122 H       1  LIG1        0.0660
     46 H           4.4607    0.8717    1.0291 H       1  LIG1        0.0660
     47 H           5.1442    1.0214    2.6502 H       1  LIG1        0.0660
     48 H           0.7059   -3.0542   -0.9478 H       1  LIG1        0.0659
     49 H           2.4240   -6.2544   -0.9178 H       1  LIG1        0.0660
     50 H           2.6595   -4.6826   -1.6963 H       1  LIG1        0.0660
     51 H           1.0274   -5.1981   -1.1220 H       1  LIG1        0.0660
     52 H           5.5243   -4.6200    2.4987 H       1  LIG1        0.0660
     53 H           4.9651   -4.4416    0.8350 H       1  LIG1        0.0660
     54 H           3.9747   -5.3266    2.0665 H       1  LIG1        0.0660
@<TRIPOS>BOND
     1     1     2    1
     2     1     3    1
     3     3     4    1
     4     4     5    2
     5     5     6    1
     6     6     7    2
     7     6     8    1
     8     8     9    2
     9     3     9    1
    10     8    10    1
    11    10    11    1
    12    11    12    2
    13     4    13    1
    14    13    14    1
    15    14    16    1
    16     3    16    1
    17    19    20   ar
    18    20    21   ar
    19    21    22    1
    20    22    23    1
    21    21    24   ar
    22    24    25   ar
    23    25    26   ar
    24    19    26   ar
    25    25    27    1
    26    27    28    1
    27    24    29    1
    28    29    30    1
    29    14    19    1
    30    14    15    1
    31    16    18    1
    32    16    17    1
    33     2    31    1
    34     2    32    1
    35     2    33    1
    36     5    34    1
    37     9    35    1
    38    10    36    1
    39    10    37    1
    40    11    38    1
    41    12    39    1
    42    12    40    1
    43    18    41    1
    44    18    42    1
    45    18    43    1
    46    20    44    1
    47    23    45    1
    48    23    46    1
    49    23    47    1
    50    26    48    1
    51    28    49    1
    52    28    50    1
    53    28    51    1
    54    30    52    1
    55    30    53    1
    56    30    54    1
