REMARK  Name = NuBBE_1624
REMARK  17 active torsions:
REMARK  status: ('A' for Active; 'I' for Inactive)
REMARK    1  A    between atoms: C_1  and  O_3
REMARK    2  A    between atoms: C_1  and  C_20
REMARK    3  A    between atoms: O_3  and  C_4
REMARK    4  A    between atoms: C_7  and  C_9
REMARK    5  A    between atoms: C_9  and  O_10
REMARK    6  A    between atoms: C_11  and  O_19
REMARK    7  A    between atoms: C_13  and  O_18
REMARK    8  A    between atoms: C_15  and  O_17
REMARK    9  A    between atoms: C_25  and  C_28
REMARK   10  A    between atoms: C_29  and  C_30
REMARK   11  A    between atoms: C_35  and  C_36
REMARK   12  A    between atoms: C_41  and  C_42
REMARK   13  A    between atoms: C_41  and  C_43
REMARK   14  A    between atoms: C_44  and  O_48
REMARK   15  A    between atoms: C_49  and  C_53
REMARK   16  A    between atoms: C_53  and  C_55
REMARK   17  A    between atoms: C_55  and  O_56
REMARK                            x       y       z     vdW  Elec       q    Type
REMARK                         _______ _______ _______ _____ _____    ______ ____
ROOT
ATOM      1  C   LIG A   1      -2.227  -2.261   0.427  0.00  0.00    +0.072 C 
ATOM      2  C   LIG A   1      -0.870  -2.276  -0.346  0.00  0.00    +0.020 C 
ATOM      3  C   LIG A   1       0.203  -1.531   0.496  0.00  0.00    +0.000 C 
ATOM      4  C   LIG A   1      -0.166  -0.006   0.728  0.00  0.00    -0.023 C 
ATOM      5  C   LIG A   1      -1.668   0.115   1.163  0.00  0.00    +0.008 C 
ATOM      6  C   LIG A   1      -2.304  -1.220   1.561  0.00  0.00    +0.019 C 
ATOM      7  C   LIG A   1      -0.066   0.789  -0.616  0.00  0.00    +0.012 C 
ATOM      8  C   LIG A   1       0.849   0.611   1.835  0.00  0.00    -0.023 C 
ATOM      9  C   LIG A   1       0.520  -0.029   3.215  0.00  0.00    +0.012 C 
ATOM     10  C   LIG A   1       2.349   0.347   1.386  0.00  0.00    +0.002 C 
ATOM     11  C   LIG A   1       2.619  -1.129   1.026  0.00  0.00    +0.005 C 
ATOM     12  C   LIG A   1       1.638  -1.672  -0.013  0.00  0.00    +0.005 C 
ATOM     13  C   LIG A   1       3.469   1.014   2.301  0.00  0.00    -0.025 C 
ATOM     14  C   LIG A   1       3.525   0.375   3.710  0.00  0.00    +0.012 C 
ATOM     15  C   LIG A   1       3.169   2.561   2.310  0.00  0.00    +0.003 C 
ATOM     16  C   LIG A   1       1.744   2.850   2.832  0.00  0.00    +0.005 C 
ATOM     17  C   LIG A   1       0.671   2.152   1.984  0.00  0.00    +0.008 C 
ATOM     18  C   LIG A   1       4.297   3.483   2.909  0.00  0.00    -0.006 C 
ATOM     19  C   LIG A   1       3.988   4.967   2.566  0.00  0.00    +0.014 C 
ATOM     20  C   LIG A   1       4.400   3.411   4.445  0.00  0.00    +0.014 C 
ATOM     21  C   LIG A   1       5.652   3.124   2.228  0.00  0.00    +0.120 C 
ATOM     22  C   LIG A   1       5.978   1.637   2.258  0.00  0.00    +0.032 C 
ATOM     23  C   LIG A   1       4.865   0.794   1.647  0.00  0.00    +0.010 C 
ATOM     24  C   LIG A   1      -0.577  -3.779  -0.626  0.00  0.00    +0.062 C 
ATOM     25  C   LIG A   1      -1.774  -4.562  -0.089  0.00  0.00    +0.012 C 
ATOM     26  C   LIG A   1      -2.327  -3.683   1.013  0.00  0.00    +0.019 C 
ENDROOT
BRANCH   1  27
ATOM     27  C   LIG A   1      -3.379  -1.990  -0.565  0.00  0.00    +0.316 C 
ATOM     28  O   LIG A   1      -4.332  -2.720  -0.721  0.00  0.00    -0.250 OA
BRANCH  27  29
ATOM     29  O   LIG A   1      -3.157  -0.842  -1.249  0.00  0.00    -0.432 OA
BRANCH  29  30
ATOM     30  C   LIG A   1      -4.114  -0.507  -2.260  0.00  0.00    +0.342 C 
ATOM     31  O   LIG A   1      -3.735  -1.193  -3.456  0.00  0.00    -0.331 OA
ATOM     32  C   LIG A   1      -4.562  -0.861  -4.570  0.00  0.00    +0.179 C 
ATOM     33  C   LIG A   1      -4.388   0.628  -4.909  0.00  0.00    +0.177 C 
ATOM     34  C   LIG A   1      -4.832   1.452  -3.699  0.00  0.00    +0.180 C 
ATOM     35  C   LIG A   1      -4.071   1.029  -2.442  0.00  0.00    +0.214 C 
BRANCH  35  36
ATOM     36  O   LIG A   1      -4.642   1.695  -1.303  0.00  0.00    -0.383 OA
ATOM     37  H   LIG A   1      -4.661   2.644  -1.541  0.00  0.00    +0.210 HD
ENDBRANCH  35  36
BRANCH  34  38
ATOM     38  O   LIG A   1      -4.598   2.849  -3.945  0.00  0.00    -0.386 OA
ATOM     39  H   LIG A   1      -4.870   2.991  -4.876  0.00  0.00    +0.210 HD
ENDBRANCH  34  38
BRANCH  33  40
ATOM     40  O   LIG A   1      -5.160   1.053  -6.035  0.00  0.00    -0.387 OA
ATOM     41  H   LIG A   1      -4.942   0.437  -6.770  0.00  0.00    +0.210 HD
ENDBRANCH  33  40
BRANCH  32  42
ATOM     42  C   LIG A   1      -4.183  -1.765  -5.748  0.00  0.00    +0.190 C 
BRANCH  42  43
ATOM     43  O   LIG A   1      -4.972  -1.465  -6.898  0.00  0.00    -0.392 OA
ATOM     44  H   LIG A   1      -5.872  -1.798  -6.724  0.00  0.00    +0.209 HD
ENDBRANCH  42  43
ENDBRANCH  32  42
ENDBRANCH  29  30
ENDBRANCH  27  29
ENDBRANCH   1  27
BRANCH  21  45
ATOM     45  O   LIG A   1       6.749   3.805   2.836  0.00  0.00    -0.391 OA
ATOM     46  H   LIG A   1       6.709   4.736   2.563  0.00  0.00    +0.210 HD
ENDBRANCH  21  45
BRANCH  24  47
ATOM     47  C   LIG A   1      -0.300  -4.060  -2.106  0.00  0.00    +0.162 C 
ATOM     48  O   LIG A   1       0.846  -3.983  -2.559  0.00  0.00    -0.295 OA
BRANCH  47  49
ATOM     49  C   LIG A   1      -1.470  -4.416  -3.030  0.00  0.00    +0.230 C 
BRANCH  49  50
ATOM     50  O   LIG A   1      -1.071  -4.600  -4.379  0.00  0.00    -0.388 OA
ATOM     51  H   LIG A   1      -0.139  -4.891  -4.347  0.00  0.00    +0.210 HD
ENDBRANCH  49  50
ENDBRANCH  47  49
ENDBRANCH  24  47
TORSDOF 12
