REMARK  Name = NuBBE_1523
REMARK  10 active torsions:
REMARK  status: ('A' for Active; 'I' for Inactive)
REMARK    1  A    between atoms: C_1  and  C_2
REMARK    2  A    between atoms: C_7  and  C_8
REMARK    3  A    between atoms: C_12  and  C_13
REMARK    4  A    between atoms: C_12  and  C_14
REMARK    5  A    between atoms: C_19  and  C_36
REMARK    6  A    between atoms: C_20  and  C_22
REMARK    7  A    between atoms: C_25  and  C_26
REMARK    8  A    between atoms: C_27  and  C_28
REMARK    9  A    between atoms: C_27  and  C_29
REMARK   10  A    between atoms: C_32  and  O_33
REMARK                            x       y       z     vdW  Elec       q    Type
REMARK                         _______ _______ _______ _____ _____    ______ ____
ROOT
ATOM      1  C   LIG A   1       2.876   2.108   0.803  0.00  0.00    +0.016 C 
ATOM      2  C   LIG A   1       1.461   1.488   0.720  0.00  0.00    -0.005 C 
ATOM      3  C   LIG A   1       0.990   1.616  -0.756  0.00  0.00    -0.063 C 
ATOM      4  C   LIG A   1       0.729   2.813  -1.325  0.00  0.00    -0.026 C 
ATOM      5  C   LIG A   1       0.297   3.025  -2.746  0.00  0.00    +0.032 C 
ATOM      6  C   LIG A   1      -0.124   1.725  -3.456  0.00  0.00    +0.012 C 
ATOM      7  C   LIG A   1       0.907   0.580  -3.158  0.00  0.00    -0.021 C 
ATOM      8  C   LIG A   1       2.344   0.904  -3.631  0.00  0.00    +0.012 C 
ATOM      9  C   LIG A   1       0.413  -0.714  -3.858  0.00  0.00    +0.015 C 
ATOM     10  C   LIG A   1       0.146  -0.542  -5.343  0.00  0.00    +0.075 C 
ATOM     11  C   LIG A   1      -0.856   0.561  -5.582  0.00  0.00    +0.139 C 
ATOM     12  C   LIG A   1      -0.563   1.931  -4.950  0.00  0.00    +0.027 C 
ATOM     13  C   LIG A   1      -1.869   2.766  -4.981  0.00  0.00    +0.019 C 
ATOM     14  C   LIG A   1       0.444   2.653  -5.861  0.00  0.00    +0.019 C 
ATOM     15  O   LIG A   1      -1.805   0.376  -6.344  0.00  0.00    -0.297 OA
ATOM     16  C   LIG A   1       0.902   0.345  -1.588  0.00  0.00    +0.021 C 
ATOM     17  C   LIG A   1       1.993  -0.620  -1.116  0.00  0.00    +0.009 C 
ATOM     18  C   LIG A   1       1.686  -1.103   0.292  0.00  0.00    +0.008 C 
ATOM     19  C   LIG A   1       1.359   0.007   1.324  0.00  0.00    -0.020 C 
ATOM     20  C   LIG A   1      -0.088  -0.070   2.010  0.00  0.00    +0.004 C 
ATOM     21  C   LIG A   1      -0.676   1.347   1.824  0.00  0.00    +0.005 C 
ATOM     22  C   LIG A   1       0.521   2.265   1.668  0.00  0.00    +0.012 C 
ATOM     23  C   LIG A   1       2.381  -0.177   2.491  0.00  0.00    +0.012 C 
ENDROOT
BRANCH  20  24
ATOM     24  C   LIG A   1      -1.127  -1.150   1.598  0.00  0.00    +0.051 C 
ATOM     25  C   LIG A   1      -2.469  -1.019   2.333  0.00  0.00    +0.043 C 
ATOM     26  C   LIG A   1      -2.538  -2.215   3.267  0.00  0.00    +0.153 C 
ATOM     27  O   LIG A   1      -1.825  -3.244   2.579  0.00  0.00    -0.345 OA
ATOM     28  C   LIG A   1      -0.784  -2.635   1.818  0.00  0.00    +0.251 C 
BRANCH  26  29
ATOM     29  C   LIG A   1      -1.964  -1.947   4.636  0.00  0.00    +0.179 C 
ATOM     30  C   LIG A   1      -1.906  -3.010   5.730  0.00  0.00    +0.093 C 
ATOM     31  C   LIG A   1      -1.844  -2.578   7.163  0.00  0.00    +0.044 C 
ATOM     32  C   LIG A   1      -2.385  -4.408   5.482  0.00  0.00    +0.044 C 
ATOM     33  O   LIG A   1      -0.747  -2.633   4.974  0.00  0.00    -0.363 OA
ENDBRANCH  26  29
BRANCH  28  34
ATOM     34  O   LIG A   1       0.438  -2.852   2.482  0.00  0.00    -0.367 OA
ATOM     35  H   LIG A   1       0.205  -2.843   3.430  0.00  0.00    +0.212 HD
ENDBRANCH  28  34
ENDBRANCH  20  24
TORSDOF 3
