REMARK  Name = NuBBE_1181
REMARK  7 active torsions:
REMARK  status: ('A' for Active; 'I' for Inactive)
REMARK    1  A    between atoms: C_1  and  C_2
REMARK    2  A    between atoms: C_7  and  C_9
REMARK    3  A    between atoms: C_13  and  O_14
REMARK    4  A    between atoms: C_20  and  C_33
REMARK    5  A    between atoms: C_22  and  C_23
REMARK    6  A    between atoms: C_22  and  C_28
REMARK    7  A    between atoms: C_29  and  O_30
REMARK                            x       y       z     vdW  Elec       q    Type
REMARK                         _______ _______ _______ _____ _____    ______ ____
ROOT
ATOM      1  C   LIG A   1      -1.151  -0.688   0.921  0.00  0.00    +0.014 C 
ATOM      2  C   LIG A   1      -1.344  -0.527  -0.594  0.00  0.00    +0.007 C 
ATOM      3  C   LIG A   1      -1.326   0.943  -0.990  0.00  0.00    +0.112 C 
ATOM      4  C   LIG A   1      -2.448   1.171  -1.959  0.00  0.00    +0.153 C 
ATOM      5  C   LIG A   1      -3.175  -0.113  -2.193  0.00  0.00    +0.043 C 
ATOM      6  C   LIG A   1      -2.827  -0.986  -0.962  0.00  0.00    +0.032 C 
ATOM      7  O   LIG A   1      -2.494   1.698  -0.632  0.00  0.00    -0.363 OA
ATOM      8  C   LIG A   1      -0.048   1.723  -1.167  0.00  0.00    +0.102 C 
ATOM      9  C   LIG A   1       1.206   0.854  -1.313  0.00  0.00    +0.016 C 
ATOM     10  C   LIG A   1       2.202   0.718  -0.067  0.00  0.00    +0.016 C 
ATOM     11  C   LIG A   1       1.867   1.645   1.142  0.00  0.00    -0.002 C 
ATOM     12  C   LIG A   1       2.599   1.337   2.501  0.00  0.00    +0.053 C 
ATOM     13  C   LIG A   1       4.101   1.684   2.455  0.00  0.00    +0.024 C 
ATOM     14  C   LIG A   1       2.466  -0.173   2.797  0.00  0.00    +0.166 C 
ATOM     15  C   LIG A   1       2.473  -1.129   1.670  0.00  0.00    +0.044 C 
ATOM     16  C   LIG A   1       2.382  -0.716   0.401  0.00  0.00    -0.012 C 
ATOM     17  O   LIG A   1       2.451  -0.651   3.932  0.00  0.00    -0.292 OA
ATOM     18  C   LIG A   1       2.033   2.054   3.757  0.00  0.00    +0.024 C 
ATOM     19  C   LIG A   1       0.965   2.644   1.018  0.00  0.00    +0.161 C 
ATOM     20  C   LIG A   1       0.142   2.849  -0.199  0.00  0.00    +0.203 C 
ATOM     21  O   LIG A   1      -0.428   3.937  -0.317  0.00  0.00    -0.288 OA
ATOM     22  C   LIG A   1       3.596   1.117  -0.644  0.00  0.00    +0.020 C 
ATOM     23  C   LIG A   1       0.820  -0.430  -2.070  0.00  0.00    +0.006 C 
ATOM     24  C   LIG A   1      -0.262  -1.291  -1.403  0.00  0.00    +0.010 C 
ENDROOT
BRANCH   6  25
ATOM     25  C   LIG A   1      -3.176  -2.443  -1.129  0.00  0.00    +0.008 C 
ATOM     26  C   LIG A   1      -2.481  -3.534  -0.809  0.00  0.00    +0.097 C 
ATOM     27  C   LIG A   1      -3.294  -4.692  -1.179  0.00  0.00    +0.335 C 
ATOM     28  O   LIG A   1      -4.483  -4.270  -1.673  0.00  0.00    -0.428 OA
ATOM     29  C   LIG A   1      -4.485  -2.853  -1.703  0.00  0.00    +0.337 C 
ATOM     30  O   LIG A   1      -2.940  -5.848  -1.051  0.00  0.00    -0.245 OA
BRANCH  29  31
ATOM     31  O   LIG A   1      -5.557  -2.341  -0.943  0.00  0.00    -0.354 OA
ATOM     32  H   LIG A   1      -5.330  -2.464  -0.008  0.00  0.00    +0.214 HD
ENDBRANCH  29  31
ENDBRANCH   6  25
BRANCH  19  33
ATOM     33  O   LIG A   1       0.746   3.589   1.999  0.00  0.00    -0.503 OA
ATOM     34  H   LIG A   1       0.107   4.228   1.611  0.00  0.00    +0.292 HD
ENDBRANCH  19  33
TORSDOF 3
