@<TRIPOS>MOLECULE
NuBBE_1373
 43 45 0 0 0
SMALL
GASTEIGER

@<TRIPOS>ATOM
      1 O          -3.1730   -0.3998    1.1540 O.2     1  LIG1       -0.2973
      2 C          -2.1065   -0.2411    0.5285 C.2     1  LIG1        0.1369
      3 C          -1.9174    0.9529   -0.3927 C.3     1  LIG1        0.0059
      4 C          -2.9608    2.0687   -0.3350 C.3     1  LIG1       -0.0466
      5 C          -2.9963    2.7939    1.0153 C.3     1  LIG1       -0.0555
      6 C          -3.9730    3.9618    1.0040 C.3     1  LIG1       -0.0653
      7 C          -1.0499   -1.3447    0.5352 C.3     1  LIG1        0.0462
      8 C           0.3289   -1.0394    1.1726 C.3     1  LIG1        0.1601
      9 O           0.1051   -0.6374    2.5402 O.3     1  LIG1       -0.3756
     10 C           1.1583    0.0302    0.4668 C.ar    1  LIG1       -0.0005
     11 C           1.0539    1.3791    0.8630 C.ar    1  LIG1       -0.0548
     12 C           1.6463    2.3946    0.1204 C.ar    1  LIG1       -0.0614
     13 C           2.3861    2.0734   -1.0059 C.ar    1  LIG1       -0.0612
     14 C           2.5796    0.7338   -1.3553 C.ar    1  LIG1       -0.0536
     15 C           1.9990   -0.3170   -0.6104 C.ar    1  LIG1       -0.0109
     16 C           2.2743   -1.7449   -0.8979 C.ar    1  LIG1       -0.0069
     17 C           2.9443   -2.1899   -2.0528 C.ar    1  LIG1       -0.0533
     18 C           3.1408   -3.5516   -2.3110 C.ar    1  LIG1       -0.0611
     19 C           2.7295   -4.5065   -1.3854 C.ar    1  LIG1       -0.0611
     20 C           2.1374   -4.1008   -0.2009 C.ar    1  LIG1       -0.0506
     21 C           1.8750   -2.7410    0.0309 C.ar    1  LIG1        0.0284
     22 C           1.0956   -2.3559    1.2299 C.2     1  LIG1        0.1999
     23 O           1.0298   -3.1253    2.2129 O.2     1  LIG1       -0.2886
     24 H          -1.8393    0.5747   -1.4174 H       1  LIG1        0.0342
     25 H          -0.9826    1.4314   -0.1565 H       1  LIG1        0.0342
     26 H          -3.9533    1.6891   -0.5992 H       1  LIG1        0.0269
     27 H          -2.6830    2.8035   -1.1029 H       1  LIG1        0.0269
     28 H          -1.9957    3.1710    1.2603 H       1  LIG1        0.0263
     29 H          -3.2843    2.1047    1.8155 H       1  LIG1        0.0263
     30 H          -3.8102    4.6158    0.1412 H       1  LIG1        0.0230
     31 H          -3.8531    4.5633    1.9112 H       1  LIG1        0.0230
     32 H          -5.0063    3.6022    0.9726 H       1  LIG1        0.0230
     33 H          -0.9578   -1.7291   -0.4883 H       1  LIG1        0.0378
     34 H          -1.5039   -2.1661    1.1150 H       1  LIG1        0.0378
     35 H           0.0063   -1.4710    3.0444 H       1  LIG1        0.2112
     36 H           0.4200    1.6480    1.7081 H       1  LIG1        0.0621
     37 H           1.4938    3.4322    0.4056 H       1  LIG1        0.0618
     38 H           2.8306    2.8634   -1.6069 H       1  LIG1        0.0618
     39 H           3.2055    0.5416   -2.2217 H       1  LIG1        0.0624
     40 H           3.3104   -1.4906   -2.8011 H       1  LIG1        0.0624
     41 H           3.6038   -3.8642   -3.2449 H       1  LIG1        0.0618
     42 H           2.8572   -5.5665   -1.6007 H       1  LIG1        0.0618
     43 H           1.8350   -4.8466    0.5393 H       1  LIG1        0.0625
@<TRIPOS>BOND
     1     1     2    2
     2     2     3    1
     3     3     4    1
     4     4     5    1
     5     5     6    1
     6     2     7    1
     7     7     8    1
     8     8     9    1
     9     8    10    1
    10    10    11   ar
    11    11    12   ar
    12    12    13   ar
    13    13    14   ar
    14    14    15   ar
    15    10    15   ar
    16    15    16    1
    17    16    17   ar
    18    17    18   ar
    19    18    19   ar
    20    19    20   ar
    21    20    21   ar
    22    16    21   ar
    23    21    22    1
    24     8    22    1
    25    22    23    2
    26     3    24    1
    27     3    25    1
    28     4    26    1
    29     4    27    1
    30     5    28    1
    31     5    29    1
    32     6    30    1
    33     6    31    1
    34     6    32    1
    35     7    33    1
    36     7    34    1
    37     9    35    1
    38    11    36    1
    39    12    37    1
    40    13    38    1
    41    14    39    1
    42    17    40    1
    43    18    41    1
    44    19    42    1
    45    20    43    1
