REMARK  Name = NuBBE_1723
REMARK  10 active torsions:
REMARK  status: ('A' for Active; 'I' for Inactive)
REMARK    1  A    between atoms: O_1  and  C_2
REMARK    2  A    between atoms: O_1  and  C_3
REMARK    3  A    between atoms: C_10  and  C_13
REMARK    4  A    between atoms: C_10  and  C_14
REMARK    5  A    between atoms: C_21  and  O_28
REMARK    6  A    between atoms: C_22  and  O_24
REMARK    7  A    between atoms: O_24  and  C_25
REMARK    8  A    between atoms: C_25  and  C_27
REMARK    9  A    between atoms: O_28  and  C_29
REMARK   10  A    between atoms: C_29  and  C_31
REMARK                            x       y       z     vdW  Elec       q    Type
REMARK                         _______ _______ _______ _____ _____    ______ ____
ROOT
ATOM      1  C   LIG A   1      -1.738  -2.548  -0.531  0.00  0.00    +0.138 A 
ATOM      2  C   LIG A   1      -1.109  -1.302  -0.696  0.00  0.00    +0.107 A 
ATOM      3  C   LIG A   1       0.266  -1.159  -0.447  0.00  0.00    +0.153 A 
ATOM      4  C   LIG A   1       1.044  -2.266  -0.085  0.00  0.00    +0.060 A 
ATOM      5  C   LIG A   1       0.411  -3.493   0.091  0.00  0.00    +0.136 A 
ATOM      6  C   LIG A   1      -0.961  -3.632  -0.123  0.00  0.00    +0.092 A 
ATOM      7  O   LIG A   1       1.057  -4.639   0.453  0.00  0.00    -0.481 OA
ATOM      8  C   LIG A   1       2.406  -4.533   0.944  0.00  0.00    +0.123 C 
ATOM      9  C   LIG A   1       3.124  -3.257   0.574  0.00  0.00    +0.020 C 
ATOM     10  C   LIG A   1       2.489  -2.183   0.096  0.00  0.00    +0.015 C 
ATOM     11  C   LIG A   1       3.143  -5.732   0.341  0.00  0.00    +0.060 C 
ATOM     12  C   LIG A   1       2.339  -4.660   2.469  0.00  0.00    +0.060 C 
ATOM     13  O   LIG A   1       0.925   0.048  -0.535  0.00  0.00    -0.454 OA
ATOM     14  C   LIG A   1       0.167   1.186  -0.501  0.00  0.00    +0.143 A 
ATOM     15  C   LIG A   1      -1.189   1.196  -0.793  0.00  0.00    +0.068 A 
ATOM     16  C   LIG A   1      -1.839  -0.083  -1.111  0.00  0.00    +0.204 A 
ATOM     17  O   LIG A   1      -2.913  -0.089  -1.694  0.00  0.00    -0.286 OA
ATOM     18  C   LIG A   1      -1.909   2.388  -0.779  0.00  0.00    +0.065 A 
ATOM     19  C   LIG A   1      -1.256   3.573  -0.438  0.00  0.00    +0.175 A 
ATOM     20  C   LIG A   1       0.124   3.571  -0.166  0.00  0.00    +0.177 A 
ATOM     21  C   LIG A   1       0.834   2.372  -0.198  0.00  0.00    +0.097 A 
ENDROOT
BRANCH   1  22
ATOM     22  O   LIG A   1      -3.084  -2.634  -0.758  0.00  0.00    -0.494 OA
ATOM     23  C   LIG A   1      -3.720  -3.888  -0.539  0.00  0.00    +0.277 C 
ENDBRANCH   1  22
BRANCH  20  24
ATOM     24  O   LIG A   1       0.755   4.830   0.023  0.00  0.00    -0.422 OA
BRANCH  24  25
ATOM     25  C   LIG A   1       2.107   5.011   0.346  0.00  0.00    +0.309 C 
ATOM     26  O   LIG A   1       2.897   4.157   0.720  0.00  0.00    -0.251 OA
ATOM     27  C   LIG A   1       2.469   6.457   0.188  0.00  0.00    +0.136 C 
ENDBRANCH  24  25
ENDBRANCH  20  24
BRANCH  19  28
ATOM     28  O   LIG A   1      -1.915   4.823  -0.487  0.00  0.00    -0.422 OA
BRANCH  28  29
ATOM     29  C   LIG A   1      -3.308   4.948  -0.359  0.00  0.00    +0.309 C 
ATOM     30  O   LIG A   1      -4.090   4.101   0.035  0.00  0.00    -0.251 OA
ATOM     31  C   LIG A   1      -3.712   6.316  -0.829  0.00  0.00    +0.136 C 
ENDBRANCH  28  29
ENDBRANCH  19  28
TORSDOF 5
