REMARK  Name = NuBBE_2515
REMARK  7 active torsions:
REMARK  status: ('A' for Active; 'I' for Inactive)
REMARK    1  A    between atoms: C_1  and  C_2
REMARK    2  A    between atoms: C_1  and  C_4
REMARK    3  A    between atoms: C_9  and  O_11
REMARK    4  A    between atoms: O_11  and  C_12
REMARK    5  A    between atoms: C_14  and  C_19
REMARK    6  A    between atoms: C_16  and  C_18
REMARK    7  A    between atoms: C_19  and  C_20
REMARK                            x       y       z     vdW  Elec       q    Type
REMARK                         _______ _______ _______ _____ _____    ______ ____
ROOT
ATOM      1  C   LIG A   1      -1.904  -0.321  -0.218  0.00  0.00    +0.059 C 
ATOM      2  C   LIG A   1      -0.727   0.484  -0.691  0.00  0.00    +0.113 C 
ATOM      3  C   LIG A   1      -0.729   1.802  -0.892  0.00  0.00    +0.096 C 
ATOM      4  C   LIG A   1      -1.944   2.583  -0.571  0.00  0.00    +0.223 C 
ATOM      5  O   LIG A   1      -2.024   3.736  -0.968  0.00  0.00    -0.284 OA
ATOM      6  C   LIG A   1      -2.976   1.908   0.310  0.00  0.00    +0.164 C 
ATOM      7  C   LIG A   1      -2.926   0.571   0.455  0.00  0.00    +0.038 C 
ATOM      8  O   LIG A   1       0.446  -0.233  -0.722  0.00  0.00    -0.491 OA
ATOM      9  C   LIG A   1       0.300  -1.257   0.280  0.00  0.00    +0.181 C 
ATOM     10  C   LIG A   1      -1.159  -1.208   0.796  0.00  0.00    +0.045 C 
ATOM     11  C   LIG A   1      -1.719  -2.608   1.040  0.00  0.00    +0.012 C 
ENDROOT
BRANCH   6  12
ATOM     12  O   LIG A   1      -3.977   2.591   0.987  0.00  0.00    -0.492 OA
ATOM     13  C   LIG A   1      -3.970   4.010   0.891  0.00  0.00    +0.277 C 
ENDBRANCH   6  12
BRANCH   1  14
ATOM     14  C   LIG A   1      -2.572  -1.114  -1.383  0.00  0.00    +0.045 C 
BRANCH  14  15
ATOM     15  C   LIG A   1      -3.113  -0.262  -2.511  0.00  0.00    -0.033 C 
ATOM     16  C   LIG A   1      -4.399  -0.218  -2.882  0.00  0.00    +0.004 C 
ENDBRANCH  14  15
ENDBRANCH   1  14
BRANCH   9  17
ATOM     17  C   LIG A   1       1.288  -0.983   1.431  0.00  0.00    +0.080 C 
BRANCH  17  18
ATOM     18  C   LIG A   1       2.739  -0.979   1.011  0.00  0.00    -0.040 A 
ATOM     19  C   LIG A   1       3.343   0.215   0.576  0.00  0.00    +0.053 A 
ATOM     20  C   LIG A   1       4.679   0.183   0.238  0.00  0.00    +0.167 A 
ATOM     21  C   LIG A   1       5.416  -0.974   0.313  0.00  0.00    +0.166 A 
ATOM     22  C   LIG A   1       4.856  -2.165   0.719  0.00  0.00    +0.050 A 
ATOM     23  C   LIG A   1       3.501  -2.166   1.067  0.00  0.00    +0.007 A 
ATOM     24  O   LIG A   1       6.714  -0.787  -0.044  0.00  0.00    -0.453 OA
ATOM     25  C   LIG A   1       6.715   0.628  -0.328  0.00  0.00    +0.466 C 
ATOM     26  O   LIG A   1       5.419   1.244  -0.180  0.00  0.00    -0.453 OA
ENDBRANCH  17  18
ENDBRANCH   9  17
TORSDOF 5
