@<TRIPOS>MOLECULE
NuBBE_426
 40 42 0 0 0
SMALL
GASTEIGER

@<TRIPOS>ATOM
      1 O          -5.3301    1.8973   -0.6544 O.3     1  LIG1       -0.5065
      2 C          -3.9715    1.9930   -0.7268 C.ar    1  LIG1        0.1238
      3 C          -3.3356    3.2135   -0.9264 C.ar    1  LIG1        0.0218
      4 C          -1.9412    3.2471   -0.9848 C.ar    1  LIG1        0.1271
      5 O          -1.2903    4.4347   -1.1759 O.3     1  LIG1       -0.5063
      6 C          -1.1762    2.0824   -0.8437 C.ar    1  LIG1        0.0395
      7 C          -1.8445    0.8670   -0.6639 C.ar    1  LIG1        0.1318
      8 O          -1.2131   -0.3337   -0.5046 O.3     1  LIG1       -0.4800
      9 C           0.1737   -0.3569   -0.8779 C.3     1  LIG1        0.1622
     10 C           0.9549    0.8523   -0.3393 C.3     1  LIG1        0.1480
     11 H           1.9965    0.8042   -0.6773 H       1  LIG1        0.0778
     12 C           0.3283    2.1295   -0.9033 C.3     1  LIG1        0.0204
     13 O           0.8806    0.9343    1.1049 O.3     1  LIG1       -0.4571
     14 C           2.0611    0.9208    1.7730 C.2     1  LIG1        0.3043
     15 C           1.8365    1.1788    3.2293 C.3     1  LIG1        0.0332
     16 O           3.1648    0.7420    1.2738 O.2     1  LIG1       -0.2512
     17 C           0.7607   -1.6951   -0.4537 C.ar    1  LIG1       -0.0001
     18 C           0.2726   -2.3862    0.6731 C.ar    1  LIG1       -0.0513
     19 C           0.7670   -3.6480    1.0179 C.ar    1  LIG1       -0.0162
     20 C           1.7602   -4.2207    0.2362 C.ar    1  LIG1        0.1582
     21 C           2.2655   -3.5395   -0.8673 C.ar    1  LIG1        0.1586
     22 O           3.2344   -4.1175   -1.6376 O.3     1  LIG1       -0.5033
     23 C           1.7855   -2.2827   -1.2132 C.ar    1  LIG1       -0.0097
     24 O           2.2694   -5.4604    0.5089 O.3     1  LIG1       -0.5033
     25 C          -3.2368    0.8229   -0.5940 C.ar    1  LIG1        0.0221
     26 H          -5.7180    2.7817   -0.7515 H       1  LIG1        0.2921
     27 H          -3.9153    4.1227   -1.0335 H       1  LIG1        0.0691
     28 H          -1.9418    5.1543   -1.2049 H       1  LIG1        0.2921
     29 H           0.1980   -0.3353   -1.9774 H       1  LIG1        0.0822
     30 H           0.6228    2.2493   -1.9532 H       1  LIG1        0.0353
     31 H           0.6962    2.9941   -0.3380 H       1  LIG1        0.0353
     32 H           1.1938    2.0547    3.3554 H       1  LIG1        0.0342
     33 H           2.7968    1.3977    3.7059 H       1  LIG1        0.0342
     34 H           1.3900    0.3016    3.7019 H       1  LIG1        0.0342
     35 H          -0.5207   -1.9483    1.2774 H       1  LIG1        0.0623
     36 H           0.3545   -4.1620    1.8796 H       1  LIG1        0.0655
     37 H           3.3886   -4.9878   -1.2190 H       1  LIG1        0.2923
     38 H           2.1986   -1.7817   -2.0844 H       1  LIG1        0.0659
     39 H           1.8280   -5.7949    1.3085 H       1  LIG1        0.2923
     40 H          -3.7442   -0.1253   -0.4399 H       1  LIG1        0.0691
@<TRIPOS>BOND
     1     1     2    1
     2     2     3   ar
     3     3     4   ar
     4     4     5    1
     5     4     6   ar
     6     6     7   ar
     7     7     8    1
     8     8     9    1
     9     9    10    1
    10    10    12    1
    11     6    12    1
    12    13    14    1
    13    14    15    1
    14    14    16    2
    15     9    17    1
    16    17    18   ar
    17    18    19   ar
    18    19    20   ar
    19    20    21   ar
    20    21    22    1
    21    21    23   ar
    22    17    23   ar
    23    20    24    1
    24     7    25   ar
    25     2    25   ar
    26    10    13    1
    27    10    11    1
    28     1    26    1
    29     3    27    1
    30     5    28    1
    31     9    29    1
    32    12    30    1
    33    12    31    1
    34    15    32    1
    35    15    33    1
    36    15    34    1
    37    18    35    1
    38    19    36    1
    39    22    37    1
    40    23    38    1
    41    24    39    1
    42    25    40    1
