REMARK  Name = NuBBE_1979
REMARK  7 active torsions:
REMARK  status: ('A' for Active; 'I' for Inactive)
REMARK    1  A    between atoms: S_1  and  S_2
REMARK    2  A    between atoms: S_1  and  S_6
REMARK    3  A    between atoms: S_2  and  C_3
REMARK    4  A    between atoms: C_3  and  C_4
REMARK    5  A    between atoms: C_4  and  C_5
REMARK    6  A    between atoms: S_6  and  C_7
REMARK    7  A    between atoms: C_7  and  C_8
REMARK                            x       y       z     vdW  Elec       q    Type
REMARK                         _______ _______ _______ _____ _____    ______ ____
ROOT
ATOM      1  S   LIG A   1       1.740   1.213  -0.533  0.00  0.00    -0.024 S 
ENDROOT
BRANCH   1   2
ATOM      2  S   LIG A   1       1.305  -0.398  -1.736  0.00  0.00    -0.082 S 
BRANCH   2   3
ATOM      3  C   LIG A   1      -0.503  -0.303  -1.921  0.00  0.00    +0.081 C 
BRANCH   3   4
ATOM      4  C   LIG A   1      -0.979   0.999  -2.549  0.00  0.00    +0.008 C 
ATOM      5  C   LIG A   1      -2.496   1.006  -2.643  0.00  0.00    +0.004 C 
ENDBRANCH   3   4
ENDBRANCH   2   3
ENDBRANCH   1   2
BRANCH   1   6
ATOM      6  S   LIG A   1       0.697   0.876   1.205  0.00  0.00    -0.078 S 
BRANCH   6   7
ATOM      7  C   LIG A   1       1.542  -0.590   1.850  0.00  0.00    +0.108 C 
BRANCH   7   8
ATOM      8  C   LIG A   1       0.935  -0.980   3.161  0.00  0.00    -0.023 C 
ATOM      9  C   LIG A   1       1.633  -1.048   4.298  0.00  0.00    +0.005 C 
ENDBRANCH   7   8
ENDBRANCH   6   7
ENDBRANCH   1   6
TORSDOF 6
