@<TRIPOS>MOLECULE
NuBBE_2425
 42 44 0 0 0
SMALL
GASTEIGER

@<TRIPOS>ATOM
      1 C           0.8122   -1.8681    0.5630 C.3     1  LIG1        0.0154
      2 C           0.4251   -0.8355    1.6137 C.ar    1  LIG1        0.0534
      3 C           0.6543    0.5453    1.4251 C.ar    1  LIG1        0.0074
      4 C           0.2423    1.4082    2.4770 C.ar    1  LIG1       -0.0110
      5 C           0.3730    2.7857    2.3208 C.ar    1  LIG1       -0.0085
      6 C           0.9386    3.3695    1.1866 C.ar    1  LIG1        0.1621
      7 C           1.4472    2.5370    0.1689 C.ar    1  LIG1        0.1621
      8 C           1.2606    1.1515    0.3079 C.ar    1  LIG1       -0.0069
      9 O           2.0442    3.0769   -0.9422 O.3     1  LIG1       -0.4914
     10 C           2.9509    2.2003   -1.6375 C.3     1  LIG1        0.0790
     11 O           0.7949    4.7280    1.1820 O.3     1  LIG1       -0.4914
     12 C           1.9144    5.5223    0.8356 C.3     1  LIG1        0.0790
     13 C          -0.2979    0.8695    3.6367 C.ar    1  LIG1       -0.0357
     14 C          -0.4534   -0.4882    3.7370 C.ar    1  LIG1        0.0285
     15 N          -0.1155   -1.3556    2.7515 N.ar    1  LIG1       -0.2589
     16 C          -0.2541   -2.2031   -0.4568 C.ar    1  LIG1       -0.0413
     17 C          -0.3440   -1.5332   -1.6869 C.ar    1  LIG1       -0.0548
     18 C          -1.3068   -1.8977   -2.6398 C.ar    1  LIG1       -0.0197
     19 C          -2.2010   -2.9344   -2.3693 C.ar    1  LIG1        0.1201
     20 C          -2.1172   -3.5917   -1.1409 C.ar    1  LIG1       -0.0197
     21 C          -1.1586   -3.2361   -0.1975 C.ar    1  LIG1       -0.0548
     22 O          -3.1162   -3.2482   -3.3435 O.3     1  LIG1       -0.4951
     23 C          -3.9994   -4.3174   -2.9958 C.3     1  LIG1        0.0788
     24 H           1.0850   -2.7947    1.0878 H       1  LIG1        0.0377
     25 H           1.7320   -1.5793    0.0496 H       1  LIG1        0.0377
     26 H           0.0021    3.4550    3.1039 H       1  LIG1        0.0661
     27 H           1.5878    0.4997   -0.4998 H       1  LIG1        0.0662
     28 H           2.4214    1.5512   -2.3480 H       1  LIG1        0.0660
     29 H           3.5486    1.5916   -0.9471 H       1  LIG1        0.0660
     30 H           3.6522    2.8136   -2.2104 H       1  LIG1        0.0660
     31 H           2.8690    5.0693    1.1172 H       1  LIG1        0.0660
     32 H           1.8237    6.4665    1.3892 H       1  LIG1        0.0660
     33 H           1.8748    5.7633   -0.2281 H       1  LIG1        0.0660
     34 H          -0.5936    1.5124    4.4705 H       1  LIG1        0.0639
     35 H          -0.8582   -0.9468    4.6301 H       1  LIG1        0.0830
     36 H           0.3446   -0.7289   -1.9262 H       1  LIG1        0.0622
     37 H          -1.3437   -1.3673   -3.5895 H       1  LIG1        0.0654
     38 H          -2.7869   -4.4010   -0.8765 H       1  LIG1        0.0654
     39 H          -1.1256   -3.7903    0.7380 H       1  LIG1        0.0622
     40 H          -4.7017   -4.4949   -3.8137 H       1  LIG1        0.0660
     41 H          -4.5885   -4.0591   -2.1071 H       1  LIG1        0.0660
     42 H          -3.4367   -5.2456   -2.8357 H       1  LIG1        0.0660
@<TRIPOS>BOND
     1     1     2    1
     2     2     3   ar
     3     3     4   ar
     4     4     5   ar
     5     5     6   ar
     6     6     7   ar
     7     7     8   ar
     8     3     8   ar
     9     7     9    1
    10     9    10    1
    11     6    11    1
    12    11    12    1
    13     4    13   ar
    14    13    14   ar
    15    14    15   ar
    16     2    15   ar
    17     1    16    1
    18    16    17   ar
    19    17    18   ar
    20    18    19   ar
    21    19    20   ar
    22    20    21   ar
    23    16    21   ar
    24    19    22    1
    25    22    23    1
    26     1    24    1
    27     1    25    1
    28     5    26    1
    29     8    27    1
    30    10    28    1
    31    10    29    1
    32    10    30    1
    33    12    31    1
    34    12    32    1
    35    12    33    1
    36    13    34    1
    37    14    35    1
    38    17    36    1
    39    18    37    1
    40    20    38    1
    41    21    39    1
    42    23    40    1
    43    23    41    1
    44    23    42    1
