REMARK  Name = NuBBE_40
REMARK  8 active torsions:
REMARK  status: ('A' for Active; 'I' for Inactive)
REMARK    1  A    between atoms: C_1  and  C_2
REMARK    2  A    between atoms: C_2  and  C_3
REMARK    3  A    between atoms: C_3  and  C_4
REMARK    4  A    between atoms: C_4  and  C_5
REMARK    5  A    between atoms: C_6  and  C_7
REMARK    6  A    between atoms: C_6  and  C_8
REMARK    7  A    between atoms: C_9  and  C_10
REMARK    8  A    between atoms: C_10  and  N_11
REMARK                            x       y       z     vdW  Elec       q    Type
REMARK                         _______ _______ _______ _____ _____    ______ ____
ROOT
ATOM      1  C   LIG A   1      -1.894   0.033  -0.179  0.00  0.00    +0.038 C 
ATOM      2  C   LIG A   1      -0.429   0.322  -0.359  0.00  0.00    -0.073 C 
ATOM      3  C   LIG A   1       0.107   0.727  -1.530  0.00  0.00    +0.012 C 
ENDROOT
BRANCH   2   4
ATOM      4  C   LIG A   1       0.445   0.159   0.875  0.00  0.00    +0.034 C 
BRANCH   4   5
ATOM      5  C   LIG A   1       0.487  -1.286   1.399  0.00  0.00    +0.031 C 
BRANCH   5   6
ATOM      6  C   LIG A   1       1.348  -1.427   2.630  0.00  0.00    -0.028 C 
ATOM      7  C   LIG A   1       0.975  -1.862   3.851  0.00  0.00    -0.080 C 
ATOM      8  C   LIG A   1      -0.411  -2.305   4.234  0.00  0.00    +0.038 C 
ATOM      9  C   LIG A   1       1.970  -1.935   4.983  0.00  0.00    +0.038 C 
ENDBRANCH   5   6
ENDBRANCH   4   5
ENDBRANCH   2   4
BRANCH   3  10
ATOM     10  C   LIG A   1      -0.604   1.007  -2.826  0.00  0.00    +0.271 C 
BRANCH  10  11
ATOM     11  N   LIG A   1       0.159   2.034  -3.534  0.00  0.00    -0.110 NA
ATOM     12  C   LIG A   1      -0.241   2.430  -4.676  0.00  0.00    +0.377 C 
ATOM     13  N   LIG A   1      -1.317   2.061  -5.408  0.00  0.00    -0.289 N 
ATOM     14  N   LIG A   1       0.468   3.363  -5.352  0.00  0.00    -0.289 N 
ATOM     15  H   LIG A   1      -2.012   1.532  -4.898  0.00  0.00    +0.255 HD
ATOM     16  H   LIG A   1      -1.739   2.850  -5.884  0.00  0.00    +0.255 HD
ATOM     17  H   LIG A   1       1.362   3.512  -4.893  0.00  0.00    +0.255 HD
ATOM     18  H   LIG A   1       0.601   3.121  -6.326  0.00  0.00    +0.255 HD
ENDBRANCH  10  11
ENDBRANCH   3  10
TORSDOF 5
