REMARK  Name = NuBBE_1119
REMARK  3 active torsions:
REMARK  status: ('A' for Active; 'I' for Inactive)
REMARK    1  A    between atoms: C_9  and  C_10
REMARK    2  A    between atoms: C_13  and  O_14
REMARK    3  A    between atoms: O_14  and  C_15
REMARK                            x       y       z     vdW  Elec       q    Type
REMARK                         _______ _______ _______ _____ _____    ______ ____
ROOT
ATOM      1  O   LIG A   1      -4.660   0.343  -0.459  0.00  0.00    -0.245 OA
ATOM      2  C   LIG A   1      -3.464   0.602  -0.362  0.00  0.00    +0.337 A 
ATOM      3  C   LIG A   1      -2.998   1.997  -0.308  0.00  0.00    +0.092 A 
ATOM      4  C   LIG A   1      -1.703   2.318  -0.219  0.00  0.00    +0.018 A 
ATOM      5  O   LIG A   1      -2.496  -0.390  -0.293  0.00  0.00    -0.422 OA
ATOM      6  C   LIG A   1      -1.127  -0.066  -0.199  0.00  0.00    +0.143 A 
ATOM      7  C   LIG A   1      -0.707   1.260  -0.170  0.00  0.00    +0.018 A 
ATOM      8  C   LIG A   1       0.659   1.527  -0.090  0.00  0.00    +0.026 A 
ATOM      9  C   LIG A   1       1.579   0.466  -0.036  0.00  0.00    +0.057 A 
ATOM     10  C   LIG A   1       1.141  -0.871  -0.038  0.00  0.00    +0.134 A 
ATOM     11  C   LIG A   1      -0.228  -1.132  -0.134  0.00  0.00    +0.093 A 
ENDROOT
BRANCH   9  12
ATOM     12  C   LIG A   1       3.020   0.787   0.053  0.00  0.00    +0.262 C 
ATOM     13  O   LIG A   1       3.417   1.946   0.095  0.00  0.00    -0.296 OA
ENDBRANCH   9  12
BRANCH  10  14
ATOM     14  O   LIG A   1       2.096  -1.850   0.032  0.00  0.00    -0.494 OA
ATOM     15  C   LIG A   1       1.683  -3.097   0.587  0.00  0.00    +0.277 C 
ENDBRANCH  10  14
TORSDOF 2
