REMARK  Name = NuBBE_77
REMARK  12 active torsions:
REMARK  status: ('A' for Active; 'I' for Inactive)
REMARK    1  A    between atoms: C_1  and  C_2
REMARK    2  A    between atoms: C_11  and  C_12
REMARK    3  A    between atoms: C_17  and  O_21
REMARK    4  A    between atoms: C_24  and  C_26
REMARK    5  A    between atoms: C_26  and  C_28
REMARK    6  A    between atoms: C_26  and  C_37
REMARK    7  A    between atoms: C_29  and  C_30
REMARK    8  A    between atoms: C_30  and  C_32
REMARK    9  A    between atoms: C_30  and  C_35
REMARK   10  A    between atoms: C_32  and  C_33
REMARK   11  A    between atoms: C_32  and  C_34
REMARK   12  A    between atoms: C_35  and  C_36
REMARK                            x       y       z     vdW  Elec       q    Type
REMARK                         _______ _______ _______ _____ _____    ______ ____
ROOT
ATOM      1  C   LIG A   1       0.452  -2.206   1.323  0.00  0.00    +0.012 C 
ATOM      2  C   LIG A   1       0.022  -1.111   0.296  0.00  0.00    -0.026 C 
ATOM      3  C   LIG A   1      -0.401   0.218   0.959  0.00  0.00    -0.001 C 
ATOM      4  C   LIG A   1      -1.723   0.210   1.742  0.00  0.00    +0.000 C 
ATOM      5  C   LIG A   1      -2.873  -0.414   0.888  0.00  0.00    +0.003 C 
ATOM      6  C   LIG A   1      -2.401  -0.879  -0.519  0.00  0.00    +0.005 C 
ATOM      7  C   LIG A   1      -1.134  -1.737  -0.504  0.00  0.00    +0.007 C 
ATOM      8  C   LIG A   1      -3.908  -1.372   1.606  0.00  0.00    -0.008 C 
ATOM      9  C   LIG A   1      -5.298  -1.024   0.990  0.00  0.00    +0.016 C 
ATOM     10  C   LIG A   1      -3.935  -1.196   3.118  0.00  0.00    -0.065 C 
ATOM     11  C   LIG A   1      -2.921  -0.642   3.815  0.00  0.00    -0.027 C 
ATOM     12  C   LIG A   1      -1.633  -0.207   3.205  0.00  0.00    +0.031 C 
ATOM     13  C   LIG A   1      -5.010  -1.959   3.856  0.00  0.00    +0.062 C 
ATOM     14  C   LIG A   1      -4.793  -3.460   3.614  0.00  0.00    +0.119 C 
ATOM     15  C   LIG A   1      -4.631  -3.808   2.129  0.00  0.00    +0.032 C 
ATOM     16  C   LIG A   1      -3.639  -2.888   1.394  0.00  0.00    +0.013 C 
ATOM     17  C   LIG A   1       0.880   0.731   1.609  0.00  0.00    +0.004 C 
ATOM     18  C   LIG A   1       2.001   0.234   0.670  0.00  0.00    +0.005 C 
ATOM     19  C   LIG A   1       1.318  -0.619  -0.459  0.00  0.00    +0.002 C 
ENDROOT
BRANCH  14  20
ATOM     20  O   LIG A   1      -5.877  -4.209   4.160  0.00  0.00    -0.392 OA
ATOM     21  H   LIG A   1      -6.686  -3.952   3.686  0.00  0.00    +0.210 HD
ENDBRANCH  14  20
BRANCH  19  22
ATOM     22  C   LIG A   1       1.203   0.260  -1.764  0.00  0.00    +0.012 C 
ATOM     23  C   LIG A   1       0.476  -0.381  -2.950  0.00  0.00    +0.012 C 
BRANCH  22  24
ATOM     24  C   LIG A   1       2.592   0.652  -2.268  0.00  0.00    -0.027 C 
ATOM     25  C   LIG A   1       3.056   1.917  -2.286  0.00  0.00    -0.027 C 
BRANCH  25  26
ATOM     26  C   LIG A   1       4.445   2.328  -2.750  0.00  0.00    +0.014 C 
BRANCH  26  27
ATOM     27  C   LIG A   1       5.246   3.007  -1.591  0.00  0.00    -0.010 C 
ATOM     28  C   LIG A   1       6.720   3.234  -1.959  0.00  0.00    +0.008 C 
ATOM     29  C   LIG A   1       4.659   4.340  -1.105  0.00  0.00    +0.008 C 
ENDBRANCH  26  27
BRANCH  26  30
ATOM     30  C   LIG A   1       4.388   3.200  -4.024  0.00  0.00    +0.004 C 
ATOM     31  C   LIG A   1       3.620   2.566  -5.179  0.00  0.00    +0.004 C 
ENDBRANCH  26  30
ENDBRANCH  25  26
ENDBRANCH  22  24
ENDBRANCH  19  22
TORSDOF 6
