@<TRIPOS>MOLECULE
NuBBE_1138
 54 58 0 0 0
SMALL
GASTEIGER

@<TRIPOS>ATOM
      1 C           1.0165   -0.5623    2.9013 C.3     1  LIG1       -0.0520
      2 C           0.7555   -0.2156    1.4267 C.3     1  LIG1        0.0123
      3 C           1.2575   -1.3048    0.4935 C.ar    1  LIG1       -0.0333
      4 C           1.0233   -2.6766    0.5942 C.ar    1  LIG1       -0.0483
      5 C           1.5631   -3.5190   -0.3996 C.ar    1  LIG1       -0.0001
      6 C           1.5379   -4.9260   -0.6131 C.ar    1  LIG1       -0.0367
      7 C           2.2328   -5.1896   -1.7709 C.ar    1  LIG1        0.0027
      8 N           2.6822   -3.9961   -2.2699 N.ar    1  LIG1       -0.3606
      9 H           3.2232   -3.8847   -3.1159 H       1  LIG1        0.1653
     10 C           2.2910   -2.9572   -1.4536 C.ar    1  LIG1        0.0468
     11 C           2.5223   -1.5800   -1.5779 C.ar    1  LIG1       -0.0338
     12 C           2.0008   -0.7719   -0.5690 C.ar    1  LIG1       -0.0345
     13 C           2.0700    0.7355   -0.4795 C.3     1  LIG1        0.0039
     14 H           1.2965    1.1380   -1.1426 H       1  LIG1        0.0392
     15 C           3.4305    1.3130   -0.7780 C.2     1  LIG1       -0.0778
     16 C           3.7153    2.5129   -1.3226 C.2     1  LIG1       -0.0790
     17 C           2.6980    3.5392   -1.7378 C.3     1  LIG1       -0.0440
     18 C           5.1455    2.9386   -1.5329 C.3     1  LIG1       -0.0440
     19 C           1.6872    0.9569    1.0015 C.3     1  LIG1       -0.0298
     20 C          -0.6969    0.1217    1.1195 C.2     1  LIG1       -0.0732
     21 C          -1.7556    0.0247    1.9495 C.2     1  LIG1       -0.0576
     22 C          -3.1333    0.3694    1.5576 C.ar    1  LIG1       -0.0233
     23 C          -3.5814    0.1770    0.2428 C.ar    1  LIG1       -0.0307
     24 C          -4.8976    0.5312   -0.0708 C.ar    1  LIG1        0.0470
     25 C          -5.7886    1.0361    0.8734 C.ar    1  LIG1       -0.0003
     26 C          -7.0151    1.2810    0.1953 C.ar    1  LIG1       -0.0367
     27 C          -6.8443    0.9291   -1.1251 C.ar    1  LIG1        0.0027
     28 N          -5.5628    0.4721   -1.2731 N.ar    1  LIG1       -0.3606
     29 H          -5.1506    0.1465   -2.1365 H       1  LIG1        0.1653
     30 C          -5.3457    1.1916    2.1998 C.ar    1  LIG1       -0.0520
     31 C          -4.0228    0.8521    2.5280 C.ar    1  LIG1       -0.0539
     32 H           2.0665   -0.8279    3.0710 H       1  LIG1        0.0241
     33 H           0.4177   -1.4179    3.2340 H       1  LIG1        0.0241
     34 H           0.7810    0.2886    3.5513 H       1  LIG1        0.0241
     35 H           0.4380   -3.0904    1.4082 H       1  LIG1        0.0627
     36 H           1.0580   -5.6635    0.0166 H       1  LIG1        0.0638
     37 H           2.4438   -6.1197   -2.2811 H       1  LIG1        0.0807
     38 H           3.0791   -1.1667   -2.4114 H       1  LIG1        0.0641
     39 H           4.2653    0.6710   -0.4932 H       1  LIG1        0.0578
     40 H           1.6664    3.1974   -1.6302 H       1  LIG1        0.0274
     41 H           2.8449    3.8134   -2.7878 H       1  LIG1        0.0274
     42 H           2.8092    4.4424   -1.1282 H       1  LIG1        0.0274
     43 H           5.8596    2.1775   -1.2008 H       1  LIG1        0.0274
     44 H           5.3542    3.8556   -0.9720 H       1  LIG1        0.0274
     45 H           5.3329    3.1291   -2.5946 H       1  LIG1        0.0274
     46 H           1.2198    1.9393    1.1460 H       1  LIG1        0.0285
     47 H           2.5957    0.9561    1.6224 H       1  LIG1        0.0285
     48 H          -0.8639    0.4839    0.1060 H       1  LIG1        0.0581
     49 H          -1.6357   -0.3167    2.9724 H       1  LIG1        0.0621
     50 H          -2.9304   -0.2354   -0.5210 H       1  LIG1        0.0644
     51 H          -7.9246    1.6760    0.6280 H       1  LIG1        0.0638
     52 H          -7.5196    0.9628   -1.9689 H       1  LIG1        0.0807
     53 H          -6.0170    1.5766    2.9624 H       1  LIG1        0.0624
     54 H          -3.6951    0.9855    3.5567 H       1  LIG1        0.0624
@<TRIPOS>BOND
     1     2     3    1
     2     3     4   ar
     3     4     5   ar
     4     5     6   ar
     5     6     7   ar
     6     7     8   ar
     7     8     9    1
     8     5    10   ar
     9     8    10   ar
    10    10    11   ar
    11    11    12   ar
    12     3    12   ar
    13    12    13    1
    14    13    14    1
    15    13    15    1
    16    15    16    2
    17    16    17    1
    18    16    18    1
    19    13    19    1
    20     2    19    1
    21    20    21    2
    22    21    22    1
    23    22    23   ar
    24    23    24   ar
    25    24    25   ar
    26    25    26   ar
    27    26    27   ar
    28    27    28   ar
    29    24    28   ar
    30    28    29    1
    31    25    30   ar
    32    30    31   ar
    33    22    31   ar
    34     2    20    1
    35     2     1    1
    36     1    32    1
    37     1    33    1
    38     1    34    1
    39     4    35    1
    40     6    36    1
    41     7    37    1
    42    11    38    1
    43    15    39    1
    44    17    40    1
    45    17    41    1
    46    17    42    1
    47    18    43    1
    48    18    44    1
    49    18    45    1
    50    19    46    1
    51    19    47    1
    52    20    48    1
    53    21    49    1
    54    23    50    1
    55    26    51    1
    56    27    52    1
    57    30    53    1
    58    31    54    1
