@<TRIPOS>MOLECULE
NuBBE_1600
 81 85 0 0 0
SMALL
GASTEIGER

@<TRIPOS>ATOM
      1 C          -1.5720    1.5894   -1.3166 C.3     1  LIG1       -0.0482
      2 C          -0.4065    0.6125   -1.7025 C.3     1  LIG1        0.0627
      3 C          -0.1161   -0.6209   -0.7686 C.3     1  LIG1        0.0286
      4 H           0.0645   -1.4506   -1.4764 H       1  LIG1        0.0362
      5 C          -1.4463   -1.1540   -0.0645 C.3     1  LIG1        0.0200
      6 C          -1.1798   -2.4012    0.8051 C.3     1  LIG1       -0.0518
      7 C          -2.4730   -1.4680   -1.2195 C.2     1  LIG1        0.0093
      8 C          -2.1847   -1.1417   -2.5114 C.2     1  LIG1        0.1616
      9 C          -1.0311   -0.1790   -2.8867 C.2     1  LIG1        0.2073
     10 O          -0.7166   -0.0721   -4.0694 O.2     1  LIG1       -0.2879
     11 O          -2.9209   -1.6187   -3.5750 O.2     1  LIG1       -0.5034
     12 C          -3.8438   -2.0662   -0.7421 C.3     1  LIG1        0.1519
     13 C          -3.8301   -3.5868   -0.4584 C.2     1  LIG1        0.3247
     14 O          -4.7490   -4.2121    0.0632 O.2     1  LIG1       -0.2494
     15 O          -2.6768   -4.1841   -0.8703 O.3     1  LIG1       -0.4670
     16 C          -2.4713   -5.5159   -0.3825 C.3     1  LIG1        0.0817
     17 C          -5.0096   -1.8638   -1.7466 C.3     1  LIG1       -0.0382
     18 C          -4.3121   -1.2819    0.5211 C.2     1  LIG1        0.1765
     19 O          -5.4272   -1.4166    1.0298 O.2     1  LIG1       -0.2912
     20 C          -3.4193   -0.2740    1.1725 C.2     1  LIG1       -0.0209
     21 C          -2.1051   -0.2117    0.9109 C.2     1  LIG1       -0.0702
     22 C           1.2552   -0.7084   -0.0472 C.3     1  LIG1        0.1456
     23 H           1.0995   -1.1496    0.9300 H       1  LIG1        0.0775
     24 O           2.1338   -1.6336   -0.7923 O.3     1  LIG1       -0.4574
     25 C           2.0634   -2.9663   -0.4724 C.2     1  LIG1        0.3043
     26 O           1.3142   -3.4680    0.3218 O.2     1  LIG1       -0.2512
     27 C           3.0639   -3.7811   -1.2421 C.3     1  LIG1        0.0332
     28 C           2.0480    0.6087    0.1500 C.3     1  LIG1        0.1496
     29 H           3.0955    0.3285    0.3315 H       1  LIG1        0.0780
     30 C           2.0932    1.5445   -1.1033 C.3     1  LIG1        0.0375
     31 C           0.8002    1.5423   -1.9385 C.2     1  LIG1       -0.0495
     32 C           0.7555    2.6816   -2.6641 C.2     1  LIG1       -0.0826
     33 C           1.8512    3.6510   -2.3248 C.3     1  LIG1       -0.0266
     34 C           2.3644    3.1049   -0.9601 C.3     1  LIG1        0.0032
     35 H           3.4465    3.3029   -0.9083 H       1  LIG1        0.0362
     36 C           1.7843    3.8650    0.2119 C.ar    1  LIG1       -0.0054
     37 C           0.6037    4.6662    0.2831 C.ar    1  LIG1       -0.0204
     38 C           0.5394    5.1823    1.5557 C.ar    1  LIG1        0.0920
     39 O           1.6219    4.7958    2.2711 O.2     1  LIG1       -0.4708
     40 C           2.3858    4.0376    1.4451 C.ar    1  LIG1        0.0951
     41 C           3.2983    1.0488   -1.9992 C.3     1  LIG1       -0.0517
     42 O           1.6112    1.2326    1.3697 O.3     1  LIG1       -0.4565
     43 C           2.1299    0.6221    2.4929 C.2     1  LIG1        0.3101
     44 O           2.6603   -0.4698    2.5097 O.2     1  LIG1       -0.2505
     45 C           2.0032    1.5160    3.7064 C.3     1  LIG1        0.0508
     46 C           0.7320    1.1860    4.4600 C.3     1  LIG1       -0.0525
     47 C           3.2658    1.4167    4.5622 C.3     1  LIG1       -0.0525
     48 H          -2.5562    1.1213   -1.2332 H       1  LIG1        0.0242
     49 H          -1.7513    2.3309   -2.1075 H       1  LIG1        0.0242
     50 H          -1.3675    2.1366   -0.3924 H       1  LIG1        0.0242
     51 H          -0.8839   -3.2438    0.1856 H       1  LIG1        0.0241
     52 H          -2.0542   -2.7276    1.3819 H       1  LIG1        0.0241
     53 H          -0.4150   -2.2351    1.5686 H       1  LIG1        0.0241
     54 H          -2.4062   -1.3875   -4.3780 H       1  LIG1        0.2923
     55 H          -3.1765   -6.2052   -0.8517 H       1  LIG1        0.0661
     56 H          -2.5536   -5.5540    0.7106 H       1  LIG1        0.0661
     57 H          -1.4525   -5.8145   -0.6485 H       1  LIG1        0.0661
     58 H          -5.0757   -0.8218   -2.0808 H       1  LIG1        0.0248
     59 H          -5.9807   -2.1068   -1.2942 H       1  LIG1        0.0248
     60 H          -4.9257   -2.5211   -2.6180 H       1  LIG1        0.0248
     61 H          -3.8926    0.3638    1.9115 H       1  LIG1        0.0650
     62 H          -1.4865    0.4895    1.4662 H       1  LIG1        0.0582
     63 H           2.9482   -4.8282   -0.9240 H       1  LIG1        0.0342
     64 H           4.0722   -3.4623   -0.9898 H       1  LIG1        0.0342
     65 H           2.8656   -3.7305   -2.3114 H       1  LIG1        0.0342
     66 H          -0.0584    2.9808   -3.3134 H       1  LIG1        0.0572
     67 H           1.4773    4.6788   -2.2673 H       1  LIG1        0.0314
     68 H           2.6187    3.6316   -3.1048 H       1  LIG1        0.0314
     69 H          -0.1087    4.8666   -0.5043 H       1  LIG1        0.0652
     70 H          -0.1602    5.8257    2.0719 H       1  LIG1        0.1029
     71 H           3.2983    3.6600    1.8872 H       1  LIG1        0.1032
     72 H           3.0058    0.2834   -2.7199 H       1  LIG1        0.0239
     73 H           4.1254    0.6644   -1.3893 H       1  LIG1        0.0239
     74 H           3.7649    1.8628   -2.5719 H       1  LIG1        0.0239
     75 H           1.9258    2.5492    3.3837 H       1  LIG1        0.0408
     76 H           0.6575    0.1192    4.6875 H       1  LIG1        0.0237
     77 H          -0.1401    1.4626    3.8563 H       1  LIG1        0.0237
     78 H           0.6828    1.7545    5.3939 H       1  LIG1        0.0237
     79 H           3.7290    0.4250    4.5328 H       1  LIG1        0.0237
     80 H           3.0619    1.6665    5.6070 H       1  LIG1        0.0237
     81 H           4.0183    2.1260    4.1952 H       1  LIG1        0.0237
@<TRIPOS>BOND
     1     1     2    1
     2     2     3    1
     3     3     4    1
     4     3     5    1
     5     5     6    1
     6     5     7    1
     7     7     8    2
     8     8     9    1
     9     2     9    1
    10     9    10    2
    11     8    11    1
    12     7    12    1
    13    13    14    2
    14    13    15    1
    15    15    16    1
    16    12    18    1
    17    18    19    2
    18    18    20    1
    19    20    21    2
    20     5    21    1
    21     3    22    1
    22    22    23    1
    23    22    24    1
    24    24    25    1
    25    25    26    2
    26    25    27    1
    27    22    28    1
    28    28    30    1
    29    30    31    1
    30     2    31    1
    31    31    32    2
    32    32    33    1
    33    33    34    1
    34    34    35    1
    35    30    34    1
    36    34    36    1
    37    36    37   ar
    38    37    38   ar
    39    38    39   ar
    40    39    40   ar
    41    36    40   ar
    42    30    41    1
    43    42    43    1
    44    43    44    2
    45    43    45    1
    46    45    46    1
    47    45    47    1
    48    12    17    1
    49    12    13    1
    50    28    42    1
    51    28    29    1
    52     1    48    1
    53     1    49    1
    54     1    50    1
    55     6    51    1
    56     6    52    1
    57     6    53    1
    58    11    54    1
    59    16    55    1
    60    16    56    1
    61    16    57    1
    62    17    58    1
    63    17    59    1
    64    17    60    1
    65    20    61    1
    66    21    62    1
    67    27    63    1
    68    27    64    1
    69    27    65    1
    70    32    66    1
    71    33    67    1
    72    33    68    1
    73    37    69    1
    74    38    70    1
    75    40    71    1
    76    41    72    1
    77    41    73    1
    78    41    74    1
    79    45    75    1
    80    46    76    1
    81    46    77    1
    82    46    78    1
    83    47    79    1
    84    47    80    1
    85    47    81    1
