@<TRIPOS>MOLECULE
NuBBE_1474
 38 40 0 0 0
SMALL
GASTEIGER

@<TRIPOS>ATOM
      1 O          -3.2085    1.3313   -0.0762 O.3     1  LIG1       -0.5027
      2 C          -1.8442    1.1517   -0.0153 C.ar    1  LIG1        0.1755
      3 C          -1.0242    2.2971    0.0669 C.ar    1  LIG1        0.2079
      4 O          -1.7153    3.4830    0.1292 O.3     1  LIG1       -0.4884
      5 C          -1.1109    4.6367   -0.4330 C.3     1  LIG1        0.0791
      6 C           0.3778    2.1474    0.1461 C.ar    1  LIG1        0.2094
      7 O           1.1737    3.2640    0.1951 O.3     1  LIG1       -0.4884
      8 C           1.8553    3.4297    1.4393 C.3     1  LIG1        0.0791
      9 C           0.9429    0.8562    0.0934 C.ar    1  LIG1        0.1895
     10 C           0.1107   -0.2825    0.0418 C.ar    1  LIG1        0.1004
     11 C          -1.2808   -0.1296   -0.0486 C.ar    1  LIG1        0.0944
     12 C          -2.1266   -1.3515   -0.1759 C.ar    1  LIG1        0.2009
     13 C          -1.4792   -2.6894   -0.1586 C.ar    1  LIG1        0.0493
     14 C          -2.2407   -3.8607   -0.2487 C.ar    1  LIG1       -0.0487
     15 C          -1.6045   -5.1045   -0.2112 C.ar    1  LIG1       -0.0575
     16 C          -0.2147   -5.1784   -0.0901 C.ar    1  LIG1       -0.0181
     17 C           0.5328   -4.0037   -0.0130 C.ar    1  LIG1        0.1408
     18 O           1.8980   -4.0467    0.0933 O.3     1  LIG1       -0.5047
     19 C          -0.0873   -2.7500   -0.0347 C.ar    1  LIG1        0.0926
     20 N           0.6691   -1.5712   -0.0164 N.ar    1  LIG1       -0.3481
     21 O          -3.3405   -1.2455   -0.2887 O.2     1  LIG1       -0.2864
     22 O           2.2917    0.5812    0.1773 O.3     1  LIG1       -0.4895
     23 C           3.1272    1.3201   -0.7105 C.3     1  LIG1        0.0791
     24 H          -3.6348    0.4492   -0.1635 H       1  LIG1        0.2923
     25 H          -1.9148    5.3083   -0.7523 H       1  LIG1        0.0660
     26 H          -0.5042    4.4146   -1.3166 H       1  LIG1        0.0660
     27 H          -0.5315    5.1624    0.3313 H       1  LIG1        0.0660
     28 H           2.1979    2.4912    1.8856 H       1  LIG1        0.0660
     29 H           1.2214    3.9697    2.1468 H       1  LIG1        0.0660
     30 H           2.7403    4.0444    1.2394 H       1  LIG1        0.0660
     31 H          -3.3230   -3.8075   -0.3479 H       1  LIG1        0.0625
     32 H          -2.1937   -6.0166   -0.2765 H       1  LIG1        0.0619
     33 H           0.2640   -6.1527   -0.0584 H       1  LIG1        0.0655
     34 H           2.1866   -4.9701    0.0062 H       1  LIG1        0.2922
     35 H           1.6447   -1.6655    0.2510 H       1  LIG1        0.1661
     36 H           3.4545    2.2544   -0.2497 H       1  LIG1        0.0660
     37 H           2.6584    1.5065   -1.6815 H       1  LIG1        0.0660
     38 H           4.0325    0.7271   -0.8756 H       1  LIG1        0.0660
@<TRIPOS>BOND
     1     1     2    1
     2     2     3   ar
     3     3     4    1
     4     4     5    1
     5     3     6   ar
     6     6     7    1
     7     7     8    1
     8     6     9   ar
     9     9    10   ar
    10    10    11   ar
    11     2    11   ar
    12    11    12   ar
    13    12    13   ar
    14    13    14   ar
    15    14    15   ar
    16    15    16   ar
    17    16    17   ar
    18    17    18    1
    19    17    19   ar
    20    13    19   ar
    21    19    20   ar
    22    10    20   ar
    23    12    21    2
    24     9    22    1
    25    22    23    1
    26     1    24    1
    27     5    25    1
    28     5    26    1
    29     5    27    1
    30     8    28    1
    31     8    29    1
    32     8    30    1
    33    14    31    1
    34    15    32    1
    35    16    33    1
    36    18    34    1
    37    20    35    1
    38    23    36    1
    39    23    37    1
    40    23    38    1
