@<TRIPOS>MOLECULE
NuBBE_1300
 49 50 0 0 0
SMALL
GASTEIGER

@<TRIPOS>ATOM
      1 O           0.6553   -1.3786   -3.0614 O.2     1  LIG1       -0.2870
      2 C          -0.1025   -0.6619   -2.3465 C.2     1  LIG1        0.1931
      3 C           0.2511   -0.3460   -0.9359 C.2     1  LIG1       -0.0135
      4 C           1.4119   -0.8334   -0.3676 C.2     1  LIG1       -0.0507
      5 C           1.7770   -0.6273    1.0312 C.ar    1  LIG1       -0.0178
      6 C           3.1121   -0.5643    1.4255 C.ar    1  LIG1       -0.0089
      7 C           3.4837   -0.3809    2.7736 C.ar    1  LIG1        0.1657
      8 O           4.7907   -0.1827    3.1333 O.3     1  LIG1       -0.4913
      9 C           5.7958   -0.3103    2.1420 C.3     1  LIG1        0.0790
     10 C           2.5006   -0.3746    3.7912 C.ar    1  LIG1        0.2035
     11 C           1.1495   -0.5431    3.3982 C.ar    1  LIG1        0.1657
     12 O           0.1514   -0.7021    4.3458 O.3     1  LIG1       -0.4913
     13 C          -0.9723   -1.4688    3.8699 C.3     1  LIG1        0.0790
     14 C           0.8157   -0.5964    2.0342 C.ar    1  LIG1       -0.0089
     15 O           2.7560   -0.1924    5.1380 O.3     1  LIG1       -0.4885
     16 C           4.0576   -0.5337    5.6322 C.3     1  LIG1        0.0791
     17 C          -1.4100   -0.2397   -2.9120 C.ar    1  LIG1        0.1047
     18 C          -2.0206   -1.0651   -3.8885 C.ar    1  LIG1        0.1346
     19 C          -3.2630   -0.7733   -4.4568 C.ar    1  LIG1        0.0225
     20 C          -3.8940    0.4231   -4.1484 C.ar    1  LIG1        0.1271
     21 C          -3.3056    1.2535   -3.2071 C.ar    1  LIG1        0.0227
     22 C          -2.0976    0.9373   -2.5442 C.ar    1  LIG1        0.1379
     23 O          -1.5766    1.8223   -1.6402 O.3     1  LIG1       -0.4942
     24 C          -2.5572    2.6031   -0.9360 C.3     1  LIG1        0.0788
     25 O          -5.0753    0.7191   -4.7747 O.3     1  LIG1       -0.4949
     26 C          -5.3229    2.1173   -4.9672 C.3     1  LIG1        0.0788
     27 O          -1.4111   -2.2027   -4.3710 O.3     1  LIG1       -0.5058
     28 H          -0.4394    0.2244   -0.3526 H       1  LIG1        0.0656
     29 H           2.1027   -1.4238   -0.9654 H       1  LIG1        0.0625
     30 H           3.8646   -0.6402    0.6492 H       1  LIG1        0.0661
     31 H           5.6712    0.4436    1.3586 H       1  LIG1        0.0660
     32 H           5.8029   -1.3249    1.7318 H       1  LIG1        0.0660
     33 H           6.7623   -0.1346    2.6221 H       1  LIG1        0.0660
     34 H          -1.5842   -1.7986    4.7131 H       1  LIG1        0.0660
     35 H          -0.6426   -2.3686    3.3305 H       1  LIG1        0.0660
     36 H          -1.6213   -0.8600    3.2255 H       1  LIG1        0.0660
     37 H          -0.2210   -0.6686    1.7289 H       1  LIG1        0.0661
     38 H           4.2853   -1.5849    5.4210 H       1  LIG1        0.0660
     39 H           4.0758   -0.3982    6.7205 H       1  LIG1        0.0660
     40 H           4.8508    0.1293    5.2687 H       1  LIG1        0.0660
     41 H          -3.7081   -1.4582   -5.1758 H       1  LIG1        0.0691
     42 H          -3.8007    2.1837   -2.9721 H       1  LIG1        0.0691
     43 H          -2.0631    3.1339   -0.1199 H       1  LIG1        0.0660
     44 H          -3.3309    1.9533   -0.5084 H       1  LIG1        0.0660
     45 H          -3.0116    3.3710   -1.5757 H       1  LIG1        0.0660
     46 H          -6.2984    2.2383   -5.4465 H       1  LIG1        0.0660
     47 H          -4.5570    2.5517   -5.6198 H       1  LIG1        0.0660
     48 H          -5.3835    2.6734   -4.0253 H       1  LIG1        0.0660
     49 H          -0.4536   -2.1407   -4.1658 H       1  LIG1        0.2922
@<TRIPOS>BOND
     1     1     2    2
     2     2     3    1
     3     3     4    2
     4     4     5    1
     5     5     6   ar
     6     6     7   ar
     7     7     8    1
     8     8     9    1
     9     7    10   ar
    10    10    11   ar
    11    11    12    1
    12    12    13    1
    13    11    14   ar
    14     5    14   ar
    15    10    15    1
    16    15    16    1
    17     2    17    1
    18    17    18   ar
    19    18    19   ar
    20    19    20   ar
    21    20    21   ar
    22    21    22   ar
    23    17    22   ar
    24    22    23    1
    25    23    24    1
    26    20    25    1
    27    25    26    1
    28    18    27    1
    29     3    28    1
    30     4    29    1
    31     6    30    1
    32     9    31    1
    33     9    32    1
    34     9    33    1
    35    13    34    1
    36    13    35    1
    37    13    36    1
    38    14    37    1
    39    16    38    1
    40    16    39    1
    41    16    40    1
    42    19    41    1
    43    21    42    1
    44    24    43    1
    45    24    44    1
    46    24    45    1
    47    26    46    1
    48    26    47    1
    49    26    48    1
    50    27    49    1
