REMARK  Name = NuBBE_164
REMARK  5 active torsions:
REMARK  status: ('A' for Active; 'I' for Inactive)
REMARK    1  A    between atoms: C_1  and  O_2
REMARK    2  A    between atoms: O_2  and  C_3
REMARK    3  A    between atoms: C_8  and  O_9
REMARK    4  A    between atoms: O_9  and  C_10
REMARK    5  A    between atoms: C_13  and  O_23
REMARK                            x       y       z     vdW  Elec       q    Type
REMARK                         _______ _______ _______ _____ _____    ______ ____
ROOT
ATOM      1  C   LIG A   1      -1.547   1.433   1.872  0.00  0.00    +0.162 A 
ATOM      2  C   LIG A   1      -1.128   2.241   0.810  0.00  0.00    +0.053 A 
ATOM      3  C   LIG A   1      -0.434   1.699  -0.275  0.00  0.00    -0.037 A 
ATOM      4  C   LIG A   1      -0.137   0.323  -0.320  0.00  0.00    -0.016 A 
ATOM      5  C   LIG A   1      -0.597  -0.485   0.734  0.00  0.00    +0.055 A 
ATOM      6  C   LIG A   1      -1.285   0.055   1.835  0.00  0.00    +0.162 A 
ATOM      7  C   LIG A   1       0.703  -0.195  -1.505  0.00  0.00    +0.075 C 
ATOM      8  C   LIG A   1       2.217   0.056  -1.270  0.00  0.00    +0.067 C 
ATOM      9  C   LIG A   1       2.858  -0.949  -0.289  0.00  0.00    +0.140 C 
ATOM     10  C   LIG A   1       2.308  -2.344  -0.360  0.00  0.00    +0.004 C 
ATOM     11  C   LIG A   1       1.249  -2.684  -1.109  0.00  0.00    +0.004 C 
ATOM     12  C   LIG A   1       0.529  -1.670  -1.826  0.00  0.00    -0.026 C 
ATOM     13  C   LIG A   1      -0.240  -1.847  -2.902  0.00  0.00    -0.006 C 
ATOM     14  C   LIG A   1      -0.623  -0.524  -3.467  0.00  0.00    +0.113 C 
ATOM     15  N   LIG A   1       0.275   0.438  -2.795  0.00  0.00    -0.285 NA
ATOM     16  C   LIG A   1      -0.300   1.785  -2.734  0.00  0.00    +0.090 C 
ATOM     17  C   LIG A   1      -0.016   2.555  -1.441  0.00  0.00    +0.051 C 
ENDROOT
BRANCH   1  19
ATOM     18  C   LIG A   1      -2.146   1.623   4.167  0.00  0.00    +0.277 C 
ATOM     19  O   LIG A   1      -2.226   2.127   2.840  0.00  0.00    -0.491 OA
ENDBRANCH   1  19
BRANCH   6  20
ATOM     20  O   LIG A   1      -1.772  -0.732   2.846  0.00  0.00    -0.491 OA
ATOM     21  C   LIG A   1      -1.025  -1.906   3.147  0.00  0.00    +0.277 C 
ENDBRANCH   6  20
BRANCH   9  22
ATOM     22  O   LIG A   1       2.784  -0.515   1.063  0.00  0.00    -0.388 OA
ATOM     23  H   LIG A   1       1.911  -0.117   1.209  0.00  0.00    +0.210 HD
ENDBRANCH   9  22
TORSDOF 3
