@<TRIPOS>MOLECULE
NuBBE_1121
 86 89 0 0 0
SMALL
GASTEIGER

@<TRIPOS>ATOM
      1 C           2.2217    1.8394   -4.0804 C.3     1  LIG1       -0.0587
      2 C           1.8742    0.3390   -3.7534 C.3     1  LIG1       -0.0218
      3 C           0.9735    0.3979   -2.4458 C.3     1  LIG1       -0.0137
      4 H           0.5122    1.3986   -2.4865 H       1  LIG1        0.0351
      5 C           1.7363    0.4036   -1.1222 C.2     1  LIG1       -0.0634
      6 C           0.8834    0.6688    0.1534 C.3     1  LIG1       -0.0051
      7 C          -0.4615   -0.2137    0.1600 C.3     1  LIG1       -0.0199
      8 C          -1.7650    0.5957   -0.0150 C.3     1  LIG1       -0.0585
      9 C          -0.4168   -1.0781    1.4907 C.3     1  LIG1       -0.0322
     10 H          -0.7249   -2.1036    1.2364 H       1  LIG1        0.0309
     11 C          -1.3318   -0.6928    2.7088 C.3     1  LIG1       -0.0381
     12 H          -2.3574   -0.7204    2.3245 H       1  LIG1        0.0302
     13 C          -1.2474   -1.7691    3.8108 C.3     1  LIG1       -0.0621
     14 C          -1.0641    0.6803    3.3568 C.3     1  LIG1       -0.0215
     15 C          -2.0559    1.1458    4.4425 C.3     1  LIG1        0.0840
     16 H          -2.0097    0.4738    5.3043 H       1  LIG1        0.0620
     17 O          -1.5709    2.4253    4.8796 O.3     1  LIG1       -0.3891
     18 C          -3.5095    1.2925    3.9371 C.3     1  LIG1        0.1091
     19 H          -3.8138    0.3302    3.5098 H       1  LIG1        0.0648
     20 O          -3.5072    2.2666    2.8795 O.3     1  LIG1       -0.3864
     21 C          -4.5528    1.6710    5.0328 C.3     1  LIG1        0.0887
     22 O          -4.5337    0.6886    6.0764 O.3     1  LIG1       -0.3865
     23 C          -4.3443    3.0631    5.6424 C.3     1  LIG1       -0.0338
     24 C          -5.9634    1.6141    4.4266 C.3     1  LIG1       -0.0338
     25 C           1.0766   -1.1253    1.8208 C.3     1  LIG1       -0.0486
     26 C           1.5702    0.2673    1.4918 C.3     1  LIG1       -0.0431
     27 C          -0.4201   -1.2202   -1.0352 C.3     1  LIG1       -0.0460
     28 C          -0.2652   -0.5214   -2.3810 C.3     1  LIG1       -0.0455
     29 C           0.6521    2.1933    0.2042 C.3     1  LIG1       -0.0553
     30 C           3.0900    0.2651   -1.1045 C.2     1  LIG1       -0.0836
     31 C           3.9563    0.0980   -2.2993 C.3     1  LIG1       -0.0306
     32 C           3.2323   -0.4235   -3.5510 C.3     1  LIG1       -0.0242
     33 H           3.8689   -0.0796   -4.3801 H       1  LIG1        0.0315
     34 C           3.2006   -2.0025   -3.7095 C.3     1  LIG1       -0.0053
     35 C           3.6215   -2.7857   -2.4400 C.3     1  LIG1       -0.0572
     36 C           1.8018   -2.5161   -4.1130 C.3     1  LIG1        0.0606
     37 C           1.1359   -1.7024   -5.2143 C.3     1  LIG1       -0.0258
     38 C           1.1621   -0.1883   -5.0194 C.3     1  LIG1       -0.0444
     39 H           1.1834   -2.5315   -3.2158 H       1  LIG1        0.0599
     40 O           1.8511   -3.8818   -4.5373 O.3     1  LIG1       -0.3912
     41 C           4.2308   -2.3849   -4.8082 C.3     1  LIG1       -0.0572
     42 H           2.6491    2.3670   -3.2217 H       1  LIG1        0.0235
     43 H           1.3219    2.3900   -4.3815 H       1  LIG1        0.0235
     44 H           2.9390    1.9155   -4.9057 H       1  LIG1        0.0235
     45 H          -2.0109    1.2223    0.8386 H       1  LIG1        0.0235
     46 H          -2.6210   -0.0681   -0.1854 H       1  LIG1        0.0235
     47 H          -1.7105    1.2706   -0.8761 H       1  LIG1        0.0235
     48 H          -2.1038   -1.6955    4.4899 H       1  LIG1        0.0233
     49 H          -0.3422   -1.6536    4.4184 H       1  LIG1        0.0233
     50 H          -1.2489   -2.7804    3.3941 H       1  LIG1        0.0233
     51 H          -1.0107    1.4598    2.5974 H       1  LIG1        0.0294
     52 H          -0.0734    0.6758    3.8272 H       1  LIG1        0.0294
     53 H          -1.8021    3.0432    4.1569 H       1  LIG1        0.2099
     54 H          -4.3007    2.1049    2.3388 H       1  LIG1        0.2100
     55 H          -3.9287    0.9998    6.7748 H       1  LIG1        0.2102
     56 H          -3.4667    3.0930    6.2960 H       1  LIG1        0.0258
     57 H          -5.1925    3.3350    6.2814 H       1  LIG1        0.0258
     58 H          -4.2395    3.8348    4.8735 H       1  LIG1        0.0258
     59 H          -6.1614    0.6262    3.9946 H       1  LIG1        0.0258
     60 H          -6.1068    2.3696    3.6478 H       1  LIG1        0.0258
     61 H          -6.7254    1.7680    5.1991 H       1  LIG1        0.0258
     62 H           1.5810   -1.8586    1.1792 H       1  LIG1        0.0268
     63 H           1.2939   -1.4018    2.8551 H       1  LIG1        0.0268
     64 H           2.6622    0.2971    1.4973 H       1  LIG1        0.0274
     65 H           1.2886    0.9628    2.2833 H       1  LIG1        0.0274
     66 H          -1.3391   -1.8234   -1.0544 H       1  LIG1        0.0271
     67 H           0.3996   -1.9407   -0.9106 H       1  LIG1        0.0271
     68 H          -1.1568    0.0836   -2.5906 H       1  LIG1        0.0271
     69 H          -0.3091   -1.2687   -3.1683 H       1  LIG1        0.0271
     70 H           0.1510    2.5768   -0.6887 H       1  LIG1        0.0238
     71 H           1.6075    2.7254    0.2920 H       1  LIG1        0.0238
     72 H           0.0462    2.4925    1.0629 H       1  LIG1        0.0238
     73 H           3.6521    0.3329   -0.1839 H       1  LIG1        0.0572
     74 H           4.8231   -0.5290   -2.0484 H       1  LIG1        0.0310
     75 H           4.4030    1.0805   -2.5141 H       1  LIG1        0.0310
     76 H           2.9906   -2.5311   -1.5829 H       1  LIG1        0.0236
     77 H           4.6674   -2.6089   -2.1709 H       1  LIG1        0.0236
     78 H           3.5299   -3.8679   -2.5922 H       1  LIG1        0.0236
     79 H           0.0959   -2.0361   -5.3292 H       1  LIG1        0.0290
     80 H           1.5945   -1.9481   -6.1814 H       1  LIG1        0.0290
     81 H           0.1404    0.2105   -5.0715 H       1  LIG1        0.0272
     82 H           1.6631    0.2237   -5.9073 H       1  LIG1        0.0272
     83 H           0.9330   -4.1852   -4.6437 H       1  LIG1        0.2098
     84 H           3.9702   -1.9366   -5.7734 H       1  LIG1        0.0236
     85 H           4.2929   -3.4690   -4.9531 H       1  LIG1        0.0236
     86 H           5.2348   -2.0361   -4.5405 H       1  LIG1        0.0236
@<TRIPOS>BOND
     1     2     3    1
     2     3     5    1
     3     5     6    1
     4     6     7    1
     5     7     9    1
     6    11    12    1
     7    11    13    1
     8    11    14    1
     9    14    15    1
    10    15    16    1
    11    15    17    1
    12    18    20    1
    13    18    21    1
    14    21    22    1
    15    21    23    1
    16    21    24    1
    17     9    25    1
    18    25    26    1
    19     7    27    1
    20    27    28    1
    21     3    28    1
    22    26     6    1
    23     5    30    2
    24    30    31    1
    25    31    32    1
    26     2    32    1
    27    32    34    1
    28    34    36    1
    29    36    37    1
    30    37    38    1
    31     2    38    1
    32     1     2    1
    33     3     4    1
    34     6    29    1
    35     7     8    1
    36     9    10    1
    37     9    11    1
    38    32    33    1
    39    34    35    1
    40    34    41    1
    41    36    39    1
    42    36    40    1
    43    18    19    1
    44    18    15    1
    45     1    42    1
    46     1    43    1
    47     1    44    1
    48     8    45    1
    49     8    46    1
    50     8    47    1
    51    13    48    1
    52    13    49    1
    53    13    50    1
    54    14    51    1
    55    14    52    1
    56    17    53    1
    57    20    54    1
    58    22    55    1
    59    23    56    1
    60    23    57    1
    61    23    58    1
    62    24    59    1
    63    24    60    1
    64    24    61    1
    65    25    62    1
    66    25    63    1
    67    26    64    1
    68    26    65    1
    69    27    66    1
    70    27    67    1
    71    28    68    1
    72    28    69    1
    73    29    70    1
    74    29    71    1
    75    29    72    1
    76    30    73    1
    77    31    74    1
    78    31    75    1
    79    35    76    1
    80    35    77    1
    81    35    78    1
    82    37    79    1
    83    37    80    1
    84    38    81    1
    85    38    82    1
    86    40    83    1
    87    41    84    1
    88    41    85    1
    89    41    86    1
