@<TRIPOS>MOLECULE
NuBBE_1403
 39 40 0 0 0
SMALL
GASTEIGER

@<TRIPOS>ATOM
      1 C           0.7266    1.1518   -1.9233 C.3     1  LIG1       -0.0433
      2 C           0.2699    1.0290   -3.3829 C.3     1  LIG1       -0.0624
      3 C           2.2473    1.3243   -1.8783 C.3     1  LIG1       -0.0624
      4 C           0.1876   -0.0206   -1.0396 C.3     1  LIG1       -0.0316
      5 H          -0.9052   -0.0162   -1.1663 H       1  LIG1        0.0309
      6 C           0.4804    0.1529    0.4889 C.3     1  LIG1       -0.0131
      7 H           1.5694    0.1876    0.6284 H       1  LIG1        0.0352
      8 C          -0.0299   -1.0436    1.3435 C.3     1  LIG1       -0.0133
      9 H           0.4420   -0.9573    2.3347 H       1  LIG1        0.0351
     10 C           0.3710   -2.3764    0.7442 C.2     1  LIG1       -0.0729
     11 C           0.9765   -3.3323    1.4678 C.2     1  LIG1       -0.0992
     12 C           0.0854   -2.5495   -0.7210 C.3     1  LIG1       -0.0314
     13 C           0.6886   -1.3999   -1.5242 C.3     1  LIG1       -0.0457
     14 C          -1.5484   -0.9550    1.5622 C.3     1  LIG1       -0.0423
     15 C          -1.9257    0.3384    2.2884 C.3     1  LIG1       -0.0314
     16 C          -1.1507    1.5490    1.8312 C.2     1  LIG1       -0.0762
     17 C          -0.0807    1.4563    1.0211 C.2     1  LIG1       -0.0811
     18 C          -1.6386    2.8703    2.3531 C.3     1  LIG1       -0.0438
     19 H           0.2825    2.0842   -1.5538 H       1  LIG1        0.0298
     20 H           0.7740    0.2090   -3.9036 H       1  LIG1        0.0232
     21 H           0.4959    1.9503   -3.9313 H       1  LIG1        0.0232
     22 H          -0.8110    0.8657   -3.4429 H       1  LIG1        0.0232
     23 H           2.7689    0.4477   -2.2741 H       1  LIG1        0.0232
     24 H           2.6032    1.5067   -0.8606 H       1  LIG1        0.0232
     25 H           2.5508    2.1862   -2.4833 H       1  LIG1        0.0232
     26 H           1.1912   -3.1957    2.5235 H       1  LIG1        0.0534
     27 H           1.2721   -4.2790    1.0258 H       1  LIG1        0.0534
     28 H          -0.9986   -2.5894   -0.8810 H       1  LIG1        0.0310
     29 H           0.4909   -3.4972   -1.0953 H       1  LIG1        0.0310
     30 H           0.4279   -1.5545   -2.5764 H       1  LIG1        0.0271
     31 H           1.7820   -1.4502   -1.4548 H       1  LIG1        0.0271
     32 H          -1.9049   -1.8111    2.1487 H       1  LIG1        0.0274
     33 H          -2.0814   -0.9958    0.6041 H       1  LIG1        0.0274
     34 H          -1.7527    0.2074    3.3641 H       1  LIG1        0.0310
     35 H          -3.0005    0.5113    2.1561 H       1  LIG1        0.0310
     36 H           0.4506    2.3614    0.7335 H       1  LIG1        0.0575
     37 H          -1.6162    2.8772    3.4476 H       1  LIG1        0.0274
     38 H          -2.6669    3.0518    2.0242 H       1  LIG1        0.0274
     39 H          -1.0236    3.7054    2.0016 H       1  LIG1        0.0274
@<TRIPOS>BOND
     1     1     2    1
     2     1     3    1
     3     4     6    1
     4     6     7    1
     5     6     8    1
     6     8     9    1
     7     8    10    1
     8    10    11    2
     9    10    12    1
    10    12    13    1
    11     4    13    1
    12     8    14    1
    13    14    15    1
    14    15    16    1
    15    16    17    2
    16     6    17    1
    17    16    18    1
    18     4     5    1
    19     4     1    1
    20     1    19    1
    21     2    20    1
    22     2    21    1
    23     2    22    1
    24     3    23    1
    25     3    24    1
    26     3    25    1
    27    11    26    1
    28    11    27    1
    29    12    28    1
    30    12    29    1
    31    13    30    1
    32    13    31    1
    33    14    32    1
    34    14    33    1
    35    15    34    1
    36    15    35    1
    37    17    36    1
    38    18    37    1
    39    18    38    1
    40    18    39    1
