REMARK  Name = NuBBE_1328
REMARK  9 active torsions:
REMARK  status: ('A' for Active; 'I' for Inactive)
REMARK    1  A    between atoms: C_4  and  C_20
REMARK    2  A    between atoms: C_8  and  O_9
REMARK    3  A    between atoms: C_10  and  C_15
REMARK    4  A    between atoms: C_11  and  O_12
REMARK    5  A    between atoms: O_12  and  C_13
REMARK    6  A    between atoms: C_15  and  C_16
REMARK    7  A    between atoms: C_17  and  C_18
REMARK    8  A    between atoms: C_17  and  C_19
REMARK    9  A    between atoms: C_23  and  O_26
REMARK                            x       y       z     vdW  Elec       q    Type
REMARK                         _______ _______ _______ _____ _____    ______ ____
ROOT
ATOM      1  O   LIG A   1      -3.303  -1.456  -0.358  0.00  0.00    -0.292 OA
ATOM      2  C   LIG A   1      -2.107  -1.600  -0.092  0.00  0.00    +0.174 C 
ATOM      3  C   LIG A   1      -1.415  -2.924  -0.170  0.00  0.00    +0.129 C 
ATOM      4  C   LIG A   1      -0.311  -2.948   0.876  0.00  0.00    +0.211 C 
ATOM      5  O   LIG A   1       0.625  -1.874   0.685  0.00  0.00    -0.483 OA
ATOM      6  C   LIG A   1       0.056  -0.637   0.568  0.00  0.00    +0.139 A 
ATOM      7  C   LIG A   1      -1.278  -0.426   0.230  0.00  0.00    +0.101 A 
ATOM      8  C   LIG A   1      -1.783   0.879   0.159  0.00  0.00    +0.138 A 
ATOM      9  C   LIG A   1      -0.951   1.984   0.410  0.00  0.00    +0.040 A 
ATOM     10  C   LIG A   1       0.415   1.758   0.682  0.00  0.00    +0.131 A 
ATOM     11  C   LIG A   1       0.904   0.451   0.777  0.00  0.00    +0.092 A 
ENDROOT
BRANCH   4  12
ATOM     12  C   LIG A   1       0.450  -4.260   0.786  0.00  0.00    -0.007 A 
ATOM     13  C   LIG A   1       1.574  -4.388  -0.049  0.00  0.00    +0.011 A 
ATOM     14  C   LIG A   1       2.255  -5.601  -0.152  0.00  0.00    +0.046 A 
ATOM     15  C   LIG A   1       1.805  -6.697   0.573  0.00  0.00    +0.117 A 
ATOM     16  C   LIG A   1       0.689  -6.599   1.395  0.00  0.00    +0.046 A 
ATOM     17  C   LIG A   1       0.010  -5.384   1.503  0.00  0.00    +0.011 A 
BRANCH  15  18
ATOM     18  O   LIG A   1       2.439  -7.902   0.499  0.00  0.00    -0.507 OA
ATOM     19  H   LIG A   1       3.196  -7.814  -0.103  0.00  0.00    +0.292 HD
ENDBRANCH  15  18
ENDBRANCH   4  12
BRANCH   8  20
ATOM     20  O   LIG A   1      -3.096   1.116  -0.163  0.00  0.00    -0.505 OA
ATOM     21  H   LIG A   1      -3.536   0.255  -0.344  0.00  0.00    +0.292 HD
ENDBRANCH   8  20
BRANCH  10  22
ATOM     22  O   LIG A   1       1.190   2.866   0.914  0.00  0.00    -0.495 OA
ATOM     23  C   LIG A   1       2.561   2.768   0.541  0.00  0.00    +0.277 C 
ENDBRANCH  10  22
BRANCH   9  24
ATOM     24  C   LIG A   1      -1.502   3.396   0.365  0.00  0.00    +0.069 C 
BRANCH  24  25
ATOM     25  C   LIG A   1      -1.408   4.024  -1.002  0.00  0.00    -0.023 C 
ATOM     26  C   LIG A   1      -0.777   5.167  -1.342  0.00  0.00    -0.079 C 
ATOM     27  C   LIG A   1      -0.021   6.058  -0.394  0.00  0.00    +0.038 C 
ATOM     28  C   LIG A   1      -0.779   5.662  -2.764  0.00  0.00    +0.038 C 
ENDBRANCH  24  25
ENDBRANCH   9  24
TORSDOF 6
