@<TRIPOS>MOLECULE
NuBBE_2138
 25 25 0 0 0
SMALL
GASTEIGER

@<TRIPOS>ATOM
      1 C          -3.5526   -0.5567    1.0480 C.3     1  LIG1       -0.0650
      2 C          -2.0354   -0.4423    1.0314 C.3     1  LIG1       -0.0522
      3 C          -1.5299    0.1702   -0.2784 C.3     1  LIG1       -0.0320
      4 C          -0.0195    0.2658   -0.3449 C.2     1  LIG1       -0.0735
      5 C           0.6113    1.4460   -0.4736 C.2     1  LIG1       -0.0848
      6 C           2.1053    1.5973   -0.5360 C.3     1  LIG1       -0.0345
      7 C           2.8607    0.3284   -0.1421 C.3     1  LIG1       -0.0493
      8 C           2.2066   -0.9117   -0.7385 C.3     1  LIG1       -0.0491
      9 C           0.7473   -1.0378   -0.2965 C.3     1  LIG1       -0.0317
     10 H          -3.8923   -0.9369    2.0167 H       1  LIG1        0.0230
     11 H          -3.8998   -1.2485    0.2736 H       1  LIG1        0.0230
     12 H          -4.0257    0.4155    0.8790 H       1  LIG1        0.0230
     13 H          -1.6129   -1.4431    1.1771 H       1  LIG1        0.0266
     14 H          -1.7105    0.1722    1.8794 H       1  LIG1        0.0266
     15 H          -1.9760    1.1675   -0.3949 H       1  LIG1        0.0310
     16 H          -1.8838   -0.4234   -1.1298 H       1  LIG1        0.0310
     17 H           0.0370    2.3677   -0.5424 H       1  LIG1        0.0572
     18 H           2.4139    2.4146    0.1252 H       1  LIG1        0.0307
     19 H           2.3804    1.8893   -1.5562 H       1  LIG1        0.0307
     20 H           2.8832    0.2383    0.9512 H       1  LIG1        0.0268
     21 H           3.9027    0.4014   -0.4753 H       1  LIG1        0.0268
     22 H           2.7593   -1.8091   -0.4369 H       1  LIG1        0.0268
     23 H           2.2562   -0.8604   -1.8333 H       1  LIG1        0.0268
     24 H           0.7191   -1.4213    0.7309 H       1  LIG1        0.0310
     25 H           0.2555   -1.7830   -0.9336 H       1  LIG1        0.0310
@<TRIPOS>BOND
     1     1     2    1
     2     2     3    1
     3     3     4    1
     4     4     5    2
     5     5     6    1
     6     6     7    1
     7     7     8    1
     8     8     9    1
     9     4     9    1
    10     1    10    1
    11     1    11    1
    12     1    12    1
    13     2    13    1
    14     2    14    1
    15     3    15    1
    16     3    16    1
    17     5    17    1
    18     6    18    1
    19     6    19    1
    20     7    20    1
    21     7    21    1
    22     8    22    1
    23     8    23    1
    24     9    24    1
    25     9    25    1
