@<TRIPOS>MOLECULE
NuBBE_455
 62 62 0 0 0
SMALL
GASTEIGER

@<TRIPOS>ATOM
      1 O          -2.9679    3.2057    0.3670 O.3     1  LIG1       -0.3903
      2 C          -2.2252    3.3811   -0.8479 C.3     1  LIG1        0.0703
      3 H          -1.9258    4.4380   -0.8698 H       1  LIG1        0.0609
      4 C          -3.0967    3.0356   -2.0668 C.3     1  LIG1        0.0310
      5 H          -2.5803    3.3461   -2.9854 H       1  LIG1        0.0483
      6 N          -3.3395    1.5651   -2.0941 N.3     1  LIG1       -0.3083
      7 C          -2.1206    0.7980   -2.5022 C.3     1  LIG1        0.0080
      8 H          -2.0641    0.9077   -3.5945 H       1  LIG1        0.0460
      9 C          -0.8655    1.4964   -1.9614 C.3     1  LIG1       -0.0352
     10 C          -0.9993    2.4796   -0.7815 C.3     1  LIG1       -0.0240
     11 C          -2.2907   -0.7681   -2.3032 C.3     1  LIG1       -0.0375
     12 C          -1.1726   -1.9237   -2.5544 C.3     1  LIG1       -0.0516
     13 C           0.3216   -2.2887   -1.9292 C.3     1  LIG1       -0.0530
     14 C           1.4601   -1.2528   -1.6232 C.3     1  LIG1       -0.0531
     15 C           2.8859   -1.6459   -0.9881 C.3     1  LIG1       -0.0531
     16 C           3.3792   -2.2654    0.4131 C.3     1  LIG1       -0.0531
     17 C           3.3813   -1.5420    1.7562 C.3     1  LIG1       -0.0531
     18 C           3.7712   -2.0963    3.1572 C.3     1  LIG1       -0.0531
     19 C           3.3921   -1.0293    4.2525 C.3     1  LIG1       -0.0530
     20 C           1.8836   -0.6489    4.1040 C.3     1  LIG1       -0.0527
     21 C           1.6035    0.3108    2.8994 C.3     1  LIG1       -0.0464
     22 C           0.3111    0.2938    2.0515 C.3     1  LIG1        0.0055
     23 C          -0.6960   -0.8141    1.8809 C.2     1  LIG1        0.1303
     24 C          -1.2303   -1.1704    0.5712 C.3     1  LIG1       -0.0061
     25 O          -1.2992   -1.3206    2.9053 O.2     1  LIG1       -0.2977
     26 H          -4.0955    1.3715   -2.7532 H       1  LIG1        0.1225
     27 C          -4.4090    3.8176   -1.9856 C.3     1  LIG1       -0.0473
     28 H          -3.4378    2.3557    0.2582 H       1  LIG1        0.2098
     29 H          -0.4491    2.0775   -2.7942 H       1  LIG1        0.0281
     30 H          -0.1089    0.7717   -1.7306 H       1  LIG1        0.0281
     31 H          -0.1034    3.1157   -0.7768 H       1  LIG1        0.0291
     32 H          -0.9951    1.9565    0.1780 H       1  LIG1        0.0291
     33 H          -3.1060   -1.0141   -3.0215 H       1  LIG1        0.0280
     34 H          -2.8349   -0.9806   -1.3794 H       1  LIG1        0.0280
     35 H          -1.0810   -2.0167   -3.6460 H       1  LIG1        0.0266
     36 H          -1.7469   -2.8423   -2.2966 H       1  LIG1        0.0266
     37 H           0.7404   -2.9802   -2.6832 H       1  LIG1        0.0265
     38 H           0.2179   -2.9328   -1.0480 H       1  LIG1        0.0265
     39 H           1.1017   -0.4263   -1.0312 H       1  LIG1        0.0265
     40 H           1.6936   -0.8322   -2.6182 H       1  LIG1        0.0265
     41 H           3.5104   -0.7530   -1.1578 H       1  LIG1        0.0265
     42 H           3.2491   -2.4064   -1.6839 H       1  LIG1        0.0265
     43 H           4.4444   -2.4569    0.2583 H       1  LIG1        0.0265
     44 H           2.8460   -3.1993    0.5709 H       1  LIG1        0.0265
     45 H           2.3086   -1.4834    1.8653 H       1  LIG1        0.0265
     46 H           3.9420   -0.5983    1.6783 H       1  LIG1        0.0265
     47 H           4.8300   -2.3693    3.2450 H       1  LIG1        0.0265
     48 H           3.1846   -2.9998    3.3669 H       1  LIG1        0.0265
     49 H           4.0148   -0.1244    4.1849 H       1  LIG1        0.0265
     50 H           3.5971   -1.4363    5.2600 H       1  LIG1        0.0265
     51 H           1.5423   -0.1390    5.0131 H       1  LIG1        0.0265
     52 H           1.3458   -1.6053    4.0742 H       1  LIG1        0.0265
     53 H           2.3659    0.3033    2.1232 H       1  LIG1        0.0269
     54 H           1.8677    1.3181    3.2301 H       1  LIG1        0.0269
     55 H           0.6438    0.4940    1.0180 H       1  LIG1        0.0341
     56 H          -0.2666    1.1746    2.3460 H       1  LIG1        0.0341
     57 H          -0.6092   -0.7327   -0.2184 H       1  LIG1        0.0306
     58 H          -2.2185   -0.7431    0.4187 H       1  LIG1        0.0306
     59 H          -1.2758   -2.2577    0.3734 H       1  LIG1        0.0306
     60 H          -4.9988    3.5391   -1.1059 H       1  LIG1        0.0245
     61 H          -5.0219    3.6496   -2.8743 H       1  LIG1        0.0245
     62 H          -4.2032    4.8937   -1.9143 H       1  LIG1        0.0245
@<TRIPOS>BOND
     1     2     4    1
     2     4     6    1
     3     6     7    1
     4     7     8    1
     5     7     9    1
     6     9    10    1
     7     2    10    1
     8     7    11    1
     9    11    12    1
    10    12    13    1
    11    13    14    1
    12    14    15    1
    13    15    16    1
    14    16    17    1
    15    17    18    1
    16    18    19    1
    17    19    20    1
    18    20    21    1
    19    21    22    1
    20    22    23    1
    21    23    24    1
    22    23    25    2
    23     6    26    1
    24     2     3    1
    25     2     1    1
    26     4    27    1
    27     4     5    1
    28     1    28    1
    29     9    29    1
    30     9    30    1
    31    10    31    1
    32    10    32    1
    33    11    33    1
    34    11    34    1
    35    12    35    1
    36    12    36    1
    37    13    37    1
    38    13    38    1
    39    14    39    1
    40    14    40    1
    41    15    41    1
    42    15    42    1
    43    16    43    1
    44    16    44    1
    45    17    45    1
    46    17    46    1
    47    18    47    1
    48    18    48    1
    49    19    49    1
    50    19    50    1
    51    20    51    1
    52    20    52    1
    53    21    53    1
    54    21    54    1
    55    22    55    1
    56    22    56    1
    57    24    57    1
    58    24    58    1
    59    24    59    1
    60    27    60    1
    61    27    61    1
    62    27    62    1
