@<TRIPOS>MOLECULE
NuBBE_1139
 55 59 0 0 0
SMALL
GASTEIGER

@<TRIPOS>ATOM
      1 C          -5.9937    0.8213   -1.8415 C.3     1  LIG1       -0.0440
      2 C          -4.5379    0.9064   -2.2262 C.2     1  LIG1       -0.0790
      3 C          -4.3006    1.1511   -3.6878 C.3     1  LIG1       -0.0440
      4 C          -3.5731    0.7538   -1.2944 C.2     1  LIG1       -0.0778
      5 C          -2.0805    0.7359   -1.4993 C.3     1  LIG1        0.0039
      6 H          -1.8184    0.8615   -2.5541 H       1  LIG1        0.0392
      7 C          -1.4240   -0.5767   -1.0031 C.3     1  LIG1       -0.0274
      8 C          -1.3482    1.7855   -0.7072 C.ar    1  LIG1       -0.0345
      9 C          -1.4390    3.1639   -0.8939 C.ar    1  LIG1       -0.0338
     10 C          -0.6697    3.9612   -0.0358 C.ar    1  LIG1        0.0468
     11 C           0.1513    3.4334    0.9657 C.ar    1  LIG1       -0.0001
     12 C           0.7548    4.5353    1.6341 C.ar    1  LIG1       -0.0367
     13 C           0.3087    5.6894    1.0322 C.ar    1  LIG1        0.0027
     14 N          -0.5465    5.3322    0.0239 N.ar    1  LIG1       -0.3606
     15 H          -1.0230    5.9761   -0.5921 H       1  LIG1        0.1653
     16 C           0.2289    2.0347    1.1283 C.ar    1  LIG1       -0.0482
     17 C          -0.5259    1.2265    0.2747 C.ar    1  LIG1       -0.0308
     18 C          -0.6240   -0.2904    0.3070 C.3     1  LIG1        0.0382
     19 C          -1.3982   -0.7493    1.5714 C.3     1  LIG1        0.0573
     20 O          -2.7229   -0.2415    1.6660 O.3     1  LIG1       -0.3938
     21 C           0.7599   -0.9265    0.2173 C.2     1  LIG1       -0.0708
     22 C           1.3295   -1.7552    1.1201 C.2     1  LIG1       -0.0576
     23 C           2.6784   -2.3188    0.9849 C.ar    1  LIG1       -0.0246
     24 C           3.7016   -1.6161    0.3400 C.ar    1  LIG1       -0.0526
     25 C           4.9876   -2.1431    0.2134 C.ar    1  LIG1       -0.0372
     26 C           5.2305   -3.3946    0.7829 C.ar    1  LIG1        0.0465
     27 C           4.2509   -4.1179    1.4609 C.ar    1  LIG1        0.0002
     28 C           4.8583   -5.3259    1.9054 C.ar    1  LIG1       -0.0366
     29 C           6.1718   -5.3115    1.4930 C.ar    1  LIG1        0.0027
     30 N           6.3843   -4.1416    0.8145 N.ar    1  LIG1       -0.3606
     31 H           7.2591   -3.8573    0.3961 H       1  LIG1        0.1653
     32 C           2.9558   -3.5694    1.5700 C.ar    1  LIG1       -0.0454
     33 H          -6.4929    0.0406   -2.4260 H       1  LIG1        0.0274
     34 H          -6.4941    1.7755   -2.0363 H       1  LIG1        0.0274
     35 H          -6.1347    0.5795   -0.7826 H       1  LIG1        0.0274
     36 H          -4.9297    1.9773   -4.0376 H       1  LIG1        0.0274
     37 H          -4.5549    0.2559   -4.2647 H       1  LIG1        0.0274
     38 H          -3.2701    1.4251   -3.9214 H       1  LIG1        0.0274
     39 H          -3.8992    0.5893   -0.2707 H       1  LIG1        0.0578
     40 H          -0.7499   -0.9270   -1.7993 H       1  LIG1        0.0286
     41 H          -2.1526   -1.3864   -0.8703 H       1  LIG1        0.0286
     42 H          -2.0753    3.5938   -1.6598 H       1  LIG1        0.0641
     43 H           1.4440    4.4846    2.4667 H       1  LIG1        0.0638
     44 H           0.5262    6.7298    1.2330 H       1  LIG1        0.0807
     45 H           0.8594    1.6044    1.8998 H       1  LIG1        0.0627
     46 H          -0.8704   -0.4490    2.4848 H       1  LIG1        0.0569
     47 H          -1.4811   -1.8423    1.5813 H       1  LIG1        0.0569
     48 H          -2.6449    0.7299    1.6982 H       1  LIG1        0.2094
     49 H           1.3201   -0.6606   -0.6776 H       1  LIG1        0.0582
     50 H           0.8029   -2.0586    2.0182 H       1  LIG1        0.0621
     51 H           3.5113   -0.6294   -0.0760 H       1  LIG1        0.0624
     52 H           5.7621   -1.5900   -0.3066 H       1  LIG1        0.0638
     53 H           4.3837   -6.1207    2.4655 H       1  LIG1        0.0638
     54 H           6.9706   -6.0290    1.6218 H       1  LIG1        0.0807
     55 H           2.1838   -4.1249    2.0931 H       1  LIG1        0.0630
@<TRIPOS>BOND
     1     1     2    1
     2     2     3    1
     3     2     4    2
     4     4     5    1
     5     5     6    1
     6     5     7    1
     7     5     8    1
     8     8     9   ar
     9     9    10   ar
    10    10    11   ar
    11    11    12   ar
    12    12    13   ar
    13    13    14   ar
    14    10    14   ar
    15    14    15    1
    16    11    16   ar
    17    16    17   ar
    18     8    17   ar
    19    17    18    1
    20    18    19    1
    21    19    20    1
    22     7    18    1
    23    18    21    1
    24    21    22    2
    25    22    23    1
    26    23    24   ar
    27    24    25   ar
    28    25    26   ar
    29    26    27   ar
    30    27    28   ar
    31    28    29   ar
    32    29    30   ar
    33    26    30   ar
    34    30    31    1
    35    27    32   ar
    36    23    32   ar
    37     1    33    1
    38     1    34    1
    39     1    35    1
    40     3    36    1
    41     3    37    1
    42     3    38    1
    43     4    39    1
    44     7    40    1
    45     7    41    1
    46     9    42    1
    47    12    43    1
    48    13    44    1
    49    16    45    1
    50    19    46    1
    51    19    47    1
    52    20    48    1
    53    21    49    1
    54    22    50    1
    55    24    51    1
    56    25    52    1
    57    28    53    1
    58    29    54    1
    59    32    55    1
