@<TRIPOS>MOLECULE
NuBBE_224
 96 98 0 0 0
SMALL
GASTEIGER

@<TRIPOS>ATOM
      1 C          -0.1836    0.5859    2.1356 C.3     1  LIG1       -0.0584
      2 C           0.3193    0.5376    0.6949 C.3     1  LIG1        0.0018
      3 H          -0.0920    1.4608    0.2624 H       1  LIG1        0.0340
      4 C          -0.3938   -0.5961   -0.0654 C.3     1  LIG1        0.1328
      5 H          -1.2033   -0.9660    0.6354 H       1  LIG1        0.0763
      6 O          -1.0768   -0.0789   -1.2114 O.3     1  LIG1       -0.4584
      7 C          -2.2746    0.4087   -0.9474 C.2     1  LIG1        0.3074
      8 C          -2.9834    1.0441   -2.1140 C.3     1  LIG1        0.0450
      9 C          -3.9678    2.1976   -1.7265 C.3     1  LIG1       -0.0430
     10 C          -3.3002    3.5121   -1.3194 C.3     1  LIG1       -0.0526
     11 C          -4.3185    4.5448   -0.7600 C.3     1  LIG1       -0.0530
     12 C          -4.9522    4.1824    0.6130 C.3     1  LIG1       -0.0531
     13 C          -3.8392    4.2174    1.6759 C.3     1  LIG1       -0.0531
     14 C          -3.9928    3.5799    3.0703 C.3     1  LIG1       -0.0533
     15 C          -4.6716    2.2195    3.2359 C.3     1  LIG1       -0.0559
     16 C          -4.0357    1.1288    2.4033 C.3     1  LIG1       -0.0653
     17 O          -2.8511    0.3187    0.2442 O.2     1  LIG1       -0.2508
     18 C           0.3967   -1.8606   -0.2422 C.3     1  LIG1        0.1077
     19 H          -0.2943   -2.5996   -0.6615 H       1  LIG1        0.0641
     20 O           0.7618   -2.3741    1.0529 O.3     1  LIG1       -0.3870
     21 C           1.6576   -1.7317   -1.1314 C.3     1  LIG1        0.0915
     22 C           1.4326   -2.0026   -2.6218 C.2     1  LIG1       -0.0009
     23 C           0.8806   -3.4176   -2.7736 C.3     1  LIG1        0.1862
     24 H          -0.2067   -3.4212   -2.6171 H       1  LIG1        0.0962
     25 O           1.1554   -3.9428   -4.0651 O.3     1  LIG1       -0.3476
     26 C           0.5561   -5.1867   -4.4122 C.3     1  LIG1        0.0482
     27 C           1.1123   -6.3993   -3.6834 C.3     1  LIG1       -0.0415
     28 O           1.5354   -4.1126   -1.7070 O.3     1  LIG1       -0.3076
     29 C           2.3722   -3.1588   -0.9993 C.3     1  LIG1        0.2196
     30 H           2.4015   -3.5230    0.0300 H       1  LIG1        0.1068
     31 O           3.7664   -3.1369   -1.3905 O.3     1  LIG1       -0.4341
     32 C           4.1443   -3.4240   -2.6760 C.2     1  LIG1        0.3061
     33 C           5.1653   -2.4213   -3.0967 C.3     1  LIG1        0.0333
     34 O           3.7084   -4.2760   -3.4468 O.2     1  LIG1       -0.2511
     35 C           2.0584   -1.3372   -3.6112 C.2     1  LIG1       -0.0511
     36 C           2.7638   -0.0358   -3.4461 C.3     1  LIG1        0.0741
     37 H           2.1055    0.7348   -3.8608 H       1  LIG1        0.0638
     38 O           3.9242    0.0067   -4.2916 O.3     1  LIG1       -0.3877
     39 C           3.1639    0.3540   -1.9863 C.3     1  LIG1       -0.0188
     40 C           2.4917   -0.3867   -0.7450 C.3     1  LIG1       -0.0146
     41 H           3.3830   -0.8090   -0.2571 H       1  LIG1        0.0318
     42 C           1.8931    0.5956    0.5584 C.3     1  LIG1       -0.0186
     43 C           2.1556    2.1444    0.4534 C.3     1  LIG1       -0.0586
     44 C           2.7066    0.1533    1.9164 C.3     1  LIG1       -0.0282
     45 C           2.5541    0.8257    3.3114 C.2     1  LIG1       -0.0806
     46 C           1.9552    0.4423    4.4752 C.2     1  LIG1       -0.0549
     47 C           1.2004   -0.7969    4.6625 C.2     1  LIG1       -0.0662
     48 C           0.1087   -0.9255    5.4394 C.2     1  LIG1       -0.0985
     49 C           2.0267    1.3329    5.7105 C.3     1  LIG1       -0.0400
     50 H           0.0779   -0.3422    2.6331 H       1  LIG1        0.0234
     51 H          -1.2669    0.6364    2.1867 H       1  LIG1        0.0234
     52 H           0.1700    1.4642    2.6812 H       1  LIG1        0.0234
     53 H          -3.6126    0.2328   -2.5337 H       1  LIG1        0.0377
     54 H          -2.3064    1.3797   -2.9246 H       1  LIG1        0.0377
     55 H          -4.6110    1.8507   -0.9007 H       1  LIG1        0.0270
     56 H          -4.6243    2.3998   -2.5677 H       1  LIG1        0.0270
     57 H          -2.8068    3.9566   -2.1945 H       1  LIG1        0.0265
     58 H          -2.4948    3.3187   -0.6056 H       1  LIG1        0.0265
     59 H          -5.1070    4.7228   -1.5034 H       1  LIG1        0.0265
     60 H          -3.7971    5.5059   -0.6420 H       1  LIG1        0.0265
     61 H          -5.4892    3.2279    0.5479 H       1  LIG1        0.0265
     62 H          -5.7238    4.9333    0.8498 H       1  LIG1        0.0265
     63 H          -3.5564    5.2745    1.8122 H       1  LIG1        0.0265
     64 H          -2.9395    3.7686    1.2560 H       1  LIG1        0.0265
     65 H          -4.5080    4.2750    3.7359 H       1  LIG1        0.0265
     66 H          -2.9652    3.4879    3.4607 H       1  LIG1        0.0265
     67 H          -5.7186    2.3121    2.9447 H       1  LIG1        0.0263
     68 H          -4.6368    1.9187    4.2924 H       1  LIG1        0.0263
     69 H          -4.7241    0.2933    2.2382 H       1  LIG1        0.0230
     70 H          -3.7829    1.5686    1.4440 H       1  LIG1        0.0230
     71 H          -3.1411    0.7239    2.8714 H       1  LIG1        0.0230
     72 H          -0.0530   -2.6582    1.5057 H       1  LIG1        0.2100
     73 H           0.7715   -5.3307   -5.4779 H       1  LIG1        0.0558
     74 H          -0.5367   -5.1369   -4.3253 H       1  LIG1        0.0558
     75 H           2.1425   -6.6074   -3.9967 H       1  LIG1        0.0252
     76 H           0.5039   -7.2806   -3.9151 H       1  LIG1        0.0252
     77 H           1.1264   -6.2719   -2.6005 H       1  LIG1        0.0252
     78 H           5.1771   -1.6092   -2.3664 H       1  LIG1        0.0342
     79 H           4.8383   -2.0344   -4.0612 H       1  LIG1        0.0342
     80 H           6.1644   -2.8516   -3.1842 H       1  LIG1        0.0342
     81 H           2.1406   -1.8504   -4.5870 H       1  LIG1        0.0599
     82 H           3.7700   -0.5217   -5.0996 H       1  LIG1        0.2102
     83 H           3.0836    1.4473   -1.9113 H       1  LIG1        0.0296
     84 H           4.2547    0.2050   -1.8948 H       1  LIG1        0.0296
     85 H           1.5458    2.6313   -0.3208 H       1  LIG1        0.0235
     86 H           3.2007    2.4157    0.2932 H       1  LIG1        0.0235
     87 H           1.8465    2.6362    1.3939 H       1  LIG1        0.0235
     88 H           2.6521   -0.9311    2.0290 H       1  LIG1        0.0313
     89 H           3.7617    0.3627    1.6685 H       1  LIG1        0.0313
     90 H           3.0832    1.7822    3.3610 H       1  LIG1        0.0575
     91 H           1.4946   -1.6496    4.0538 H       1  LIG1        0.0614
     92 H          -0.3267   -0.1020    5.9991 H       1  LIG1        0.0535
     93 H          -0.4386   -1.8612    5.5042 H       1  LIG1        0.0535
     94 H           2.1409    2.3916    5.4532 H       1  LIG1        0.0277
     95 H           2.8689    1.0221    6.3390 H       1  LIG1        0.0277
     96 H           1.1330    1.2862    6.3444 H       1  LIG1        0.0277
@<TRIPOS>BOND
     1     2     4    1
     2     6     7    1
     3     7     8    1
     4     8     9    1
     5     9    10    1
     6    10    11    1
     7    11    12    1
     8    12    13    1
     9    13    14    1
    10    14    15    1
    11    15    16    1
    12     7    17    2
    13     4    18    1
    14    18    21    1
    15    21    22    1
    16    22    23    1
    17    25    26    1
    18    26    27    1
    19    23    28    1
    20    28    29    1
    21    21    29    1
    22    31    32    1
    23    32    33    1
    24    32    34    2
    25    22    35    2
    26    35    36    1
    27    36    39    1
    28    39    40    1
    29    21    40    1
    30    40    42    1
    31     2    42    1
    32    44    45    1
    33    45    46    2
    34    46    47    1
    35    47    48    2
    36    46    49    1
    37    18    19    1
    38    18    20    1
    39    23    24    1
    40    23    25    1
    41    29    30    1
    42    29    31    1
    43    40    41    1
    44    42    43    1
    45    42    44    1
    46     4     6    1
    47     4     5    1
    48     2     3    1
    49     2     1    1
    50    36    38    1
    51    36    37    1
    52     1    50    1
    53     1    51    1
    54     1    52    1
    55     8    53    1
    56     8    54    1
    57     9    55    1
    58     9    56    1
    59    10    57    1
    60    10    58    1
    61    11    59    1
    62    11    60    1
    63    12    61    1
    64    12    62    1
    65    13    63    1
    66    13    64    1
    67    14    65    1
    68    14    66    1
    69    15    67    1
    70    15    68    1
    71    16    69    1
    72    16    70    1
    73    16    71    1
    74    20    72    1
    75    26    73    1
    76    26    74    1
    77    27    75    1
    78    27    76    1
    79    27    77    1
    80    33    78    1
    81    33    79    1
    82    33    80    1
    83    35    81    1
    84    38    82    1
    85    39    83    1
    86    39    84    1
    87    43    85    1
    88    43    86    1
    89    43    87    1
    90    44    88    1
    91    44    89    1
    92    45    90    1
    93    47    91    1
    94    48    92    1
    95    48    93    1
    96    49    94    1
    97    49    95    1
    98    49    96    1
