REMARK  Name = NuBBE_1144
REMARK  7 active torsions:
REMARK  status: ('A' for Active; 'I' for Inactive)
REMARK    1  A    between atoms: C_5  and  C_6
REMARK    2  A    between atoms: C_10  and  C_11
REMARK    3  A    between atoms: C_17  and  C_18
REMARK    4  A    between atoms: C_18  and  C_19
REMARK    5  A    between atoms: C_19  and  O_20
REMARK    6  A    between atoms: O_20  and  C_21
REMARK    7  A    between atoms: C_26  and  C_28
REMARK                            x       y       z     vdW  Elec       q    Type
REMARK                         _______ _______ _______ _____ _____    ______ ____
ROOT
ATOM      1  O   LIG A   1      -4.249  -1.399   1.748  0.00  0.00    -0.251 OA
ATOM      2  C   LIG A   1      -3.533  -0.595   1.159  0.00  0.00    +0.311 C 
ATOM      3  C   LIG A   1      -2.193  -1.002   0.621  0.00  0.00    +0.161 C 
ATOM      4  C   LIG A   1      -1.138   0.113   0.518  0.00  0.00    +0.110 C 
ATOM      5  C   LIG A   1      -1.704   1.562   0.762  0.00  0.00    +0.043 C 
ATOM      6  C   LIG A   1      -1.710   1.882   2.282  0.00  0.00    +0.018 C 
ATOM      7  C   LIG A   1      -0.808   2.622   0.026  0.00  0.00    +0.014 C 
ATOM      8  C   LIG A   1       0.678   2.223  -0.041  0.00  0.00    +0.009 C 
ATOM      9  C   LIG A   1       0.951   0.811  -0.675  0.00  0.00    +0.026 C 
ATOM     10  C   LIG A   1       1.874  -0.159   0.176  0.00  0.00    +0.005 C 
ATOM     11  C   LIG A   1       2.889   0.704   0.990  0.00  0.00    +0.014 C 
ATOM     12  C   LIG A   1       0.934  -0.997   1.089  0.00  0.00    +0.133 C 
ATOM     13  O   LIG A   1      -0.133  -0.168   1.556  0.00  0.00    -0.364 OA
ATOM     14  C   LIG A   1       1.694  -1.685   2.205  0.00  0.00    +0.106 C 
ATOM     15  C   LIG A   1       2.702  -2.626   1.578  0.00  0.00    +0.136 C 
ATOM     16  C   LIG A   1       3.471  -2.183   0.334  0.00  0.00    +0.079 C 
ATOM     17  C   LIG A   1       2.727  -1.219  -0.641  0.00  0.00    +0.016 C 
ATOM     18  O   LIG A   1       2.999  -3.683   2.140  0.00  0.00    -0.297 OA
ATOM     19  C   LIG A   1      -0.417   0.173  -0.845  0.00  0.00    -0.040 C 
ATOM     20  C   LIG A   1      -0.919  -0.139  -2.052  0.00  0.00    +0.011 C 
ATOM     21  C   LIG A   1      -3.144   1.583   0.175  0.00  0.00    +0.218 C 
ATOM     22  O   LIG A   1      -3.972   0.648   0.891  0.00  0.00    -0.456 OA
ENDROOT
BRANCH  21  23
ATOM     23  C   LIG A   1      -3.822   2.933   0.162  0.00  0.00    +0.031 A 
ATOM     24  C   LIG A   1      -3.826   3.870  -0.858  0.00  0.00    +0.202 A 
ATOM     25  O   LIG A   1      -4.564   4.958  -0.522  0.00  0.00    -0.471 OA
ATOM     26  C   LIG A   1      -5.064   4.728   0.717  0.00  0.00    +0.195 A 
ATOM     27  C   LIG A   1      -4.649   3.502   1.177  0.00  0.00    +0.048 A 
ENDBRANCH  21  23
BRANCH  17  28
ATOM     28  C   LIG A   1       1.943  -2.021  -1.709  0.00  0.00    +0.125 C 
BRANCH  28  29
ATOM     29  C   LIG A   1       2.821  -2.921  -2.567  0.00  0.00    +0.307 C 
ATOM     30  O   LIG A   1       3.749  -2.528  -3.251  0.00  0.00    -0.251 OA
BRANCH  29  31
ATOM     31  O   LIG A   1       2.422  -4.218  -2.427  0.00  0.00    -0.468 OA
ATOM     32  C   LIG A   1       3.248  -5.186  -3.079  0.00  0.00    +0.280 C 
ENDBRANCH  29  31
ENDBRANCH  28  29
ENDBRANCH  17  28
TORSDOF 4
