@<TRIPOS>MOLECULE
NuBBE_1552
 77 82 0 0 0
SMALL
GASTEIGER

@<TRIPOS>ATOM
      1 O          -2.4612    0.6287    0.3626 O.3     1  LIG1       -0.3828
      2 C          -1.4605    0.6530   -0.6860 C.3     1  LIG1        0.1256
      3 C          -1.9634   -0.4840   -1.7428 C.3     1  LIG1        0.1001
      4 H          -3.0440   -0.3292   -1.8619 H       1  LIG1        0.0631
      5 O          -1.4761   -0.3256   -3.0678 O.3     1  LIG1       -0.3880
      6 C          -1.8322   -1.9481   -1.2123 C.3     1  LIG1        0.0870
      7 C          -0.7842   -1.8863   -0.2077 C.3     1  LIG1        0.1323
      8 C           0.3746   -1.7642   -1.5848 C.3     1  LIG1        0.0010
      9 C           0.7557   -3.0843   -1.1785 C.3     1  LIG1        0.0366
     10 C           1.3884   -2.2343    0.1894 C.3     1  LIG1        0.0171
     11 H           2.2471   -1.6179   -0.1320 H       1  LIG1        0.0347
     12 C           1.9794   -3.1353    1.2951 C.3     1  LIG1        0.1558
     13 H           2.2353   -2.4749    2.1359 H       1  LIG1        0.0713
     14 O           1.0574   -4.1044    1.7499 O.3     1  LIG1       -0.3803
     15 C           3.3213   -3.8310    0.9679 C.2     1  LIG1        0.3361
     16 O           3.6745   -4.5384    2.0977 O.3     1  LIG1       -0.4661
     17 C           5.0717   -4.7971    2.2475 C.3     1  LIG1        0.0817
     18 O           3.9873   -3.7239   -0.0303 O.2     1  LIG1       -0.2479
     19 C           1.7481   -3.7799   -2.0733 C.3     1  LIG1       -0.0523
     20 C          -0.9032   -3.2356   -1.7242 C.2     1  LIG1        0.1491
     21 O          -1.3180   -4.1455   -2.4328 O.2     1  LIG1       -0.2963
     22 O          -0.9712   -3.1752    0.5603 O.3     1  LIG1       -0.4568
     23 C          -1.9331   -3.3233    1.5135 C.2     1  LIG1        0.3045
     24 C          -1.8293   -4.6679    2.1816 C.3     1  LIG1        0.0333
     25 O          -2.7589   -2.4703    1.8047 O.2     1  LIG1       -0.2511
     26 C          -1.3798    2.1492   -1.2905 C.3     1  LIG1        0.1163
     27 O          -0.6392    2.0428   -2.5331 O.3     1  LIG1       -0.3844
     28 C          -0.6156    3.1390   -0.3293 C.3     1  LIG1        0.0413
     29 C          -0.6171    4.5657   -0.9684 C.3     1  LIG1        0.1390
     30 H          -0.0111    4.5595   -1.8845 H       1  LIG1        0.0793
     31 C          -0.0355    5.6508   -0.0836 C.ar    1  LIG1        0.0310
     32 C           1.2811    6.0642    0.0003 C.ar    1  LIG1        0.0984
     33 O           1.4277    7.0494    0.9230 O.2     1  LIG1       -0.4706
     34 C           0.1981    7.2995    1.4359 C.ar    1  LIG1        0.0921
     35 C          -0.7365    6.4829    0.8466 C.ar    1  LIG1       -0.0172
     36 O          -1.9382    4.9727   -1.3846 O.3     1  LIG1       -0.4557
     37 C          -2.7686    4.1415   -2.0395 C.2     1  LIG1        0.3106
     38 C          -2.7652    2.6943   -1.6317 C.3     1  LIG1        0.0772
     39 O          -3.5820    4.5739   -2.8490 O.2     1  LIG1       -0.2507
     40 C           0.8708    2.6629   -0.1595 C.3     1  LIG1       -0.0408
     41 C           1.1159    1.1581   -0.3827 C.3     1  LIG1       -0.0461
     42 C          -0.0789    0.3540    0.1103 C.3     1  LIG1        0.0025
     43 C           0.1517   -1.1236    0.6294 C.3     1  LIG1        0.0208
     44 C          -0.1049   -1.0775    2.1528 C.3     1  LIG1       -0.0552
     45 C          -1.3189    3.2607    1.0606 C.3     1  LIG1       -0.0531
     46 H          -3.3503    0.4742   -0.0043 H       1  LIG1        0.2104
     47 H          -1.0282    0.5432   -3.1369 H       1  LIG1        0.2099
     48 H          -2.7869   -2.3288   -0.8382 H       1  LIG1        0.0443
     49 H           0.0600   -1.7117   -2.6409 H       1  LIG1        0.0314
     50 H           1.1300   -0.9789   -1.5719 H       1  LIG1        0.0314
     51 H           1.5629   -4.8592    2.1034 H       1  LIG1        0.2105
     52 H           5.3085   -4.6576    3.3078 H       1  LIG1        0.0661
     53 H           5.6880   -4.0975    1.6761 H       1  LIG1        0.0661
     54 H           5.2962   -5.8293    1.9720 H       1  LIG1        0.0661
     55 H           2.0480   -4.7324   -1.6252 H       1  LIG1        0.0239
     56 H           2.6424   -3.1745   -2.2455 H       1  LIG1        0.0239
     57 H           1.3153   -4.0169   -3.0512 H       1  LIG1        0.0239
     58 H          -1.8878   -5.4634    1.4353 H       1  LIG1        0.0342
     59 H          -2.6528   -4.7884    2.8900 H       1  LIG1        0.0342
     60 H          -0.9073   -4.7565    2.7590 H       1  LIG1        0.0342
     61 H          -0.7069    2.8647   -3.0552 H       1  LIG1        0.2103
     62 H           2.1946    5.7670   -0.4961 H       1  LIG1        0.1033
     63 H           0.1507    8.0704    2.1933 H       1  LIG1        0.1029
     64 H          -1.7952    6.4714    1.0689 H       1  LIG1        0.0653
     65 H          -3.1798    2.1303   -2.4764 H       1  LIG1        0.0407
     66 H          -3.4630    2.6115   -0.7930 H       1  LIG1        0.0407
     67 H           1.2265    2.9261    0.8449 H       1  LIG1        0.0273
     68 H           1.5316    3.1927   -0.8568 H       1  LIG1        0.0273
     69 H           2.0265    0.8636    0.1509 H       1  LIG1        0.0269
     70 H           1.3097    0.9930   -1.4464 H       1  LIG1        0.0269
     71 H          -0.2553    0.8667    1.0601 H       1  LIG1        0.0337
     72 H          -1.1207   -0.7150    2.3592 H       1  LIG1        0.0237
     73 H           0.5799   -0.3734    2.6389 H       1  LIG1        0.0237
     74 H           0.0053   -2.0287    2.6707 H       1  LIG1        0.0237
     75 H          -2.3056    3.7278    0.9729 H       1  LIG1        0.0237
     76 H          -0.7272    3.8651    1.7560 H       1  LIG1        0.0237
     77 H          -1.4690    2.3196    1.5846 H       1  LIG1        0.0237
@<TRIPOS>BOND
     1     1     2    1
     2     2     3    1
     3     3     4    1
     4     3     5    1
     5     3     6    1
     6     6     7    1
     7     7     8    1
     8     8     9    1
     9     9    10    1
    10    10    11    1
    11    10    12    1
    12    12    13    1
    13    12    14    1
    14    12    15    1
    15    15    16    1
    16    16    17    1
    17    15    18    2
    18     9    19    1
    19     9    20    1
    20     6    20    1
    21    20    21    2
    22     7    22    1
    23    22    23    1
    24    23    24    1
    25    23    25    2
    26     2    26    1
    27    26    27    1
    28    26    28    1
    29    28    29    1
    30    31    32   ar
    31    32    33   ar
    32    33    34   ar
    33    34    35   ar
    34    31    35   ar
    35    29    36    1
    36    36    37    1
    37    37    38    1
    38    26    38    1
    39    37    39    2
    40    28    40    1
    41    40    41    1
    42    41    42    1
    43     2    42    1
    44    42    43    1
    45     7    43    1
    46    10    43    1
    47    43    44    1
    48    28    45    1
    49    29    31    1
    50    29    30    1
    51     1    46    1
    52     5    47    1
    53     6    48    1
    54     8    49    1
    55     8    50    1
    56    14    51    1
    57    17    52    1
    58    17    53    1
    59    17    54    1
    60    19    55    1
    61    19    56    1
    62    19    57    1
    63    24    58    1
    64    24    59    1
    65    24    60    1
    66    27    61    1
    67    32    62    1
    68    34    63    1
    69    35    64    1
    70    38    65    1
    71    38    66    1
    72    40    67    1
    73    40    68    1
    74    41    69    1
    75    41    70    1
    76    42    71    1
    77    44    72    1
    78    44    73    1
    79    44    74    1
    80    45    75    1
    81    45    76    1
    82    45    77    1
