REMARK  Name = NuBBE_1276
REMARK  9 active torsions:
REMARK  status: ('A' for Active; 'I' for Inactive)
REMARK    1  A    between atoms: C_12  and  O_14
REMARK    2  A    between atoms: C_15  and  O_17
REMARK    3  A    between atoms: O_17  and  C_18
REMARK    4  A    between atoms: C_18  and  C_19
REMARK    5  A    between atoms: C_19  and  C_20
REMARK    6  A    between atoms: C_20  and  C_21
REMARK    7  A    between atoms: C_20  and  C_22
REMARK    8  A    between atoms: C_24  and  C_25
REMARK    9  A    between atoms: C_24  and  C_26
REMARK                            x       y       z     vdW  Elec       q    Type
REMARK                         _______ _______ _______ _____ _____    ______ ____
ROOT
ATOM      1  O   LIG A   1      -4.325  -2.765   3.039  0.00  0.00    -0.245 OA
ATOM      2  C   LIG A   1      -4.135  -2.379   1.891  0.00  0.00    +0.337 A 
ATOM      3  C   LIG A   1      -4.973  -2.860   0.782  0.00  0.00    +0.092 A 
ATOM      4  C   LIG A   1      -4.808  -2.435  -0.474  0.00  0.00    +0.018 A 
ATOM      5  O   LIG A   1      -3.130  -1.475   1.572  0.00  0.00    -0.422 OA
ATOM      6  C   LIG A   1      -2.941  -1.006   0.251  0.00  0.00    +0.148 A 
ATOM      7  C   LIG A   1      -3.771  -1.462  -0.775  0.00  0.00    +0.018 A 
ATOM      8  C   LIG A   1      -3.579  -0.974  -2.065  0.00  0.00    +0.015 A 
ATOM      9  C   LIG A   1      -2.578  -0.031  -2.306  0.00  0.00    +0.047 A 
ATOM     10  C   LIG A   1      -1.758   0.422  -1.267  0.00  0.00    +0.131 A 
ATOM     11  C   LIG A   1      -1.911  -0.078   0.027  0.00  0.00    +0.069 A 
ATOM     12  C   LIG A   1      -0.990   0.350   1.136  0.00  0.00    +0.196 C 
ATOM     13  C   LIG A   1       0.268   1.033   0.580  0.00  0.00    +0.252 C 
ATOM     14  C   LIG A   1      -0.090   2.001  -0.577  0.00  0.00    +0.144 C 
ATOM     15  C   LIG A   1       1.190   2.521  -1.256  0.00  0.00    +0.059 C 
ATOM     16  C   LIG A   1      -0.893   3.226  -0.106  0.00  0.00    +0.059 C 
ATOM     17  O   LIG A   1      -0.822   1.345  -1.633  0.00  0.00    -0.482 OA
ENDROOT
BRANCH  12  18
ATOM     18  O   LIG A   1      -1.690   1.229   2.016  0.00  0.00    -0.383 OA
ATOM     19  H   LIG A   1      -2.412   0.708   2.411  0.00  0.00    +0.210 HD
ENDBRANCH  12  18
BRANCH  13  20
ATOM     20  O   LIG A   1       1.188   0.021   0.079  0.00  0.00    -0.454 OA
BRANCH  20  21
ATOM     21  C   LIG A   1       1.955  -0.609   1.004  0.00  0.00    +0.308 C 
ATOM     22  O   LIG A   1       1.893  -0.418   2.216  0.00  0.00    -0.251 OA
BRANCH  21  23
ATOM     23  C   LIG A   1       2.914  -1.568   0.345  0.00  0.00    +0.123 C 
BRANCH  23  24
ATOM     24  C   LIG A   1       4.267  -0.957  -0.031  0.00  0.00    -0.007 C 
ATOM     25  C   LIG A   1       4.128   0.197  -1.022  0.00  0.00    +0.007 C 
ATOM     26  C   LIG A   1       5.062  -0.512   1.197  0.00  0.00    +0.007 C 
ENDBRANCH  23  24
ENDBRANCH  21  23
ENDBRANCH  20  21
ENDBRANCH  13  20
TORSDOF 5
