REMARK  Name = NuBBE_1310
REMARK  14 active torsions:
REMARK  status: ('A' for Active; 'I' for Inactive)
REMARK    1  A    between atoms: O_1  and  C_2
REMARK    2  A    between atoms: C_4  and  O_5
REMARK    3  A    between atoms: O_5  and  C_6
REMARK    4  A    between atoms: C_7  and  O_8
REMARK    5  A    between atoms: O_8  and  C_9
REMARK    6  A    between atoms: C_13  and  O_14
REMARK    7  A    between atoms: O_14  and  C_15
REMARK    8  A    between atoms: C_16  and  C_17
REMARK    9  A    between atoms: C_19  and  O_20
REMARK   10  A    between atoms: O_20  and  C_21
REMARK   11  A    between atoms: C_22  and  O_23
REMARK   12  A    between atoms: O_23  and  C_24
REMARK   13  A    between atoms: C_25  and  O_26
REMARK   14  A    between atoms: O_26  and  C_27
REMARK                            x       y       z     vdW  Elec       q    Type
REMARK                         _______ _______ _______ _____ _____    ______ ____
ROOT
ATOM      1  C   LIG A   1      -2.715  -3.655   0.181  0.00  0.00    +0.135 A 
ATOM      2  C   LIG A   1      -1.863  -4.761   0.215  0.00  0.00    +0.095 A 
ATOM      3  C   LIG A   1      -0.484  -4.616  -0.016  0.00  0.00    +0.169 A 
ATOM      4  C   LIG A   1       0.048  -3.332  -0.252  0.00  0.00    +0.205 A 
ATOM      5  C   LIG A   1      -0.826  -2.223  -0.258  0.00  0.00    +0.188 A 
ATOM      6  C   LIG A   1      -2.193  -2.386  -0.075  0.00  0.00    +0.113 A 
ATOM      7  C   LIG A   1      -3.024  -1.173  -0.199  0.00  0.00    +0.238 A 
ATOM      8  C   LIG A   1      -2.358   0.138   0.060  0.00  0.00    +0.211 A 
ATOM      9  C   LIG A   1      -1.016   0.158  -0.113  0.00  0.00    +0.181 A 
ATOM     10  O   LIG A   1      -0.287  -0.971  -0.448  0.00  0.00    -0.447 OA
ATOM     11  O   LIG A   1      -4.213  -1.244  -0.562  0.00  0.00    -0.283 OA
ENDROOT
BRANCH   9  12
ATOM     12  C   LIG A   1      -0.163   1.342   0.033  0.00  0.00    +0.028 A 
ATOM     13  C   LIG A   1       0.457   1.593   1.253  0.00  0.00    +0.061 A 
ATOM     14  C   LIG A   1       1.438   2.591   1.374  0.00  0.00    +0.166 A 
ATOM     15  C   LIG A   1       1.798   3.388   0.261  0.00  0.00    +0.203 A 
ATOM     16  C   LIG A   1       1.150   3.158  -0.970  0.00  0.00    +0.166 A 
ATOM     17  C   LIG A   1       0.171   2.143  -1.064  0.00  0.00    +0.061 A 
BRANCH  14  18
ATOM     18  O   LIG A   1       2.070   2.851   2.573  0.00  0.00    -0.491 OA
ATOM     19  C   LIG A   1       2.174   1.740   3.461  0.00  0.00    +0.277 C 
ENDBRANCH  14  18
BRANCH  15  20
ATOM     20  O   LIG A   1       2.849   4.246   0.481  0.00  0.00    -0.488 OA
ATOM     21  C   LIG A   1       2.939   5.475  -0.228  0.00  0.00    +0.277 C 
ENDBRANCH  15  20
BRANCH  16  22
ATOM     22  O   LIG A   1       1.585   3.827  -2.090  0.00  0.00    -0.491 OA
ATOM     23  C   LIG A   1       0.590   4.099  -3.075  0.00  0.00    +0.277 C 
ENDBRANCH  16  22
ENDBRANCH   9  12
BRANCH   1  24
ATOM     24  O   LIG A   1      -4.044  -3.831   0.440  0.00  0.00    -0.506 OA
ATOM     25  H   LIG A   1      -4.294  -4.759   0.297  0.00  0.00    +0.292 HD
ENDBRANCH   1  24
BRANCH   3  26
ATOM     26  O   LIG A   1       0.168  -5.822   0.003  0.00  0.00    -0.491 OA
ATOM     27  C   LIG A   1       1.572  -5.890  -0.209  0.00  0.00    +0.277 C 
ENDBRANCH   3  26
BRANCH   4  28
ATOM     28  O   LIG A   1       1.407  -3.215  -0.383  0.00  0.00    -0.488 OA
ATOM     29  C   LIG A   1       1.907  -2.188  -1.234  0.00  0.00    +0.277 C 
ENDBRANCH   4  28
BRANCH   8  30
ATOM     30  O   LIG A   1      -3.057   1.281   0.401  0.00  0.00    -0.488 OA
ATOM     31  C   LIG A   1      -4.284   1.052   1.086  0.00  0.00    +0.277 C 
ENDBRANCH   8  30
TORSDOF 8
