@<TRIPOS>MOLECULE
NuBBE_1102
 27 30 0 0 0
SMALL
GASTEIGER

@<TRIPOS>ATOM
      1 O          -3.4248   -0.7469    0.0091 O.2     1  LIG1       -0.2864
      2 C          -2.2008   -0.8035    0.0086 C.ar    1  LIG1        0.2004
      3 C          -1.4755   -2.0476    0.0070 C.ar    1  LIG1        0.0853
      4 C          -0.1039   -2.0355    0.0067 C.ar    1  LIG1        0.2120
      5 N           0.6899   -0.9417    0.0076 N.ar    1  LIG1       -0.3107
      6 C           0.0730    0.3297    0.0072 C.ar    1  LIG1        0.1012
      7 C          -1.3538    0.4370    0.0086 C.ar    1  LIG1        0.0498
      8 C          -2.0124    1.6872    0.0078 C.ar    1  LIG1       -0.0452
      9 C          -1.2758    2.8687    0.0048 C.ar    1  LIG1       -0.0153
     10 C           0.0982    2.7634    0.0014 C.ar    1  LIG1        0.1683
     11 C           0.7547    1.5453    0.0031 C.ar    1  LIG1        0.1903
     12 O           2.1098    1.7236   -0.0013 O.3     1  LIG1       -0.4505
     13 C           2.2217    3.1576   -0.0270 C.3     1  LIG1        0.2333
     14 O           0.9496    3.8257   -0.0054 O.3     1  LIG1       -0.4525
     15 C           2.1390   -1.0777    0.0068 C.3     1  LIG1        0.0153
     16 O           0.3886   -3.2984    0.0045 O.2     1  LIG1       -0.4465
     17 C          -0.6920   -4.1299    0.0032 C.ar    1  LIG1        0.0951
     18 C          -1.8653   -3.4062    0.0049 C.ar    1  LIG1       -0.0108
     19 H          -3.1003    1.7323    0.0084 H       1  LIG1        0.0626
     20 H          -1.7637    3.8374    0.0033 H       1  LIG1        0.0655
     21 H           2.7582    3.4502   -0.9369 H       1  LIG1        0.1166
     22 H           2.8052    3.4799    0.8428 H       1  LIG1        0.1166
     23 H           2.4695   -2.1226    0.0067 H       1  LIG1        0.0457
     24 H           2.5733   -0.6186    0.9019 H       1  LIG1        0.0457
     25 H           2.5723   -0.6190   -0.8890 H       1  LIG1        0.0457
     26 H          -0.4641   -5.1868    0.0010 H       1  LIG1        0.1030
     27 H          -2.8707   -3.8035    0.0042 H       1  LIG1        0.0657
@<TRIPOS>BOND
     1     1     2    2
     2     2     3   ar
     3     3     4   ar
     4     4     5   ar
     5     5     6   ar
     6     6     7   ar
     7     2     7   ar
     8     7     8   ar
     9     8     9   ar
    10     9    10   ar
    11    10    11   ar
    12     6    11   ar
    13    11    12    1
    14    12    13    1
    15    13    14    1
    16    10    14    1
    17     5    15    1
    18     4    16   ar
    19    16    17   ar
    20    17    18   ar
    21     3    18   ar
    22     8    19    1
    23     9    20    1
    24    13    21    1
    25    13    22    1
    26    15    23    1
    27    15    24    1
    28    15    25    1
    29    17    26    1
    30    18    27    1
