@<TRIPOS>MOLECULE
NuBBE_2166
 61 62 0 0 0
SMALL
GASTEIGER

@<TRIPOS>ATOM
      1 O          -1.9121    1.0904    3.5975 O.2     1  LIG1       -0.2918
      2 C          -2.4359    1.6244    2.6191 C.2     1  LIG1        0.1702
      3 C          -3.8562    1.2683    2.3027 C.ar    1  LIG1        0.1010
      4 C          -4.3464   -0.0052    2.6406 C.ar    1  LIG1        0.1309
      5 O          -3.6747   -0.8871    3.4453 O.3     1  LIG1       -0.5059
      6 C          -5.5927   -0.4392    2.1870 C.ar    1  LIG1       -0.0192
      7 C          -6.3853    0.4061    1.4163 C.ar    1  LIG1       -0.0548
      8 C          -5.9643    1.7102    1.1623 C.ar    1  LIG1       -0.0183
      9 C          -4.7267    2.1489    1.6378 C.ar    1  LIG1        0.1456
     10 O          -4.3010    3.4908    1.4854 O.3     1  LIG1       -0.4252
     11 C          -5.0882    4.5922    1.0821 C.2     1  LIG1        0.3092
     12 C          -4.1591    5.7658    0.9053 C.3     1  LIG1        0.0336
     13 O          -6.2794    4.6211    0.9020 O.2     1  LIG1       -0.2507
     14 C          -1.6728    2.5946    1.7051 C.3     1  LIG1        0.0107
     15 C          -0.1597    2.3353    1.7006 C.3     1  LIG1       -0.0460
     16 C           0.5995    3.3037    0.7807 C.3     1  LIG1       -0.0527
     17 C           2.1163    3.0555    0.7379 C.3     1  LIG1       -0.0530
     18 C           2.5869    1.6991    0.1840 C.3     1  LIG1       -0.0531
     19 C           2.3261    1.4687   -1.3100 C.3     1  LIG1       -0.0531
     20 C           2.8953    0.1373   -1.8386 C.3     1  LIG1       -0.0530
     21 C           2.2834   -1.1330   -1.2121 C.3     1  LIG1       -0.0528
     22 C           3.0090   -2.3804   -1.7436 C.3     1  LIG1       -0.0491
     23 C           2.3830   -3.7348   -1.3828 C.3     1  LIG1       -0.0277
     24 C           3.1852   -4.8888   -1.9646 C.ar    1  LIG1       -0.0474
     25 C           3.7955   -5.8320   -1.1259 C.ar    1  LIG1       -0.0586
     26 C           4.4784   -6.9289   -1.6622 C.ar    1  LIG1       -0.0615
     27 C           4.5656   -7.0949   -3.0428 C.ar    1  LIG1       -0.0617
     28 C           3.9952   -6.1480   -3.8890 C.ar    1  LIG1       -0.0615
     29 C           3.3125   -5.0514   -3.3542 C.ar    1  LIG1       -0.0586
     30 H          -2.9996   -0.3796    3.9478 H       1  LIG1        0.2922
     31 H          -5.9507   -1.4328    2.4464 H       1  LIG1        0.0654
     32 H          -7.3492    0.0640    1.0470 H       1  LIG1        0.0620
     33 H          -6.6233    2.3605    0.5954 H       1  LIG1        0.0654
     34 H          -4.3287    6.2040   -0.0758 H       1  LIG1        0.0342
     35 H          -3.1060    5.4337    0.9324 H       1  LIG1        0.0342
     36 H          -4.3092    6.4948    1.7007 H       1  LIG1        0.0342
     37 H          -1.8604    3.6156    2.0548 H       1  LIG1        0.0345
     38 H          -2.0417    2.4980    0.6770 H       1  LIG1        0.0345
     39 H           0.0175    1.3039    1.3819 H       1  LIG1        0.0269
     40 H           0.2295    2.4288    2.7220 H       1  LIG1        0.0269
     41 H           0.4386    4.3276    1.1470 H       1  LIG1        0.0265
     42 H           0.1870    3.2711   -0.2333 H       1  LIG1        0.0265
     43 H           2.5032    3.1482    1.7615 H       1  LIG1        0.0265
     44 H           2.5880    3.8623    0.1627 H       1  LIG1        0.0265
     45 H           2.1355    0.8967    0.7721 H       1  LIG1        0.0265
     46 H           3.6695    1.6347    0.3540 H       1  LIG1        0.0265
     47 H           2.7940    2.2826   -1.8809 H       1  LIG1        0.0265
     48 H           1.2536    1.5073   -1.5243 H       1  LIG1        0.0265
     49 H           3.9851    0.1268   -1.7064 H       1  LIG1        0.0265
     50 H           2.7230    0.1041   -2.9238 H       1  LIG1        0.0265
     51 H           1.2133   -1.1723   -1.4472 H       1  LIG1        0.0265
     52 H           2.3813   -1.1033   -0.1225 H       1  LIG1        0.0265
     53 H           4.0362   -2.3655   -1.3590 H       1  LIG1        0.0268
     54 H           3.0766   -2.2998   -2.8338 H       1  LIG1        0.0268
     55 H           1.3553   -3.8098   -1.7618 H       1  LIG1        0.0313
     56 H           2.3155   -3.8432   -0.2927 H       1  LIG1        0.0313
     57 H           3.7374   -5.7275   -0.0452 H       1  LIG1        0.0620
     58 H           4.9335   -7.6616   -1.0006 H       1  LIG1        0.0618
     59 H           5.0738   -7.9616   -3.4578 H       1  LIG1        0.0618
     60 H           4.0711   -6.2689   -4.9668 H       1  LIG1        0.0618
     61 H           2.8732   -4.3274   -4.0364 H       1  LIG1        0.0620
@<TRIPOS>BOND
     1     1     2    2
     2     2     3    1
     3     3     4   ar
     4     4     5    1
     5     4     6   ar
     6     6     7   ar
     7     7     8   ar
     8     8     9   ar
     9     3     9   ar
    10     9    10    1
    11    10    11    1
    12    11    12    1
    13    11    13    2
    14     2    14    1
    15    14    15    1
    16    15    16    1
    17    16    17    1
    18    17    18    1
    19    18    19    1
    20    19    20    1
    21    20    21    1
    22    21    22    1
    23    22    23    1
    24    23    24    1
    25    24    25   ar
    26    25    26   ar
    27    26    27   ar
    28    27    28   ar
    29    28    29   ar
    30    24    29   ar
    31     5    30    1
    32     6    31    1
    33     7    32    1
    34     8    33    1
    35    12    34    1
    36    12    35    1
    37    12    36    1
    38    14    37    1
    39    14    38    1
    40    15    39    1
    41    15    40    1
    42    16    41    1
    43    16    42    1
    44    17    43    1
    45    17    44    1
    46    18    45    1
    47    18    46    1
    48    19    47    1
    49    19    48    1
    50    20    49    1
    51    20    50    1
    52    21    51    1
    53    21    52    1
    54    22    53    1
    55    22    54    1
    56    23    55    1
    57    23    56    1
    58    25    57    1
    59    26    58    1
    60    27    59    1
    61    28    60    1
    62    29    61    1
