REMARK  Name = NuBBE_878
REMARK  15 active torsions:
REMARK  status: ('A' for Active; 'I' for Inactive)
REMARK    1  A    between atoms: C_3  and  O_4
REMARK    2  A    between atoms: O_4  and  C_5
REMARK    3  A    between atoms: C_6  and  C_7
REMARK    4  A    between atoms: C_7  and  C_8
REMARK    5  A    between atoms: C_8  and  C_9
REMARK    6  A    between atoms: C_9  and  C_10
REMARK    7  A    between atoms: C_10  and  C_11
REMARK    8  A    between atoms: C_11  and  C_12
REMARK    9  A    between atoms: C_12  and  C_13
REMARK   10  A    between atoms: C_13  and  C_14
REMARK   11  A    between atoms: C_14  and  C_15
REMARK   12  A    between atoms: C_15  and  C_16
REMARK   13  A    between atoms: C_16  and  C_17
REMARK   14  A    between atoms: C_17  and  C_18
REMARK   15  A    between atoms: C_18  and  C_19
REMARK                            x       y       z     vdW  Elec       q    Type
REMARK                         _______ _______ _______ _____ _____    ______ ____
ROOT
ATOM      1  O   LIG A   1      -5.604   5.295  -0.359  0.00  0.00    -0.283 OA
ATOM      2  C   LIG A   1      -4.572   4.912  -0.929  0.00  0.00    +0.231 A 
ATOM      3  C   LIG A   1      -3.312   4.517  -0.193  0.00  0.00    +0.186 A 
ATOM      4  C   LIG A   1      -2.280   4.022  -0.935  0.00  0.00    +0.062 A 
ATOM      5  N   LIG A   1      -2.342   3.916  -2.313  0.00  0.00    -0.355 N 
ATOM      6  H   LIG A   1      -1.532   3.552  -2.806  0.00  0.00    +0.166 HD
ATOM      7  C   LIG A   1      -3.454   4.315  -3.056  0.00  0.00    +0.051 A 
ATOM      8  C   LIG A   1      -3.481   4.212  -4.451  0.00  0.00    +0.026 A 
ATOM      9  C   LIG A   1      -4.599   4.633  -5.180  0.00  0.00    +0.002 A 
ATOM     10  C   LIG A   1      -5.708   5.165  -4.521  0.00  0.00    +0.001 A 
ATOM     11  C   LIG A   1      -5.703   5.258  -3.133  0.00  0.00    +0.014 A 
ATOM     12  C   LIG A   1      -4.581   4.834  -2.405  0.00  0.00    +0.049 A 
ENDROOT
BRANCH   3  13
ATOM     13  O   LIG A   1      -3.160   4.657   1.181  0.00  0.00    -0.490 OA
ATOM     14  C   LIG A   1      -4.351   4.676   1.965  0.00  0.00    +0.277 C 
ENDBRANCH   3  13
BRANCH   4  15
ATOM     15  C   LIG A   1      -0.960   3.588  -0.291  0.00  0.00    +0.057 C 
BRANCH  15  16
ATOM     16  C   LIG A   1      -0.911   2.087   0.050  0.00  0.00    +0.006 C 
BRANCH  16  17
ATOM     17  C   LIG A   1       0.434   1.655   0.674  0.00  0.00    +0.000 C 
BRANCH  17  18
ATOM     18  C   LIG A   1       0.461   0.144   0.949  0.00  0.00    +0.000 C 
BRANCH  18  19
ATOM     19  C   LIG A   1       1.768  -0.351   1.587  0.00  0.00    -0.000 C 
BRANCH  19  20
ATOM     20  C   LIG A   1       1.799  -1.880   1.784  0.00  0.00    -0.000 C 
BRANCH  20  21
ATOM     21  C   LIG A   1       1.687  -2.651   0.462  0.00  0.00    -0.000 C 
BRANCH  21  22
ATOM     22  C   LIG A   1       1.720  -4.178   0.596  0.00  0.00    +0.000 C 
BRANCH  22  23
ATOM     23  C   LIG A   1       3.034  -4.718   1.163  0.00  0.00    +0.000 C 
BRANCH  23  24
ATOM     24  C   LIG A   1       3.055  -6.252   1.196  0.00  0.00    +0.007 C 
BRANCH  24  25
ATOM     25  C   LIG A   1       4.340  -6.820   1.804  0.00  0.00    +0.074 C 
BRANCH  25  26
ATOM     26  C   LIG A   1       5.598  -6.519   1.006  0.00  0.00    +0.130 C 
ATOM     27  C   LIG A   1       6.890  -6.483   1.785  0.00  0.00    +0.086 C 
ATOM     28  O   LIG A   1       5.582  -6.329  -0.207  0.00  0.00    -0.298 OA
ENDBRANCH  25  26
ENDBRANCH  24  25
ENDBRANCH  23  24
ENDBRANCH  22  23
ENDBRANCH  21  22
ENDBRANCH  20  21
ENDBRANCH  19  20
ENDBRANCH  18  19
ENDBRANCH  17  18
ENDBRANCH  16  17
ENDBRANCH  15  16
ENDBRANCH   4  15
TORSDOF 13
