REMARK  Name = NuBBE_336
REMARK  5 active torsions:
REMARK  status: ('A' for Active; 'I' for Inactive)
REMARK    1  A    between atoms: C_4  and  C_6
REMARK    2  A    between atoms: C_8  and  O_9
REMARK    3  A    between atoms: C_12  and  C_13
REMARK    4  A    between atoms: C_13  and  O_14
REMARK    5  A    between atoms: O_14  and  C_15
REMARK                            x       y       z     vdW  Elec       q    Type
REMARK                         _______ _______ _______ _____ _____    ______ ____
ROOT
ATOM      1  O   LIG A   1      -0.772   1.599   3.454  0.00  0.00    -0.251 OA
ATOM      2  C   LIG A   1      -0.709   1.414   2.242  0.00  0.00    +0.308 C 
ATOM      3  O   LIG A   1      -0.951   2.423   1.379  0.00  0.00    -0.461 OA
ATOM      4  C   LIG A   1      -1.406   2.154   0.048  0.00  0.00    +0.183 C 
ATOM      5  C   LIG A   1      -1.405   3.481  -0.706  0.00  0.00    +0.052 C 
ATOM      6  C   LIG A   1      -0.617   1.057  -0.662  0.00  0.00    +0.106 C 
ATOM      7  C   LIG A   1       0.812   1.431  -1.088  0.00  0.00    +0.311 C 
ATOM      8  O   LIG A   1       1.442   0.367  -1.809  0.00  0.00    -0.470 OA
ATOM      9  C   LIG A   1       1.220  -0.893  -1.321  0.00  0.00    +0.201 C 
ATOM     10  C   LIG A   1       0.329  -1.227  -0.373  0.00  0.00    +0.075 C 
ATOM     11  C   LIG A   1      -0.602  -0.196   0.227  0.00  0.00    +0.052 C 
ATOM     12  C   LIG A   1      -0.223   0.105   1.677  0.00  0.00    +0.129 C 
ENDROOT
BRANCH   7  13
ATOM     13  O   LIG A   1       1.613   1.781   0.027  0.00  0.00    -0.357 OA
ATOM     14  H   LIG A   1       2.450   2.103  -0.348  0.00  0.00    +0.213 HD
ENDBRANCH   7  13
BRANCH  10  15
ATOM     15  C   LIG A   1       0.182  -2.643   0.053  0.00  0.00    +0.338 C 
ATOM     16  O   LIG A   1      -0.789  -3.056   0.673  0.00  0.00    -0.245 OA
BRANCH  15  17
ATOM     17  O   LIG A   1       1.256  -3.377  -0.325  0.00  0.00    -0.465 OA
ATOM     18  C   LIG A   1       1.184  -4.766  -0.002  0.00  0.00    +0.280 C 
ENDBRANCH  15  17
ENDBRANCH  10  15
TORSDOF 3
