REMARK  Name = NuBBE_221
REMARK  8 active torsions:
REMARK  status: ('A' for Active; 'I' for Inactive)
REMARK    1  A    between atoms: O_1  and  C_2
REMARK    2  A    between atoms: C_6  and  C_7
REMARK    3  A    between atoms: C_7  and  C_8
REMARK    4  A    between atoms: C_7  and  O_10
REMARK    5  A    between atoms: C_7  and  C_11
REMARK    6  A    between atoms: C_8  and  O_9
REMARK    7  A    between atoms: C_14  and  C_15
REMARK    8  A    between atoms: C_17  and  C_18
REMARK                            x       y       z     vdW  Elec       q    Type
REMARK                         _______ _______ _______ _____ _____    ______ ____
ROOT
ATOM      1  C   LIG A   1      -3.023  -0.350  -0.231  0.00  0.00    +0.120 A 
ATOM      2  C   LIG A   1      -2.230  -1.492  -0.194  0.00  0.00    +0.054 A 
ATOM      3  C   LIG A   1      -0.829  -1.424  -0.024  0.00  0.00    -0.011 A 
ATOM      4  C   LIG A   1      -0.205  -0.142   0.104  0.00  0.00    -0.011 A 
ATOM      5  C   LIG A   1       1.226  -0.060   0.229  0.00  0.00    -0.006 A 
ATOM      6  C   LIG A   1       1.961  -1.261   0.257  0.00  0.00    +0.007 A 
ATOM      7  C   LIG A   1       1.343  -2.502   0.161  0.00  0.00    +0.004 A 
ATOM      8  C   LIG A   1      -0.040  -2.599   0.015  0.00  0.00    -0.043 A 
ATOM      9  C   LIG A   1      -0.638  -3.979  -0.105  0.00  0.00    +0.044 C 
ATOM     10  C   LIG A   1      -1.066   0.989   0.095  0.00  0.00    +0.015 A 
ATOM     11  C   LIG A   1      -2.455   0.905  -0.084  0.00  0.00    -0.008 A 
ATOM     12  C   LIG A   1      -3.300   2.146  -0.108  0.00  0.00    +0.048 C 
ENDROOT
BRANCH   1  13
ATOM     13  O   LIG A   1      -4.373  -0.446  -0.414  0.00  0.00    -0.506 OA
ATOM     14  H   LIG A   1      -4.608  -1.377  -0.547  0.00  0.00    +0.292 HD
ENDBRANCH   1  13
BRANCH   5  15
ATOM     15  C   LIG A   1       1.988   1.282   0.283  0.00  0.00    +0.112 C 
ATOM     16  C   LIG A   1       3.481   1.172   0.661  0.00  0.00    +0.049 C 
BRANCH  15  17
ATOM     17  O   LIG A   1       1.436   2.122   1.317  0.00  0.00    -0.382 OA
ATOM     18  H   LIG A   1       1.156   1.527   2.038  0.00  0.00    +0.211 HD
ENDBRANCH  15  17
BRANCH  15  19
ATOM     19  C   LIG A   1       1.882   2.041  -1.070  0.00  0.00    +0.195 C 
BRANCH  19  20
ATOM     20  O   LIG A   1       2.539   3.311  -1.004  0.00  0.00    -0.392 OA
ATOM     21  H   LIG A   1       2.247   3.704  -0.158  0.00  0.00    +0.209 HD
ENDBRANCH  19  20
ENDBRANCH  15  19
ENDBRANCH   5  15
TORSDOF 5
