REMARK  Name = NuBBE_2019
REMARK  6 active torsions:
REMARK  status: ('A' for Active; 'I' for Inactive)
REMARK    1  A    between atoms: C_6  and  O_7
REMARK    2  A    between atoms: C_8  and  O_9
REMARK    3  A    between atoms: O_9  and  C_10
REMARK    4  A    between atoms: C_14  and  C_15
REMARK    5  A    between atoms: C_18  and  O_19
REMARK    6  A    between atoms: O_19  and  C_20
REMARK                            x       y       z     vdW  Elec       q    Type
REMARK                         _______ _______ _______ _____ _____    ______ ____
ROOT
ATOM      1  O   LIG A   1      -1.964  -0.788   0.282  0.00  0.00    -0.286 OA
ATOM      2  C   LIG A   1      -0.737  -0.753   0.208  0.00  0.00    +0.200 A 
ATOM      3  C   LIG A   1       0.013  -2.014   0.169  0.00  0.00    +0.068 A 
ATOM      4  C   LIG A   1      -0.673  -3.230   0.172  0.00  0.00    +0.019 A 
ATOM      5  C   LIG A   1       0.041  -4.422   0.140  0.00  0.00    +0.050 A 
ATOM      6  C   LIG A   1       1.440  -4.400   0.104  0.00  0.00    +0.162 A 
ATOM      7  C   LIG A   1       2.143  -3.184   0.097  0.00  0.00    +0.205 A 
ATOM      8  C   LIG A   1       1.405  -1.986   0.131  0.00  0.00    +0.183 A 
ATOM      9  O   LIG A   1       2.098  -0.798   0.127  0.00  0.00    -0.458 OA
ATOM     10  C   LIG A   1       1.383   0.374   0.118  0.00  0.00    +0.208 A 
ATOM     11  C   LIG A   1       0.047   0.515   0.158  0.00  0.00    +0.064 A 
ENDROOT
BRANCH  11  12
ATOM     12  C   LIG A   1      -0.593   1.851   0.114  0.00  0.00    -0.011 A 
ATOM     13  C   LIG A   1       0.020   2.987   0.666  0.00  0.00    +0.012 A 
ATOM     14  C   LIG A   1      -0.601   4.240   0.605  0.00  0.00    +0.046 A 
ATOM     15  C   LIG A   1      -1.853   4.386   0.009  0.00  0.00    +0.120 A 
ATOM     16  C   LIG A   1      -2.481   3.266  -0.526  0.00  0.00    +0.046 A 
ATOM     17  C   LIG A   1      -1.852   2.018  -0.480  0.00  0.00    +0.012 A 
BRANCH  15  18
ATOM     18  O   LIG A   1      -2.355   5.657   0.008  0.00  0.00    -0.495 OA
ATOM     19  C   LIG A   1      -3.619   5.832  -0.620  0.00  0.00    +0.277 C 
ENDBRANCH  15  18
ENDBRANCH  11  12
BRANCH   6  20
ATOM     20  O   LIG A   1       2.089  -5.604   0.078  0.00  0.00    -0.503 OA
ATOM     21  H   LIG A   1       1.437  -6.324   0.092  0.00  0.00    +0.292 HD
ENDBRANCH   6  20
BRANCH   7  22
ATOM     22  O   LIG A   1       3.502  -3.007   0.059  0.00  0.00    -0.488 OA
ATOM     23  C   LIG A   1       4.338  -4.152  -0.002  0.00  0.00    +0.277 C 
ENDBRANCH   7  22
TORSDOF 4
