@<TRIPOS>MOLECULE
NuBBE_133
 81 85 0 0 0
SMALL
GASTEIGER

@<TRIPOS>ATOM
      1 C          -1.8029    1.0626   -0.1186 C.3     1  LIG1       -0.0588
      2 C          -0.4381    1.2073    0.6278 C.3     1  LIG1       -0.0233
      3 C           0.6578    1.8588   -0.2962 C.3     1  LIG1       -0.0313
      4 H           1.5868    1.8483    0.2866 H       1  LIG1        0.0309
      5 C           0.5094    3.3692   -0.6338 C.3     1  LIG1       -0.0258
      6 H           1.5076    3.6986   -0.9493 H       1  LIG1        0.0315
      7 C           0.1451    4.2295    0.6001 C.3     1  LIG1       -0.0284
      8 C          -0.9909    3.6081    1.4363 C.3     1  LIG1       -0.0468
      9 C          -0.7144    2.1527    1.8358 C.3     1  LIG1       -0.0464
     10 C           1.3713    4.4868    1.4965 C.3     1  LIG1       -0.0593
     11 C          -0.2974    5.5491   -0.0485 C.3     1  LIG1       -0.0468
     12 C          -1.0626    5.1473   -1.3036 C.3     1  LIG1       -0.0457
     13 C          -0.4943    3.7830   -1.7497 C.3     1  LIG1       -0.0168
     14 H          -1.3206    3.0715   -1.7537 H       1  LIG1        0.0348
     15 C          -0.0194    3.8398   -3.1992 C.2     1  LIG1       -0.0763
     16 C           1.2576    3.9492   -3.6048 C.2     1  LIG1       -0.0994
     17 C          -1.1247    3.7639   -4.2257 C.3     1  LIG1       -0.0438
     18 C           0.9504    0.9942   -1.5294 C.3     1  LIG1       -0.0491
     19 C           1.3565   -0.4376   -1.1667 C.3     1  LIG1       -0.0489
     20 C           0.3765   -1.1388   -0.1946 C.3     1  LIG1       -0.0294
     21 H          -0.5787   -1.1628   -0.7353 H       1  LIG1        0.0312
     22 C           0.1124   -0.2620    1.0994 C.3     1  LIG1       -0.0231
     23 C           1.4119   -0.1062    1.9499 C.3     1  LIG1       -0.0588
     24 C          -0.9152   -0.9918    2.0119 C.3     1  LIG1       -0.0466
     25 C          -0.6181   -2.4751    2.2647 C.3     1  LIG1       -0.0486
     26 C          -0.4924   -3.2523    0.9387 C.3     1  LIG1       -0.0278
     27 H          -1.4125   -2.9977    0.3882 H       1  LIG1        0.0312
     28 C           0.6821   -2.6866    0.0522 C.3     1  LIG1       -0.0252
     29 C           2.0877   -2.9068    0.6637 C.3     1  LIG1       -0.0590
     30 C           0.6505   -3.4343   -1.3179 C.3     1  LIG1       -0.0447
     31 C           0.6216   -4.9629   -1.2097 C.3     1  LIG1       -0.0258
     32 C          -0.5069   -5.4821   -0.3224 C.3     1  LIG1        0.0606
     33 H          -0.3842   -6.5662   -0.2094 H       1  LIG1        0.0599
     34 C          -0.5568   -4.8188    1.0866 C.3     1  LIG1       -0.0056
     35 C           0.5662   -5.4009    1.9697 C.3     1  LIG1       -0.0572
     36 C          -1.8931   -5.2292    1.7640 C.3     1  LIG1       -0.0572
     37 O          -1.7436   -5.3120   -1.0227 O.3     1  LIG1       -0.3912
     38 H          -2.2527    2.0239   -0.3650 H       1  LIG1        0.0235
     39 H          -2.5597    0.5722    0.4982 H       1  LIG1        0.0235
     40 H          -1.7330    0.5071   -1.0552 H       1  LIG1        0.0235
     41 H          -1.9466    3.6712    0.9062 H       1  LIG1        0.0271
     42 H          -1.1381    4.1982    2.3507 H       1  LIG1        0.0271
     43 H          -1.5727    1.7835    2.4110 H       1  LIG1        0.0271
     44 H           0.1242    2.1653    2.5334 H       1  LIG1        0.0271
     45 H           1.7792    3.5622    1.9154 H       1  LIG1        0.0235
     46 H           1.1128    5.1479    2.3314 H       1  LIG1        0.0235
     47 H           2.1806    4.9691    0.9363 H       1  LIG1        0.0235
     48 H          -0.9068    6.1682    0.6183 H       1  LIG1        0.0271
     49 H           0.5741    6.1472   -0.3444 H       1  LIG1        0.0271
     50 H          -0.9826    5.9300   -2.0663 H       1  LIG1        0.0271
     51 H          -2.1290    5.0394   -1.0703 H       1  LIG1        0.0271
     52 H           1.5116    3.9812   -4.6608 H       1  LIG1        0.0534
     53 H           2.0931    4.0205   -2.9194 H       1  LIG1        0.0534
     54 H          -0.7434    3.8141   -5.2512 H       1  LIG1        0.0274
     55 H          -1.8278    4.5925   -4.0942 H       1  LIG1        0.0274
     56 H          -1.6731    2.8218   -4.1230 H       1  LIG1        0.0274
     57 H           1.7721    1.4386   -2.1036 H       1  LIG1        0.0268
     58 H           0.0870    0.9659   -2.2022 H       1  LIG1        0.0268
     59 H           2.3679   -0.4091   -0.7512 H       1  LIG1        0.0268
     60 H           1.4300   -0.9974   -2.1046 H       1  LIG1        0.0268
     61 H           2.2691    0.2465    1.3735 H       1  LIG1        0.0235
     62 H           1.7224   -1.0380    2.4195 H       1  LIG1        0.0235
     63 H           1.2772    0.5772    2.7908 H       1  LIG1        0.0235
     64 H          -1.9159   -0.9589    1.5747 H       1  LIG1        0.0271
     65 H          -0.9913   -0.4806    2.9795 H       1  LIG1        0.0271
     66 H          -1.4518   -2.8635    2.8585 H       1  LIG1        0.0268
     67 H           0.2690   -2.5933    2.8915 H       1  LIG1        0.0268
     68 H           2.0779   -2.9523    1.7534 H       1  LIG1        0.0235
     69 H           2.7962   -2.1280    0.3736 H       1  LIG1        0.0235
     70 H           2.5513   -3.8387    0.3305 H       1  LIG1        0.0235
     71 H           1.5269   -3.1624   -1.9187 H       1  LIG1        0.0271
     72 H          -0.2252   -3.1101   -1.8944 H       1  LIG1        0.0271
     73 H           1.5830   -5.3364   -0.8438 H       1  LIG1        0.0290
     74 H           0.5024   -5.3688   -2.2224 H       1  LIG1        0.0290
     75 H           1.5516   -5.3379    1.5082 H       1  LIG1        0.0236
     76 H           0.3908   -6.4666    2.1626 H       1  LIG1        0.0236
     77 H           0.6138   -4.9049    2.9442 H       1  LIG1        0.0236
     78 H          -2.7527   -4.7330    1.3006 H       1  LIG1        0.0236
     79 H          -1.9018   -4.9843    2.8312 H       1  LIG1        0.0236
     80 H          -2.0538   -6.3113    1.6879 H       1  LIG1        0.0236
     81 H          -1.8909   -4.3641   -1.1711 H       1  LIG1        0.2098
@<TRIPOS>BOND
     1     2     3    1
     2     3     5    1
     3     5     7    1
     4     7     8    1
     5     8     9    1
     6     2     9    1
     7     7    11    1
     8    11    12    1
     9    12    13    1
    10     5    13    1
    11    15    16    2
    12    15    17    1
    13     3    18    1
    14    18    19    1
    15    19    20    1
    16    20    22    1
    17     2    22    1
    18    22    24    1
    19    24    25    1
    20    25    26    1
    21    26    28    1
    22    20    28    1
    23    28    30    1
    24    30    31    1
    25    31    32    1
    26    32    34    1
    27    26    34    1
    28     1     2    1
    29     3     4    1
    30     5     6    1
    31     7    10    1
    32    20    21    1
    33    22    23    1
    34    26    27    1
    35    28    29    1
    36    32    33    1
    37    32    37    1
    38    34    35    1
    39    34    36    1
    40    13    15    1
    41    13    14    1
    42     1    38    1
    43     1    39    1
    44     1    40    1
    45     8    41    1
    46     8    42    1
    47     9    43    1
    48     9    44    1
    49    10    45    1
    50    10    46    1
    51    10    47    1
    52    11    48    1
    53    11    49    1
    54    12    50    1
    55    12    51    1
    56    16    52    1
    57    16    53    1
    58    17    54    1
    59    17    55    1
    60    17    56    1
    61    18    57    1
    62    18    58    1
    63    19    59    1
    64    19    60    1
    65    23    61    1
    66    23    62    1
    67    23    63    1
    68    24    64    1
    69    24    65    1
    70    25    66    1
    71    25    67    1
    72    29    68    1
    73    29    69    1
    74    29    70    1
    75    30    71    1
    76    30    72    1
    77    31    73    1
    78    31    74    1
    79    35    75    1
    80    35    76    1
    81    35    77    1
    82    36    78    1
    83    36    79    1
    84    36    80    1
    85    37    81    1
