@<TRIPOS>MOLECULE
NuBBE_1912
 32 34 0 0 0
SMALL
GASTEIGER

@<TRIPOS>ATOM
      1 O          -2.5714   -1.3287   -0.6259 O.2     1  LIG1       -0.2864
      2 C          -1.3826   -1.4154   -0.3653 C.ar    1  LIG1        0.2004
      3 C          -0.5637   -0.2217   -0.1069 C.ar    1  LIG1        0.0719
      4 C          -1.1662    1.0430   -0.1011 C.ar    1  LIG1       -0.0017
      5 C          -0.4251    2.1810    0.2346 C.ar    1  LIG1        0.1661
      6 O          -0.9999    3.4148    0.3782 O.3     1  LIG1       -0.4913
      7 C          -2.1839    3.6610   -0.3739 C.3     1  LIG1        0.0790
      8 C           0.9339    2.0369    0.5583 C.ar    1  LIG1        0.2071
      9 O           1.7504    3.0455    1.0180 O.3     1  LIG1       -0.4884
     10 C           1.7718    4.2336    0.2272 C.3     1  LIG1        0.0791
     11 C           1.5153    0.7534    0.5537 C.ar    1  LIG1        0.2061
     12 O           2.8236    0.6103    0.9484 O.3     1  LIG1       -0.5008
     13 C           0.7812   -0.3813    0.2018 C.ar    1  LIG1        0.1843
     14 O           1.4163   -1.6011    0.2075 O.2     1  LIG1       -0.4508
     15 C           0.6644   -2.7307   -0.0130 C.ar    1  LIG1        0.1394
     16 C           1.3318   -3.9553    0.0462 C.ar    1  LIG1       -0.0186
     17 C           0.6256   -5.1490   -0.1348 C.ar    1  LIG1       -0.0582
     18 C          -0.7496   -5.1232   -0.3728 C.ar    1  LIG1       -0.0609
     19 C          -1.4184   -3.9024   -0.4470 C.ar    1  LIG1       -0.0474
     20 C          -0.7029   -2.7133   -0.2748 C.ar    1  LIG1        0.0646
     21 H          -2.2310    1.1005   -0.3068 H       1  LIG1        0.0664
     22 H          -3.0362    3.1147    0.0412 H       1  LIG1        0.0660
     23 H          -2.0374    3.4239   -1.4333 H       1  LIG1        0.0660
     24 H          -2.4089    4.7289   -0.2973 H       1  LIG1        0.0660
     25 H           2.4054    4.9586    0.7491 H       1  LIG1        0.0660
     26 H           0.7985    4.7116    0.1128 H       1  LIG1        0.0660
     27 H           2.2177    4.0396   -0.7532 H       1  LIG1        0.0660
     28 H           3.0819    1.4792    1.3129 H       1  LIG1        0.2924
     29 H           2.4017   -3.9833    0.2376 H       1  LIG1        0.0654
     30 H           1.1479   -6.1018   -0.0850 H       1  LIG1        0.0619
     31 H          -1.3002   -6.0521   -0.5022 H       1  LIG1        0.0618
     32 H          -2.4897   -3.8772   -0.6341 H       1  LIG1        0.0626
@<TRIPOS>BOND
     1     1     2    2
     2     2     3   ar
     3     3     4   ar
     4     4     5   ar
     5     5     6    1
     6     6     7    1
     7     5     8   ar
     8     8     9    1
     9     9    10    1
    10     8    11   ar
    11    11    12    1
    12    11    13   ar
    13     3    13   ar
    14    13    14   ar
    15    14    15   ar
    16    15    16   ar
    17    16    17   ar
    18    17    18   ar
    19    18    19   ar
    20    19    20   ar
    21    15    20   ar
    22     2    20   ar
    23     4    21    1
    24     7    22    1
    25     7    23    1
    26     7    24    1
    27    10    25    1
    28    10    26    1
    29    10    27    1
    30    12    28    1
    31    16    29    1
    32    17    30    1
    33    18    31    1
    34    19    32    1
