REMARK  Name = NuBBE_473
REMARK  6 active torsions:
REMARK  status: ('A' for Active; 'I' for Inactive)
REMARK    1  A    between atoms: C_2  and  C_3
REMARK    2  A    between atoms: C_2  and  O_20
REMARK    3  A    between atoms: C_6  and  O_19
REMARK    4  A    between atoms: C_10  and  O_16
REMARK    5  A    between atoms: C_13  and  C_15
REMARK    6  A    between atoms: O_20  and  C_21
REMARK                            x       y       z     vdW  Elec       q    Type
REMARK                         _______ _______ _______ _____ _____    ______ ____
ROOT
ATOM      1  C   LIG A   1       0.290   1.226  -0.030  0.00  0.00    +0.077 C 
ATOM      2  C   LIG A   1       0.890   1.331  -1.226  0.00  0.00    +0.201 C 
ATOM      3  O   LIG A   1       1.716   0.400  -1.799  0.00  0.00    -0.470 OA
ATOM      4  C   LIG A   1       2.168  -0.645  -0.936  0.00  0.00    +0.308 C 
ATOM      5  C   LIG A   1       1.104  -1.153   0.036  0.00  0.00    +0.071 C 
ATOM      6  C   LIG A   1       0.460  -0.001   0.836  0.00  0.00    +0.067 C 
ATOM      7  C   LIG A   1      -0.860  -0.628   1.343  0.00  0.00    +0.123 C 
ATOM      8  C   LIG A   1      -1.146  -1.857   0.474  0.00  0.00    +0.035 C 
ATOM      9  C   LIG A   1      -0.106  -1.818  -0.645  0.00  0.00    -0.002 C 
ATOM     10  C   LIG A   1       0.183  -3.197  -1.218  0.00  0.00    +0.008 C 
ENDROOT
BRANCH   1  12
ATOM     11  O   LIG A   1      -0.837   2.463   1.671  0.00  0.00    -0.245 OA
ATOM     12  C   LIG A   1      -0.539   2.345   0.491  0.00  0.00    +0.338 C 
BRANCH  12  13
ATOM     13  O   LIG A   1      -0.953   3.156  -0.514  0.00  0.00    -0.465 OA
ATOM     14  C   LIG A   1      -1.795   4.238  -0.112  0.00  0.00    +0.280 C 
ENDBRANCH  12  13
ENDBRANCH   1  12
BRANCH   7  15
ATOM     15  O   LIG A   1      -0.674  -1.058   2.692  0.00  0.00    -0.391 OA
ATOM     16  H   LIG A   1      -1.545  -1.323   3.035  0.00  0.00    +0.210 HD
ENDBRANCH   7  15
BRANCH   4  17
ATOM     17  O   LIG A   1       3.340  -0.231  -0.241  0.00  0.00    -0.357 OA
ATOM     18  H   LIG A   1       3.064   0.425   0.417  0.00  0.00    +0.213 HD
ENDBRANCH   4  17
TORSDOF 4
