@<TRIPOS>MOLECULE
NuBBE_1080
 48 51 0 0 0
SMALL
GASTEIGER

@<TRIPOS>ATOM
      1 O          -3.2304   -2.6090    0.3357 O.2     1  LIG1       -0.2864
      2 C          -2.0218   -2.5691    0.1187 C.ar    1  LIG1        0.2008
      3 C          -1.2479   -1.2966    0.0698 C.ar    1  LIG1        0.0912
      4 C           0.1657   -1.3635    0.2324 C.ar    1  LIG1        0.1025
      5 N           0.8071   -2.6500    0.3774 N.ar    1  LIG1       -0.3369
      6 C           0.0947   -3.8326    0.0075 C.ar    1  LIG1        0.0950
      7 C           0.7731   -5.0283   -0.2778 C.ar    1  LIG1        0.1409
      8 C           0.0915   -6.2052   -0.5764 C.ar    1  LIG1       -0.0181
      9 C          -1.3021   -6.2002   -0.6199 C.ar    1  LIG1       -0.0575
     10 C          -1.9997   -5.0141   -0.3864 C.ar    1  LIG1       -0.0487
     11 C          -1.2982   -3.8358   -0.0933 C.ar    1  LIG1        0.0495
     12 O           2.1416   -5.0512   -0.3156 O.3     1  LIG1       -0.5047
     13 C           1.2650   -2.7987    1.7834 C.3     1  LIG1        0.0126
     14 C           0.9394   -0.1669    0.2066 C.ar    1  LIG1        0.1862
     15 O           2.2953   -0.3138    0.3541 O.3     1  LIG1       -0.4895
     16 C           3.1058    0.8542    0.3132 C.3     1  LIG1        0.0791
     17 C           0.2649    1.0340    0.0089 C.ar    1  LIG1        0.1713
     18 O           0.8370    2.2854   -0.0494 O.3     1  LIG1       -0.4815
     19 C          -0.1855    3.1321   -0.6403 C.3     1  LIG1        0.1325
     20 C          -1.5394    2.5028   -0.2952 C.3     1  LIG1        0.0193
     21 C          -1.1163    1.0886   -0.1445 C.ar    1  LIG1        0.0437
     22 C          -1.8860   -0.0599   -0.1050 C.ar    1  LIG1        0.1366
     23 O          -3.2347    0.0244   -0.2731 O.3     1  LIG1       -0.5056
     24 C          -0.0117    4.5873   -0.1441 C.3     1  LIG1        0.0974
     25 O          -0.1178    4.6303    1.2847 O.3     1  LIG1       -0.3855
     26 C           1.3673    5.1420   -0.5206 C.3     1  LIG1       -0.0328
     27 C          -1.1052    5.4951   -0.7102 C.3     1  LIG1       -0.0328
     28 H           0.6441   -7.1161   -0.7892 H       1  LIG1        0.0655
     29 H          -1.8445   -7.1128   -0.8548 H       1  LIG1        0.0619
     30 H          -3.0866   -5.0033   -0.4413 H       1  LIG1        0.0625
     31 H           2.4113   -4.1113   -0.3182 H       1  LIG1        0.2922
     32 H           1.8975   -1.9658    2.1067 H       1  LIG1        0.0456
     33 H           1.8744   -3.7001    1.9161 H       1  LIG1        0.0456
     34 H           0.4140   -2.8622    2.4747 H       1  LIG1        0.0456
     35 H           4.1358    0.5558    0.5300 H       1  LIG1        0.0660
     36 H           2.8188    1.5751    1.0859 H       1  LIG1        0.0660
     37 H           3.0953    1.3007   -0.6866 H       1  LIG1        0.0660
     38 H          -0.0283    3.1003   -1.7288 H       1  LIG1        0.0765
     39 H          -2.2639    2.6549   -1.1002 H       1  LIG1        0.0352
     40 H          -1.9494    2.8635    0.6532 H       1  LIG1        0.0352
     41 H          -3.5463    0.9203   -0.0729 H       1  LIG1        0.2922
     42 H           0.5739    4.0397    1.6383 H       1  LIG1        0.2103
     43 H           2.1732    4.5702   -0.0473 H       1  LIG1        0.0258
     44 H           1.4790    6.1741   -0.1679 H       1  LIG1        0.0258
     45 H           1.5220    5.1305   -1.6044 H       1  LIG1        0.0258
     46 H          -2.0981    5.1848   -0.3667 H       1  LIG1        0.0258
     47 H          -1.0988    5.4944   -1.8049 H       1  LIG1        0.0258
     48 H          -0.9752    6.5261   -0.3623 H       1  LIG1        0.0258
@<TRIPOS>BOND
     1     1     2    2
     2     2     3   ar
     3     3     4   ar
     4     4     5   ar
     5     5     6   ar
     6     6     7   ar
     7     7     8   ar
     8     8     9   ar
     9     9    10   ar
    10    10    11   ar
    11     6    11   ar
    12     2    11   ar
    13     7    12    1
    14     5    13    1
    15     4    14   ar
    16    14    15    1
    17    15    16    1
    18    14    17   ar
    19    17    18    1
    20    18    19    1
    21    19    20    1
    22    20    21    1
    23    17    21   ar
    24    21    22   ar
    25     3    22   ar
    26    22    23    1
    27    19    24    1
    28    24    25    1
    29    24    26    1
    30    24    27    1
    31     8    28    1
    32     9    29    1
    33    10    30    1
    34    12    31    1
    35    13    32    1
    36    13    33    1
    37    13    34    1
    38    16    35    1
    39    16    36    1
    40    16    37    1
    41    19    38    1
    42    20    39    1
    43    20    40    1
    44    23    41    1
    45    25    42    1
    46    26    43    1
    47    26    44    1
    48    26    45    1
    49    27    46    1
    50    27    47    1
    51    27    48    1
