REMARK  Name = NuBBE_190
REMARK  8 active torsions:
REMARK  status: ('A' for Active; 'I' for Inactive)
REMARK    1  A    between atoms: C_1  and  C_2
REMARK    2  A    between atoms: C_2  and  C_35
REMARK    3  A    between atoms: C_6  and  C_33
REMARK    4  A    between atoms: C_11  and  C_32
REMARK    5  A    between atoms: C_16  and  C_31
REMARK    6  A    between atoms: C_19  and  C_30
REMARK    7  A    between atoms: C_22  and  C_29
REMARK    8  A    between atoms: C_24  and  C_28
REMARK                            x       y       z     vdW  Elec       q    Type
REMARK                         _______ _______ _______ _____ _____    ______ ____
ROOT
ATOM      1  C   LIG A   1      -5.090  -1.217   0.755  0.00  0.00    +0.019 C 
ATOM      2  C   LIG A   1      -4.078  -1.512  -0.381  0.00  0.00    +0.027 C 
ATOM      3  C   LIG A   1      -4.356  -0.427  -1.452  0.00  0.00    +0.139 C 
ATOM      4  C   LIG A   1      -3.436  -0.322  -2.626  0.00  0.00    +0.075 C 
ATOM      5  C   LIG A   1      -1.987  -0.323  -2.178  0.00  0.00    +0.015 C 
ATOM      6  C   LIG A   1      -1.554  -1.529  -1.258  0.00  0.00    -0.024 C 
ATOM      7  C   LIG A   1      -2.513  -1.352  -0.011  0.00  0.00    +0.008 C 
ATOM      8  C   LIG A   1      -1.925  -2.033   1.233  0.00  0.00    +0.005 C 
ATOM      9  C   LIG A   1      -0.486  -1.454   1.563  0.00  0.00    +0.008 C 
ATOM     10  C   LIG A   1       0.648  -1.829   0.549  0.00  0.00    -0.019 C 
ATOM     11  C   LIG A   1       0.051  -1.573  -0.956  0.00  0.00    +0.006 C 
ATOM     12  C   LIG A   1       0.705  -0.458  -1.808  0.00  0.00    +0.031 C 
ATOM     13  C   LIG A   1       2.154  -0.284  -1.554  0.00  0.00    -0.026 C 
ATOM     14  C   LIG A   1       2.297   0.033  -0.258  0.00  0.00    -0.063 C 
ATOM     15  C   LIG A   1       2.232  -1.134   0.725  0.00  0.00    -0.005 C 
ATOM     16  C   LIG A   1       2.788  -0.704   2.137  0.00  0.00    +0.012 C 
ATOM     17  C   LIG A   1       3.500   0.690   2.163  0.00  0.00    +0.008 C 
ATOM     18  C   LIG A   1       2.559   1.799   1.635  0.00  0.00    -0.025 C 
ATOM     19  C   LIG A   1       2.389   1.509   0.124  0.00  0.00    +0.024 C 
ATOM     20  C   LIG A   1       1.473   2.545  -0.618  0.00  0.00    -0.004 C 
ATOM     21  C   LIG A   1       2.081   3.961  -0.455  0.00  0.00    -0.011 C 
ATOM     22  C   LIG A   1       2.301   4.302   1.028  0.00  0.00    +0.004 C 
ATOM     23  C   LIG A   1       3.149   3.233   1.757  0.00  0.00    +0.007 C 
ATOM     24  C   LIG A   1       1.276   5.039  -1.192  0.00  0.00    +0.008 C 
ATOM     25  C   LIG A   1      -0.013   2.501  -0.222  0.00  0.00    +0.008 C 
ATOM     26  C   LIG A   1       1.295   1.748   2.507  0.00  0.00    +0.012 C 
ATOM     27  C   LIG A   1       3.338  -2.179   0.269  0.00  0.00    +0.016 C 
ATOM     28  C   LIG A   1       0.828  -3.372   0.779  0.00  0.00    +0.012 C 
ATOM     29  C   LIG A   1      -1.756  -2.820  -2.089  0.00  0.00    +0.012 C 
ATOM     30  O   LIG A   1      -5.347   0.344  -1.398  0.00  0.00    -0.297 OA
ATOM     31  C   LIG A   1      -4.496  -2.897  -0.928  0.00  0.00    +0.019 C 
ENDROOT
TORSDOF 0
