@<TRIPOS>MOLECULE
NuBBE_974
 49 50 0 0 0
SMALL
GASTEIGER

@<TRIPOS>ATOM
      1 O          -5.0246    2.1040   -1.7402 O.2     1  LIG1       -0.2702
      2 C          -3.8114    1.9191   -1.5326 C.2     1  LIG1        0.2441
      3 N          -3.2577    0.6885   -1.2880 N.am    1  LIG1       -0.3110
      4 C          -4.0171   -0.5484   -1.2764 C.3     1  LIG1        0.0159
      5 C          -3.9084   -1.2795    0.0679 C.3     1  LIG1       -0.0120
      6 C          -2.4924   -1.6694    0.4463 C.ar    1  LIG1       -0.0457
      7 C          -1.7341   -2.5225   -0.3620 C.ar    1  LIG1       -0.0551
      8 C          -0.3887   -2.7640   -0.0648 C.ar    1  LIG1       -0.0197
      9 C           0.2269   -2.1581    1.0337 C.ar    1  LIG1        0.1206
     10 O           1.5788   -2.3476    1.0957 O.3     1  LIG1       -0.4893
     11 C           2.2964   -1.8392    2.2197 C.3     1  LIG1        0.1185
     12 C           3.8138   -2.0709    2.0543 C.3     1  LIG1        0.1240
     13 O           4.0394   -3.4907    1.9241 O.3     1  LIG1       -0.3851
     14 C           4.5480   -1.3199    0.9127 C.3     1  LIG1        0.1465
     15 C           4.5305    0.1998    1.0672 C.2     1  LIG1        0.1540
     16 O           5.5226    0.8935    0.8313 O.2     1  LIG1       -0.2979
     17 O           5.9388   -1.7245    0.9972 O.3     1  LIG1       -0.3789
     18 C           4.0715   -1.6371   -0.4992 C.3     1  LIG1       -0.0268
     19 C          -0.5505   -1.4007    1.9060 C.ar    1  LIG1       -0.0197
     20 C          -1.9034   -1.1630    1.6146 C.ar    1  LIG1       -0.0551
     21 H          -2.2393    0.5957   -1.2653 H       1  LIG1        0.1490
     22 C          -2.8744    3.0673   -1.5801 C.ar    1  LIG1        0.0367
     23 C          -1.6898    3.0825   -0.8082 C.ar    1  LIG1       -0.0496
     24 C          -0.8187    4.1660   -0.8897 C.ar    1  LIG1       -0.0610
     25 C          -1.1126    5.2425   -1.7259 C.ar    1  LIG1       -0.0617
     26 C          -2.2882    5.2424   -2.4783 C.ar    1  LIG1       -0.0610
     27 C          -3.1658    4.1625   -2.4007 C.ar    1  LIG1       -0.0496
     28 H          -3.6353   -1.1618   -2.0990 H       1  LIG1        0.0465
     29 H          -5.0723   -0.3348   -1.4913 H       1  LIG1        0.0465
     30 H          -4.5271   -2.1838    0.0410 H       1  LIG1        0.0328
     31 H          -4.3314   -0.6303    0.8455 H       1  LIG1        0.0328
     32 H          -2.1692   -2.9892   -1.2432 H       1  LIG1        0.0621
     33 H           0.1954   -3.4184   -0.7096 H       1  LIG1        0.0654
     34 H           1.9635   -2.3955    3.1040 H       1  LIG1        0.0724
     35 H           2.1034   -0.7709    2.3669 H       1  LIG1        0.0724
     36 H           4.2923   -1.7968    3.0039 H       1  LIG1        0.0660
     37 H           5.0086   -3.5922    1.7934 H       1  LIG1        0.2101
     38 H           3.5649    0.6707    1.3050 H       1  LIG1        0.1058
     39 H           6.4676   -0.9680    0.6616 H       1  LIG1        0.2108
     40 H           3.0187   -1.3816   -0.6430 H       1  LIG1        0.0262
     41 H           4.2321   -2.6902   -0.7480 H       1  LIG1        0.0262
     42 H           4.6367   -1.0518   -1.2369 H       1  LIG1        0.0262
     43 H          -0.1383   -0.9625    2.8082 H       1  LIG1        0.0654
     44 H          -2.4925   -0.5553    2.2998 H       1  LIG1        0.0621
     45 H          -1.4640    2.2703   -0.1276 H       1  LIG1        0.0625
     46 H           0.0910    4.1732   -0.2940 H       1  LIG1        0.0618
     47 H          -0.4290    6.0854   -1.7851 H       1  LIG1        0.0618
     48 H          -2.5191    6.0883   -3.1232 H       1  LIG1        0.0618
     49 H          -4.0855    4.1671   -2.9878 H       1  LIG1        0.0625
@<TRIPOS>BOND
     1     1     2    2
     2     2     3   am
     3     3     4    1
     4     4     5    1
     5     5     6    1
     6     6     7   ar
     7     7     8   ar
     8     8     9   ar
     9     9    10    1
    10    10    11    1
    11    11    12    1
    12    12    13    1
    13    12    14    1
    14    14    15    1
    15    15    16    2
    16    14    17    1
    17    14    18    1
    18     9    19   ar
    19    19    20   ar
    20     6    20   ar
    21     3    21    1
    22     2    22    1
    23    22    23   ar
    24    23    24   ar
    25    24    25   ar
    26    25    26   ar
    27    26    27   ar
    28    22    27   ar
    29     4    28    1
    30     4    29    1
    31     5    30    1
    32     5    31    1
    33     7    32    1
    34     8    33    1
    35    11    34    1
    36    11    35    1
    37    12    36    1
    38    13    37    1
    39    15    38    1
    40    17    39    1
    41    18    40    1
    42    18    41    1
    43    18    42    1
    44    19    43    1
    45    20    44    1
    46    23    45    1
    47    24    46    1
    48    25    47    1
    49    26    48    1
    50    27    49    1
