@<TRIPOS>MOLECULE
NuBBE_1628
 64 64 0 0 0
SMALL
GASTEIGER

@<TRIPOS>ATOM
      1 C           1.2623    0.6760    5.4884 C.3     1  LIG1        0.0579
      2 C           0.8009   -0.4158    6.4254 C.2     1  LIG1        0.3078
      3 O           0.4332   -1.5463    6.0792 O.2     1  LIG1       -0.2508
      4 O           0.8407    0.0138    7.7063 O.3     1  LIG1       -0.4679
      5 C           0.1539   -0.8359    8.6298 C.3     1  LIG1        0.0817
      6 C           1.0819    0.3784    3.9684 C.3     1  LIG1        0.0490
      7 C           1.3858    1.7208    3.2167 C.3     1  LIG1       -0.0212
      8 C           1.2174    1.6778    1.7157 C.2     1  LIG1       -0.0841
      9 C           0.1184    1.9853    0.9986 C.2     1  LIG1       -0.0762
     10 C           0.1332    1.8425   -0.5083 C.3     1  LIG1       -0.0286
     11 C          -0.3351    0.4541   -0.9710 C.3     1  LIG1       -0.0308
     12 C          -0.2992    0.3537   -2.4701 C.2     1  LIG1       -0.0847
     13 C          -0.5569   -0.7440   -3.2079 C.2     1  LIG1       -0.0762
     14 C          -0.4473   -0.7628   -4.7256 C.3     1  LIG1       -0.0286
     15 C          -0.0089    0.5534   -5.3964 C.3     1  LIG1       -0.0308
     16 C           0.0972    0.4510   -6.8899 C.2     1  LIG1       -0.0850
     17 C          -0.9128    0.2887   -7.7652 C.2     1  LIG1       -0.0796
     18 C          -2.3717    0.2388   -7.4014 C.3     1  LIG1       -0.0440
     19 C          -0.6229    0.1104   -9.2296 C.3     1  LIG1       -0.0440
     20 C          -0.9894   -2.0582   -2.6062 C.3     1  LIG1       -0.0438
     21 C          -1.1814    2.4818    1.5711 C.3     1  LIG1       -0.0438
     22 C          -0.3988    0.0350    3.7625 C.2     1  LIG1        0.1629
     23 O          -1.2962    0.8110    4.0937 O.2     1  LIG1       -0.2921
     24 C          -0.7970   -1.2932    3.2536 C.2     1  LIG1       -0.0202
     25 C           0.0923   -2.2775    3.1020 C.2     1  LIG1       -0.0526
     26 C           1.5588   -2.1442    3.3171 C.3     1  LIG1        0.0747
     27 H           2.0611   -2.5862    2.4491 H       1  LIG1        0.0638
     28 C           2.0764   -0.7127    3.4765 C.3     1  LIG1       -0.0098
     29 O           1.9467   -2.9334    4.4312 O.3     1  LIG1       -0.3877
     30 H           2.3081    0.9110    5.7135 H       1  LIG1        0.0387
     31 H           0.6587    1.5617    5.7502 H       1  LIG1        0.0387
     32 H           0.4616   -0.5747    9.6411 H       1  LIG1        0.0661
     33 H           0.3767   -1.8987    8.4645 H       1  LIG1        0.0661
     34 H          -0.9209   -0.6577    8.5288 H       1  LIG1        0.0661
     35 H           0.7953    2.5453    3.6331 H       1  LIG1        0.0317
     36 H           2.4316    2.0026    3.4112 H       1  LIG1        0.0317
     37 H           2.1043    1.3558    1.1678 H       1  LIG1        0.0572
     38 H           1.1455    2.0331   -0.8905 H       1  LIG1        0.0313
     39 H          -0.4987    2.6215   -0.9553 H       1  LIG1        0.0313
     40 H          -1.3546    0.2652   -0.6161 H       1  LIG1        0.0310
     41 H           0.3265   -0.3116   -0.5468 H       1  LIG1        0.0310
     42 H          -0.0157    1.2748   -2.9732 H       1  LIG1        0.0572
     43 H          -1.4232   -1.0686   -5.1201 H       1  LIG1        0.0313
     44 H           0.2605   -1.5527   -5.0107 H       1  LIG1        0.0313
     45 H           0.9851    0.8304   -5.0186 H       1  LIG1        0.0310
     46 H          -0.6810    1.3802   -5.1356 H       1  LIG1        0.0310
     47 H           1.1159    0.5163   -7.2718 H       1  LIG1        0.0572
     48 H          -2.5586    0.3902   -6.3352 H       1  LIG1        0.0274
     49 H          -2.7964   -0.7313   -7.6802 H       1  LIG1        0.0274
     50 H          -2.9192    1.0236   -7.9329 H       1  LIG1        0.0274
     51 H           0.4524    0.0687   -9.4343 H       1  LIG1        0.0274
     52 H          -1.0473    0.9355   -9.8085 H       1  LIG1        0.0274
     53 H          -1.0578   -0.8305   -9.5826 H       1  LIG1        0.0274
     54 H          -1.1845   -1.9912   -1.5321 H       1  LIG1        0.0274
     55 H          -0.2177   -2.8194   -2.7588 H       1  LIG1        0.0274
     56 H          -1.9158   -2.4059   -3.0766 H       1  LIG1        0.0274
     57 H          -1.1163    2.7222    2.6329 H       1  LIG1        0.0274
     58 H          -1.9657    1.7303    1.4342 H       1  LIG1        0.0274
     59 H          -1.4938    3.4044    1.0719 H       1  LIG1        0.0274
     60 H          -1.8598   -1.4484    3.1070 H       1  LIG1        0.0650
     61 H          -0.2659   -3.2634    2.8154 H       1  LIG1        0.0598
     62 H           2.4475   -0.4350    2.4839 H       1  LIG1        0.0303
     63 H           2.9702   -0.7082    4.1146 H       1  LIG1        0.0303
     64 H           1.4104   -2.6379    5.1958 H       1  LIG1        0.2102
@<TRIPOS>BOND
     1     1     2    1
     2     2     3    2
     3     2     4    1
     4     4     5    1
     5     7     8    1
     6     8     9    2
     7     9    10    1
     8    10    11    1
     9    11    12    1
    10    12    13    2
    11    13    14    1
    12    14    15    1
    13    15    16    1
    14    16    17    2
    15    17    18    1
    16    17    19    1
    17    13    20    1
    18     9    21    1
    19     6    22    1
    20    22    23    2
    21    22    24    1
    22    24    25    2
    23    25    26    1
    24    26    27    1
    25    26    28    1
    26     6    28    1
    27    26    29    1
    28     6     7    1
    29     6     1    1
    30     1    30    1
    31     1    31    1
    32     5    32    1
    33     5    33    1
    34     5    34    1
    35     7    35    1
    36     7    36    1
    37     8    37    1
    38    10    38    1
    39    10    39    1
    40    11    40    1
    41    11    41    1
    42    12    42    1
    43    14    43    1
    44    14    44    1
    45    15    45    1
    46    15    46    1
    47    16    47    1
    48    18    48    1
    49    18    49    1
    50    18    50    1
    51    19    51    1
    52    19    52    1
    53    19    53    1
    54    20    54    1
    55    20    55    1
    56    20    56    1
    57    21    57    1
    58    21    58    1
    59    21    59    1
    60    24    60    1
    61    25    61    1
    62    28    62    1
    63    28    63    1
    64    29    64    1
