@<TRIPOS>MOLECULE
NuBBE_2304
 54 59 0 0 0
SMALL
GASTEIGER

@<TRIPOS>ATOM
      1 C           3.9000   -0.1050   -0.1858 C.ar    1  LIG1        0.1385
      2 C           4.2830   -1.2379   -0.9076 C.ar    1  LIG1       -0.0183
      3 C           3.3311   -2.1651   -1.3325 C.ar    1  LIG1       -0.0579
      4 C           1.9893   -1.9810   -1.0110 C.ar    1  LIG1       -0.0559
      5 C           1.6114   -0.8611   -0.2666 C.ar    1  LIG1       -0.0126
      6 C           0.2282   -0.5360    0.2928 C.3     1  LIG1        0.0365
      7 C          -0.9188   -0.8446   -0.6666 C.3     1  LIG1        0.0277
      8 C          -1.9766    0.2626   -0.8273 C.3     1  LIG1       -0.0127
      9 C          -1.2539    1.4802   -1.4313 C.3     1  LIG1       -0.0439
     10 C           0.0731    1.8275   -0.7222 C.3     1  LIG1       -0.0296
     11 C           0.4025    1.0002    0.5765 C.3     1  LIG1        0.0534
     12 N           1.9061    1.1529    0.8462 N.am    1  LIG1       -0.2611
     13 C           2.5538    0.0979    0.1259 C.ar    1  LIG1        0.0823
     14 C           2.5606    2.3303    1.1708 C.2     1  LIG1        0.2173
     15 O           3.5460    2.7563    0.5612 O.2     1  LIG1       -0.2755
     16 C           2.1040    3.0732    2.3955 C.3     1  LIG1        0.0127
     17 C          -0.5016    1.5064    1.7191 C.3     1  LIG1       -0.0301
     18 C          -1.9787    1.7003    1.3940 C.3     1  LIG1       -0.0505
     19 C          -2.6676    0.6625    0.5204 C.3     1  LIG1       -0.0458
     20 C          -3.0979   -0.2934   -1.7847 C.3     1  LIG1       -0.0448
     21 C          -2.9224   -1.7775   -2.1798 C.3     1  LIG1       -0.0396
     22 C          -2.4694   -2.6951   -1.0251 C.3     1  LIG1       -0.0008
     23 N          -1.6312   -1.9765   -0.0935 N.3     1  LIG1       -0.2979
     24 C          -0.7821   -2.6853    0.8332 C.3     1  LIG1        0.0001
     25 C          -0.0242   -1.5130    1.4704 C.3     1  LIG1       -0.0270
     26 O           4.9248    0.7254    0.1576 O.3     1  LIG1       -0.5049
     27 H           5.3323   -1.3892   -1.1491 H       1  LIG1        0.0655
     28 H           3.6429   -3.0364   -1.9027 H       1  LIG1        0.0619
     29 H           1.2630   -2.7211   -1.3323 H       1  LIG1        0.0621
     30 H          -0.5011   -1.0977   -1.6510 H       1  LIG1        0.0477
     31 H          -1.9156    2.3554   -1.4357 H       1  LIG1        0.0272
     32 H          -1.0249    1.2860   -2.4881 H       1  LIG1        0.0272
     33 H           0.0904    2.9012   -0.4915 H       1  LIG1        0.0286
     34 H           0.8767    1.6953   -1.4601 H       1  LIG1        0.0286
     35 H           1.6596    2.3971    3.1295 H       1  LIG1        0.0323
     36 H           1.4194    3.8762    2.1147 H       1  LIG1        0.0323
     37 H           2.9797    3.5220    2.8769 H       1  LIG1        0.0323
     38 H          -0.1902    2.5045    2.0242 H       1  LIG1        0.0286
     39 H          -0.3787    0.8999    2.6211 H       1  LIG1        0.0286
     40 H          -2.1007    2.6831    0.9183 H       1  LIG1        0.0266
     41 H          -2.5316    1.7841    2.3389 H       1  LIG1        0.0266
     42 H          -3.6524    1.0943    0.2926 H       1  LIG1        0.0271
     43 H          -2.8872   -0.2212    1.1300 H       1  LIG1        0.0271
     44 H          -3.1494    0.3055   -2.7023 H       1  LIG1        0.0271
     45 H          -4.0868   -0.1983   -1.3196 H       1  LIG1        0.0271
     46 H          -2.1770   -1.8298   -2.9847 H       1  LIG1        0.0278
     47 H          -3.8563   -2.1581   -2.6098 H       1  LIG1        0.0278
     48 H          -1.9466   -3.5596   -1.4512 H       1  LIG1        0.0427
     49 H          -3.3500   -3.0731   -0.4940 H       1  LIG1        0.0427
     50 H          -0.1050   -3.3835    0.3335 H       1  LIG1        0.0427
     51 H          -1.3576   -3.2356    1.5839 H       1  LIG1        0.0427
     52 H           0.8872   -1.8514    1.9756 H       1  LIG1        0.0287
     53 H          -0.6790   -1.0786    2.2315 H       1  LIG1        0.0287
     54 H           4.5494    1.6250    0.2717 H       1  LIG1        0.2922
@<TRIPOS>BOND
     1     1     2   ar
     2     2     3   ar
     3     3     4   ar
     4     4     5   ar
     5     5     6    1
     6     6     7    1
     7     7     8    1
     8     8     9    1
     9     9    10    1
    10    10    11    1
    11     6    11    1
    12    11    12    1
    13    12    13    1
    14     1    13   ar
    15     5    13   ar
    16    12    14   am
    17    14    15    2
    18    14    16    1
    19    11    17    1
    20    17    18    1
    21    18    19    1
    22     8    19    1
    23     8    20    1
    24    20    21    1
    25    21    22    1
    26    22    23    1
    27     7    23    1
    28    23    24    1
    29    24    25    1
    30     6    25    1
    31     1    26    1
    32     2    27    1
    33     3    28    1
    34     4    29    1
    35     7    30    1
    36     9    31    1
    37     9    32    1
    38    10    33    1
    39    10    34    1
    40    16    35    1
    41    16    36    1
    42    16    37    1
    43    17    38    1
    44    17    39    1
    45    18    40    1
    46    18    41    1
    47    19    42    1
    48    19    43    1
    49    20    44    1
    50    20    45    1
    51    21    46    1
    52    21    47    1
    53    22    48    1
    54    22    49    1
    55    24    50    1
    56    24    51    1
    57    25    52    1
    58    25    53    1
    59    26    54    1
