REMARK  Name = NuBBE_146
REMARK  10 active torsions:
REMARK  status: ('A' for Active; 'I' for Inactive)
REMARK    1  A    between atoms: C_1  and  C_2
REMARK    2  A    between atoms: C_2  and  C_39
REMARK    3  A    between atoms: C_3  and  O_38
REMARK    4  A    between atoms: C_7  and  C_37
REMARK    5  A    between atoms: C_12  and  C_36
REMARK    6  A    between atoms: C_18  and  C_34
REMARK    7  A    between atoms: C_21  and  C_31
REMARK    8  A    between atoms: C_24  and  C_28
REMARK    9  A    between atoms: C_28  and  C_29
REMARK   10  A    between atoms: C_31  and  O_32
REMARK                            x       y       z     vdW  Elec       q    Type
REMARK                         _______ _______ _______ _____ _____    ______ ____
ROOT
ATOM      1  C   LIG A   1      -5.675  -0.006  -1.709  0.00  0.00    +0.014 C 
ATOM      2  C   LIG A   1      -4.774   1.093  -1.079  0.00  0.00    -0.006 C 
ATOM      3  C   LIG A   1      -4.608   2.224  -2.140  0.00  0.00    +0.120 C 
ATOM      4  C   LIG A   1      -3.540   3.250  -1.786  0.00  0.00    +0.032 C 
ATOM      5  C   LIG A   1      -2.186   2.613  -1.481  0.00  0.00    +0.010 C 
ATOM      6  C   LIG A   1      -2.230   1.523  -0.366  0.00  0.00    -0.025 C 
ATOM      7  C   LIG A   1      -3.352   0.488  -0.762  0.00  0.00    +0.003 C 
ATOM      8  C   LIG A   1      -3.361  -0.721   0.198  0.00  0.00    +0.005 C 
ATOM      9  C   LIG A   1      -2.017  -1.458   0.183  0.00  0.00    +0.008 C 
ATOM     10  C   LIG A   1      -0.788  -0.578   0.542  0.00  0.00    -0.023 C 
ATOM     11  C   LIG A   1      -0.840   0.733  -0.353  0.00  0.00    +0.002 C 
ATOM     12  C   LIG A   1       0.402   1.625  -0.128  0.00  0.00    +0.005 C 
ATOM     13  C   LIG A   1       1.717   0.878  -0.363  0.00  0.00    +0.005 C 
ATOM     14  C   LIG A   1       1.821  -0.376   0.504  0.00  0.00    +0.000 C 
ATOM     15  C   LIG A   1       0.612  -1.371   0.264  0.00  0.00    -0.023 C 
ATOM     16  C   LIG A   1       0.779  -2.631   1.194  0.00  0.00    +0.008 C 
ATOM     17  C   LIG A   1       2.195  -3.244   1.249  0.00  0.00    +0.019 C 
ATOM     18  C   LIG A   1       3.263  -2.174   1.541  0.00  0.00    +0.071 C 
ATOM     19  C   LIG A   1       3.173  -1.124   0.414  0.00  0.00    +0.017 C 
ATOM     20  C   LIG A   1       4.526  -0.372   0.432  0.00  0.00    +0.018 C 
ATOM     21  C   LIG A   1       5.506  -1.408   1.055  0.00  0.00    +0.009 C 
ATOM     22  C   LIG A   1       4.699  -2.670   1.385  0.00  0.00    +0.019 C 
ATOM     23  C   LIG A   1       0.652  -1.919  -1.202  0.00  0.00    +0.012 C 
ATOM     24  C   LIG A   1      -0.902  -0.241   2.058  0.00  0.00    +0.012 C 
ATOM     25  C   LIG A   1      -2.498   2.249   0.975  0.00  0.00    +0.012 C 
ATOM     26  C   LIG A   1      -5.528   1.599   0.166  0.00  0.00    +0.014 C 
ENDROOT
BRANCH  20  27
ATOM     27  C   LIG A   1       5.082   0.146  -0.899  0.00  0.00    -0.076 C 
ATOM     28  C   LIG A   1       6.366   0.935  -0.804  0.00  0.00    +0.038 C 
ATOM     29  C   LIG A   1       4.530  -0.053  -2.109  0.00  0.00    +0.007 C 
ENDBRANCH  20  27
BRANCH  18  30
ATOM     30  C   LIG A   1       3.099  -1.687   2.988  0.00  0.00    +0.311 C 
ATOM     31  O   LIG A   1       2.715  -2.363   3.934  0.00  0.00    -0.250 OA
BRANCH  30  32
ATOM     32  O   LIG A   1       3.481  -0.418   3.210  0.00  0.00    -0.480 OA
ATOM     33  H   LIG A   1       3.329  -0.289   4.170  0.00  0.00    +0.295 HD
ENDBRANCH  30  32
ENDBRANCH  18  30
BRANCH   3  34
ATOM     34  O   LIG A   1      -5.825   2.943  -2.344  0.00  0.00    -0.391 OA
ATOM     35  H   LIG A   1      -6.452   2.354  -2.794  0.00  0.00    +0.210 HD
ENDBRANCH   3  34
TORSDOF 4
