REMARK  Name = NuBBE_2372
REMARK  4 active torsions:
REMARK  status: ('A' for Active; 'I' for Inactive)
REMARK    1  A    between atoms: C_5  and  C_7
REMARK    2  A    between atoms: C_7  and  C_8
REMARK    3  A    between atoms: C_14  and  C_16
REMARK    4  A    between atoms: C_16  and  C_17
REMARK                            x       y       z     vdW  Elec       q    Type
REMARK                         _______ _______ _______ _____ _____    ______ ____
ROOT
ATOM      1  C   LIG A   1       2.189   0.837   1.705  0.00  0.00    +0.109 C 
ATOM      2  C   LIG A   1       3.466   1.468   2.204  0.00  0.00    +0.311 C 
ATOM      3  O   LIG A   1       3.674   2.656   2.335  0.00  0.00    -0.251 OA
ATOM      4  O   LIG A   1       4.380   0.488   2.489  0.00  0.00    -0.464 OA
ATOM      5  C   LIG A   1       3.777  -0.801   2.330  0.00  0.00    +0.236 C 
ATOM      6  C   LIG A   1       2.619  -0.600   1.380  0.00  0.00    +0.045 C 
ENDROOT
BRANCH   1   7
ATOM      7  C   LIG A   1       1.111   0.959   2.787  0.00  0.00    +0.050 C 
BRANCH   7  12
ATOM      8  C   LIG A   1      -2.050  -1.184   2.846  0.00  0.00    +0.050 A 
ATOM      9  C   LIG A   1      -2.691  -0.779   1.680  0.00  0.00    +0.162 A 
ATOM     10  C   LIG A   1      -2.096   0.178   0.855  0.00  0.00    +0.162 A 
ATOM     11  C   LIG A   1      -0.884   0.765   1.223  0.00  0.00    +0.053 A 
ATOM     12  C   LIG A   1      -0.220   0.357   2.392  0.00  0.00    -0.043 A 
ATOM     13  C   LIG A   1      -0.821  -0.619   3.201  0.00  0.00    +0.007 A 
ATOM     14  O   LIG A   1      -2.653   0.593  -0.329  0.00  0.00    -0.485 OA
ATOM     15  C   LIG A   1      -3.643  -0.339  -0.780  0.00  0.00    +0.270 C 
ATOM     16  C   LIG A   1      -4.593  -0.677   0.356  0.00  0.00    +0.270 C 
ATOM     17  O   LIG A   1      -3.899  -1.369   1.402  0.00  0.00    -0.485 OA
ENDBRANCH   7  12
ENDBRANCH   1   7
BRANCH   6  18
ATOM     18  C   LIG A   1       3.083  -0.766  -0.087  0.00  0.00    +0.042 C 
BRANCH  18  19
ATOM     19  C   LIG A   1       1.945  -0.657  -1.077  0.00  0.00    -0.043 A 
ATOM     20  C   LIG A   1       1.615   0.584  -1.642  0.00  0.00    +0.053 A 
ATOM     21  C   LIG A   1       0.515   0.707  -2.488  0.00  0.00    +0.162 A 
ATOM     22  C   LIG A   1      -0.270  -0.408  -2.786  0.00  0.00    +0.162 A 
ATOM     23  C   LIG A   1       0.078  -1.655  -2.272  0.00  0.00    +0.050 A 
ATOM     24  C   LIG A   1       1.177  -1.779  -1.416  0.00  0.00    +0.007 A 
ATOM     25  O   LIG A   1      -1.386  -0.351  -3.582  0.00  0.00    -0.485 OA
ATOM     26  C   LIG A   1      -1.800   1.001  -3.816  0.00  0.00    +0.270 C 
ATOM     27  C   LIG A   1      -0.608   1.893  -4.114  0.00  0.00    +0.270 C 
ATOM     28  O   LIG A   1       0.261   1.962  -2.979  0.00  0.00    -0.485 OA
ENDBRANCH  18  19
ENDBRANCH   6  18
TORSDOF 4
