@<TRIPOS>MOLECULE
NuBBE_2496
 51 53 0 0 0
SMALL
GASTEIGER

@<TRIPOS>ATOM
      1 C           1.1165   -3.7446    2.6256 C.3     1  LIG1       -0.0612
      2 C          -0.2049   -3.5680    1.8909 C.3     1  LIG1       -0.0300
      3 C          -0.0337   -2.8511    0.5611 C.ar    1  LIG1       -0.0413
      4 C           0.0350   -3.6072   -0.6318 C.ar    1  LIG1       -0.0470
      5 C          -0.0705   -5.1097   -0.6488 C.3     1  LIG1       -0.0394
      6 C           0.2001   -2.9472   -1.8517 C.ar    1  LIG1       -0.0583
      7 C           0.3266   -1.5614   -1.9055 C.ar    1  LIG1       -0.0575
      8 C           0.2762   -0.7703   -0.7457 C.ar    1  LIG1       -0.0377
      9 C           0.0898   -1.4303    0.4959 C.ar    1  LIG1       -0.0402
     10 C           0.0726   -0.5772    1.7395 C.3     1  LIG1       -0.0268
     11 C          -0.7235    0.6848    1.4656 C.3     1  LIG1       -0.0448
     12 C          -0.0160    1.5781    0.4304 C.3     1  LIG1       -0.0238
     13 H           0.8769    1.9452    0.9598 H       1  LIG1        0.0315
     14 C          -0.8624    2.8730    0.1086 C.3     1  LIG1       -0.0053
     15 C          -0.9179    3.7832    1.3678 C.3     1  LIG1       -0.0572
     16 C          -2.3343    2.5632   -0.2582 C.3     1  LIG1       -0.0572
     17 C          -0.2046    3.6800   -1.0383 C.3     1  LIG1        0.0607
     18 H          -0.8669    4.5060   -1.3259 H       1  LIG1        0.0599
     19 O           0.9960    4.3266   -0.6027 O.3     1  LIG1       -0.3912
     20 C           0.1120    2.8753   -2.2942 C.3     1  LIG1       -0.0255
     21 C           0.0087    1.3594   -2.1515 C.3     1  LIG1       -0.0410
     22 C           0.5375    0.7623   -0.8196 C.3     1  LIG1       -0.0033
     23 C           2.0907    0.8838   -0.8375 C.3     1  LIG1       -0.0553
     24 H           0.9551   -4.2801    3.5666 H       1  LIG1        0.0233
     25 H           1.5815   -2.7828    2.8624 H       1  LIG1        0.0233
     26 H           1.8288   -4.3212    2.0260 H       1  LIG1        0.0233
     27 H          -0.9293   -3.0401    2.5194 H       1  LIG1        0.0311
     28 H          -0.6631   -4.5523    1.7480 H       1  LIG1        0.0311
     29 H          -1.0811   -5.4218   -0.3676 H       1  LIG1        0.0278
     30 H           0.6598   -5.5558    0.0336 H       1  LIG1        0.0278
     31 H           0.1359   -5.5171   -1.6447 H       1  LIG1        0.0278
     32 H           0.2539   -3.5119   -2.7802 H       1  LIG1        0.0620
     33 H           0.4977   -1.1248   -2.8848 H       1  LIG1        0.0621
     34 H           1.1011   -0.3439    2.0386 H       1  LIG1        0.0313
     35 H          -0.4026   -1.0785    2.5846 H       1  LIG1        0.0313
     36 H          -0.8436    1.2265    2.4101 H       1  LIG1        0.0271
     37 H          -1.7275    0.4054    1.1255 H       1  LIG1        0.0271
     38 H          -1.5100    3.3345    2.1720 H       1  LIG1        0.0236
     39 H          -1.3802    4.7488    1.1310 H       1  LIG1        0.0236
     40 H           0.0812    3.9834    1.7701 H       1  LIG1        0.0236
     41 H          -2.9043    2.2222    0.6134 H       1  LIG1        0.0236
     42 H          -2.4374    1.7957   -1.0253 H       1  LIG1        0.0236
     43 H          -2.8422    3.4633   -0.6248 H       1  LIG1        0.0236
     44 H           1.5831    3.6663   -0.2034 H       1  LIG1        0.2098
     45 H           1.1122    3.1329   -2.6657 H       1  LIG1        0.0290
     46 H          -0.5829    3.1746   -3.0899 H       1  LIG1        0.0290
     47 H           0.5519    0.9428   -3.0093 H       1  LIG1        0.0275
     48 H          -1.0303    1.0495   -2.3091 H       1  LIG1        0.0275
     49 H           2.5285    0.3438   -1.6861 H       1  LIG1        0.0238
     50 H           2.5362    0.4656    0.0731 H       1  LIG1        0.0238
     51 H           2.4239    1.9214   -0.9176 H       1  LIG1        0.0238
@<TRIPOS>BOND
     1     1     2    1
     2     2     3    1
     3     3     4   ar
     4     4     5    1
     5     4     6   ar
     6     6     7   ar
     7     7     8   ar
     8     8     9   ar
     9     3     9   ar
    10     9    10    1
    11    10    11    1
    12    11    12    1
    13    12    13    1
    14    12    14    1
    15    14    15    1
    16    14    16    1
    17    14    17    1
    18    17    20    1
    19    20    21    1
    20    21    22    1
    21     8    22    1
    22    12    22    1
    23    22    23    1
    24    17    19    1
    25    17    18    1
    26     1    24    1
    27     1    25    1
    28     1    26    1
    29     2    27    1
    30     2    28    1
    31     5    29    1
    32     5    30    1
    33     5    31    1
    34     6    32    1
    35     7    33    1
    36    10    34    1
    37    10    35    1
    38    11    36    1
    39    11    37    1
    40    15    38    1
    41    15    39    1
    42    15    40    1
    43    16    41    1
    44    16    42    1
    45    16    43    1
    46    19    44    1
    47    20    45    1
    48    20    46    1
    49    21    47    1
    50    21    48    1
    51    23    49    1
    52    23    50    1
    53    23    51    1
