@<TRIPOS>MOLECULE
NuBBE_483
 87 91 0 0 0
SMALL
GASTEIGER

@<TRIPOS>ATOM
      1 C          -2.4627   -1.2335   -0.3748 C.3     1  LIG1       -0.0585
      2 C          -0.9585   -0.9302   -0.5604 C.3     1  LIG1       -0.0194
      3 C          -0.3904   -1.9989   -1.5420 C.3     1  LIG1       -0.0463
      4 C          -0.3368   -3.4324   -0.9988 C.3     1  LIG1       -0.0484
      5 C           0.4616   -3.6367    0.3213 C.3     1  LIG1       -0.0231
      6 C           0.4837   -5.1799    0.7694 C.3     1  LIG1        0.0461
      7 C           1.7504   -5.4780    1.6379 C.3     1  LIG1        0.0546
      8 O           1.8631   -6.8652    1.9742 O.3     1  LIG1       -0.3943
      9 C           0.6180   -6.1117   -0.4855 C.3     1  LIG1        0.0546
     10 O           0.6050   -7.5013   -0.1661 O.3     1  LIG1       -0.3943
     11 C          -0.8066   -5.5536    1.5596 C.3     1  LIG1        0.0653
     12 H          -0.6827   -6.5188    2.0663 H       1  LIG1        0.0600
     13 O          -1.9212   -5.7124    0.6751 O.3     1  LIG1       -0.3911
     14 C          -1.2280   -4.5248    2.6162 C.3     1  LIG1       -0.0257
     15 C          -1.3241   -3.0895    2.0707 C.3     1  LIG1       -0.0447
     16 C          -0.0146   -2.5939    1.4193 C.3     1  LIG1       -0.0248
     17 C           1.0297   -2.4723    2.5721 C.3     1  LIG1       -0.0590
     18 C          -0.0749   -1.1483    0.7354 C.3     1  LIG1       -0.0257
     19 C          -0.2264    0.0562    1.6649 C.3     1  LIG1       -0.0306
     20 C           0.3932    1.2317    0.9786 C.2     1  LIG1       -0.0836
     21 C           0.1534    1.5091   -0.3145 C.2     1  LIG1       -0.0604
     22 C          -0.8154    0.6414   -1.1430 C.3     1  LIG1       -0.0050
     23 C          -0.4421    0.5803   -2.6524 C.3     1  LIG1       -0.0553
     24 C          -2.1161    1.5245   -1.0365 C.3     1  LIG1       -0.0424
     25 C          -1.9529    3.0069   -1.4928 C.3     1  LIG1       -0.0358
     26 C          -0.7317    3.7773   -0.8759 C.3     1  LIG1        0.0766
     27 C          -1.1115    4.2490    0.5371 C.2     1  LIG1        0.3137
     28 O          -2.2085    5.0763    0.4533 O.3     1  LIG1       -0.4675
     29 C          -2.6464    5.6609    1.6908 C.3     1  LIG1        0.0817
     30 O          -0.5153    4.0127    1.5914 O.2     1  LIG1       -0.2502
     31 C           0.5281    2.8569   -0.9227 C.3     1  LIG1        0.0229
     32 C           1.8254    3.5560   -0.4286 C.3     1  LIG1        0.0678
     33 H           1.7631    3.7830    0.6407 H       1  LIG1        0.0605
     34 O           2.9557    2.6864   -0.6004 O.3     1  LIG1       -0.3906
     35 C           2.1145    4.8702   -1.2137 C.3     1  LIG1       -0.0083
     36 C           2.5880    4.5841   -2.6602 C.3     1  LIG1       -0.0574
     37 C           3.2580    5.6354   -0.5127 C.3     1  LIG1       -0.0574
     38 C           0.8544    5.7646   -1.2436 C.3     1  LIG1       -0.0445
     39 C          -0.4104    5.0396   -1.7271 C.3     1  LIG1       -0.0360
     40 H          -2.6909   -2.2933   -0.2811 H       1  LIG1        0.0235
     41 H          -3.0320   -0.9408   -1.2633 H       1  LIG1        0.0235
     42 H          -2.8824   -0.7194    0.4940 H       1  LIG1        0.0235
     43 H           0.6336   -1.7318   -1.8313 H       1  LIG1        0.0271
     44 H          -0.9859   -2.0291   -2.4623 H       1  LIG1        0.0271
     45 H           0.1389   -4.0130   -1.7977 H       1  LIG1        0.0268
     46 H          -1.3511   -3.8276   -0.8990 H       1  LIG1        0.0268
     47 H           1.5014   -3.3783    0.0707 H       1  LIG1        0.0314
     48 H           2.6601   -5.2023    1.0918 H       1  LIG1        0.0564
     49 H           1.7606   -4.9625    2.5877 H       1  LIG1        0.0564
     50 H           2.5162   -6.9278    2.6974 H       1  LIG1        0.2094
     51 H          -0.2062   -5.9793   -1.1899 H       1  LIG1        0.0564
     52 H           1.5480   -5.8946   -1.0248 H       1  LIG1        0.0564
     53 H           1.2171   -7.6173    0.5963 H       1  LIG1        0.2094
     54 H          -1.8171   -6.5909    0.2597 H       1  LIG1        0.2098
     55 H          -0.5520   -4.5699    3.4748 H       1  LIG1        0.0290
     56 H          -2.2201   -4.7979    3.0008 H       1  LIG1        0.0290
     57 H          -1.6220   -2.4159    2.8836 H       1  LIG1        0.0271
     58 H          -2.1523   -3.0894    1.3689 H       1  LIG1        0.0271
     59 H           0.7244   -1.7443    3.3276 H       1  LIG1        0.0235
     60 H           2.0168   -2.1898    2.1941 H       1  LIG1        0.0235
     61 H           1.1373   -3.3647    3.1758 H       1  LIG1        0.0235
     62 H           0.9618   -1.0574    0.3576 H       1  LIG1        0.0315
     63 H           0.3032   -0.0413    2.6106 H       1  LIG1        0.0310
     64 H          -1.2727    0.2618    1.9138 H       1  LIG1        0.0310
     65 H           0.9813    1.8999    1.6054 H       1  LIG1        0.0572
     66 H           0.5670    0.1864   -2.8048 H       1  LIG1        0.0238
     67 H          -0.4678    1.5473   -3.1608 H       1  LIG1        0.0238
     68 H          -1.1603   -0.0350   -3.2049 H       1  LIG1        0.0238
     69 H          -2.4799    1.5331   -0.0001 H       1  LIG1        0.0274
     70 H          -2.9192    1.1002   -1.6494 H       1  LIG1        0.0274
     71 H          -2.8945    3.5217   -1.2663 H       1  LIG1        0.0276
     72 H          -1.8833    3.0267   -2.5885 H       1  LIG1        0.0276
     73 H          -3.3395    6.4676    1.4625 H       1  LIG1        0.0661
     74 H          -1.8042    6.0790    2.2554 H       1  LIG1        0.0661
     75 H          -3.1692    4.9005    2.2793 H       1  LIG1        0.0661
     76 H           0.7570    2.6405   -1.9663 H       1  LIG1        0.0382
     77 H           2.6309    1.7634   -0.6032 H       1  LIG1        0.2098
     78 H           1.8463    4.0325   -3.2442 H       1  LIG1        0.0236
     79 H           3.5146    3.9990   -2.6736 H       1  LIG1        0.0236
     80 H           2.7911    5.5186   -3.1957 H       1  LIG1        0.0236
     81 H           3.4701    6.5822   -1.0221 H       1  LIG1        0.0236
     82 H           4.1850    5.0507   -0.5030 H       1  LIG1        0.0236
     83 H           3.0011    5.8669    0.5269 H       1  LIG1        0.0236
     84 H           1.0305    6.6328   -1.8921 H       1  LIG1        0.0272
     85 H           0.6697    6.1719   -0.2413 H       1  LIG1        0.0272
     86 H          -0.2848    4.7595   -2.7813 H       1  LIG1        0.0276
     87 H          -1.2452    5.7503   -1.7102 H       1  LIG1        0.0276
@<TRIPOS>BOND
     1     2     3    1
     2     3     4    1
     3     4     5    1
     4     5     6    1
     5     7     8    1
     6     9    10    1
     7     6    11    1
     8    11    14    1
     9    14    15    1
    10    15    16    1
    11     5    16    1
    12    16    18    1
    13     2    18    1
    14    18    19    1
    15    19    20    1
    16    20    21    2
    17    21    22    1
    18     2    22    1
    19    22    24    1
    20    24    25    1
    21    25    26    1
    22    27    28    1
    23    28    29    1
    24    27    30    2
    25    26    31    1
    26    21    31    1
    27    31    32    1
    28    32    35    1
    29    35    38    1
    30    38    39    1
    31    26    39    1
    32     1     2    1
    33     6     7    1
    34     6     9    1
    35    11    12    1
    36    11    13    1
    37    16    17    1
    38    22    23    1
    39    26    27    1
    40    35    36    1
    41    35    37    1
    42    32    34    1
    43    32    33    1
    44     1    40    1
    45     1    41    1
    46     1    42    1
    47     3    43    1
    48     3    44    1
    49     4    45    1
    50     4    46    1
    51     5    47    1
    52     7    48    1
    53     7    49    1
    54     8    50    1
    55     9    51    1
    56     9    52    1
    57    10    53    1
    58    13    54    1
    59    14    55    1
    60    14    56    1
    61    15    57    1
    62    15    58    1
    63    17    59    1
    64    17    60    1
    65    17    61    1
    66    18    62    1
    67    19    63    1
    68    19    64    1
    69    20    65    1
    70    23    66    1
    71    23    67    1
    72    23    68    1
    73    24    69    1
    74    24    70    1
    75    25    71    1
    76    25    72    1
    77    29    73    1
    78    29    74    1
    79    29    75    1
    80    31    76    1
    81    34    77    1
    82    36    78    1
    83    36    79    1
    84    36    80    1
    85    37    81    1
    86    37    82    1
    87    37    83    1
    88    38    84    1
    89    38    85    1
    90    39    86    1
    91    39    87    1
