@<TRIPOS>MOLECULE
NuBBE_1786
 50 55 0 0 0
SMALL
GASTEIGER

@<TRIPOS>ATOM
      1 C          -3.0547   -0.8853    0.9935 C.2     1  LIG1        0.2170
      2 O          -3.6776   -1.1786    2.0178 O.2     1  LIG1       -0.2755
      3 C          -3.8212   -0.4609   -0.2347 C.3     1  LIG1        0.0127
      4 N          -1.6785   -0.9919    0.8832 N.am    1  LIG1       -0.2670
      5 C          -0.7850   -0.4736   -0.1726 C.3     1  LIG1        0.0502
      6 H          -1.0527   -1.1727   -0.9868 H       1  LIG1        0.0518
      7 C           0.6757   -0.9085    0.3040 C.3     1  LIG1        0.0336
      8 C           0.3235   -2.2324    0.8801 C.ar    1  LIG1       -0.0165
      9 C          -1.0074   -2.1788    1.3567 C.ar    1  LIG1        0.0404
     10 C          -1.5299   -3.2404    2.0748 C.ar    1  LIG1       -0.0400
     11 C          -0.7154   -4.3560    2.3022 C.ar    1  LIG1       -0.0600
     12 C           0.6000   -4.4052    1.8108 C.ar    1  LIG1       -0.0614
     13 C           1.1346   -3.3330    1.0966 C.ar    1  LIG1       -0.0562
     14 C           1.5544   -0.5492   -0.8749 C.3     1  LIG1        0.0227
     15 H           1.1962    0.3896   -0.5219 H       1  LIG1        0.0472
     16 N           2.8673    0.0652   -0.5970 N.3     1  LIG1       -0.2946
     17 C           2.8541    0.1770    0.8933 C.3     1  LIG1        0.0004
     18 C           1.4089   -0.0951    1.4390 C.3     1  LIG1       -0.0273
     19 C           2.8983    1.3945   -1.3394 C.3     1  LIG1        0.0207
     20 C           1.4922    2.0764   -1.5970 C.2     1  LIG1       -0.0537
     21 C           1.3013    3.3573   -1.2235 C.2     1  LIG1       -0.0579
     22 C           0.0029    4.0983   -1.0712 C.3     1  LIG1        0.0691
     23 O          -1.1570    3.2757   -1.0409 O.3     1  LIG1       -0.3472
     24 C          -1.0768    2.1884   -0.1249 C.3     1  LIG1        0.1616
     25 H          -0.2855    2.3253    0.6169 H       1  LIG1        0.0911
     26 C          -0.8955    0.9232   -0.9621 C.3     1  LIG1        0.0364
     27 H          -1.8008    0.8297   -1.5788 H       1  LIG1        0.0374
     28 C           0.3060    1.1225   -2.0692 C.3     1  LIG1       -0.0080
     29 H          -0.1074    1.4953   -3.0131 H       1  LIG1        0.0351
     30 C           0.9546   -0.2833   -2.2718 C.3     1  LIG1       -0.0294
     31 O          -2.3007    2.1272    0.5768 O.3     1  LIG1       -0.3666
     32 H          -4.7971   -0.9584   -0.2206 H       1  LIG1        0.0323
     33 H          -3.3246   -0.7793   -1.1528 H       1  LIG1        0.0323
     34 H          -3.9901    0.6150   -0.2394 H       1  LIG1        0.0323
     35 H          -2.5480   -3.2363    2.4489 H       1  LIG1        0.0636
     36 H          -1.1108   -5.1997    2.8638 H       1  LIG1        0.0618
     37 H           1.2117   -5.2833    2.0061 H       1  LIG1        0.0618
     38 H           2.1637   -3.3538    0.7520 H       1  LIG1        0.0621
     39 H           3.2411    1.1358    1.2543 H       1  LIG1        0.0427
     40 H           3.5175   -0.6057    1.2801 H       1  LIG1        0.0427
     41 H           0.9040    0.8577    1.6223 H       1  LIG1        0.0287
     42 H           1.4683   -0.6195    2.3998 H       1  LIG1        0.0287
     43 H           3.3481    1.2057   -2.3226 H       1  LIG1        0.0473
     44 H           3.5829    2.0791   -0.8246 H       1  LIG1        0.0473
     45 H           2.1656    3.9327   -0.8928 H       1  LIG1        0.0595
     46 H           0.0267    4.6747   -0.1388 H       1  LIG1        0.0605
     47 H          -0.1083    4.8139   -1.8919 H       1  LIG1        0.0605
     48 H           1.7259   -0.2645   -3.0509 H       1  LIG1        0.0286
     49 H           0.2326   -1.0440   -2.5821 H       1  LIG1        0.0286
     50 H          -2.3330    2.9293    1.1231 H       1  LIG1        0.2125
@<TRIPOS>BOND
     1     1     2    2
     2     1     3    1
     3     4     5    1
     4     5     7    1
     5     7     8    1
     6     8     9   ar
     7     4     9    1
     8     9    10   ar
     9    10    11   ar
    10    11    12   ar
    11    12    13   ar
    12     8    13   ar
    13     7    14    1
    14    14    16    1
    15    16    17    1
    16    17    18    1
    17     7    18    1
    18    16    19    1
    19    19    20    1
    20    20    21    2
    21    21    22    1
    22    22    23    1
    23    23    24    1
    24    24    26    1
    25     5    26    1
    26    26    28    1
    27    20    28    1
    28    28    30    1
    29    14    30    1
    30     1     4   am
    31     5     6    1
    32    14    15    1
    33    26    27    1
    34    28    29    1
    35    24    31    1
    36    24    25    1
    37     3    32    1
    38     3    33    1
    39     3    34    1
    40    10    35    1
    41    11    36    1
    42    12    37    1
    43    13    38    1
    44    17    39    1
    45    17    40    1
    46    18    41    1
    47    18    42    1
    48    19    43    1
    49    19    44    1
    50    21    45    1
    51    22    46    1
    52    22    47    1
    53    30    48    1
    54    30    49    1
    55    31    50    1
