REMARK  Name = NuBBE_2448
REMARK  2 active torsions:
REMARK  status: ('A' for Active; 'I' for Inactive)
REMARK    1  A    between atoms: C_6  and  C_9
REMARK    2  A    between atoms: C_16  and  O_19
REMARK                            x       y       z     vdW  Elec       q    Type
REMARK                         _______ _______ _______ _____ _____    ______ ____
ROOT
ATOM      1  O   LIG A   1      -2.206   0.147   2.480  0.00  0.00    -0.292 OA
ATOM      2  C   LIG A   1      -1.098   0.311   1.980  0.00  0.00    +0.171 C 
ATOM      3  C   LIG A   1      -0.239  -0.835   1.629  0.00  0.00    +0.059 A 
ATOM      4  C   LIG A   1       1.011  -0.589   1.061  0.00  0.00    +0.135 A 
ATOM      5  O   LIG A   1       1.477   0.666   0.765  0.00  0.00    -0.483 OA
ATOM      6  C   LIG A   1       0.440   1.650   0.569  0.00  0.00    +0.211 C 
ATOM      7  C   LIG A   1      -0.510   1.676   1.762  0.00  0.00    +0.129 C 
ATOM      8  C   LIG A   1       1.872  -1.652   0.786  0.00  0.00    +0.091 A 
ATOM      9  C   LIG A   1       1.456  -2.953   1.058  0.00  0.00    +0.120 A 
ATOM     10  C   LIG A   1       0.202  -3.206   1.606  0.00  0.00    +0.046 A 
ATOM     11  C   LIG A   1      -0.653  -2.143   1.898  0.00  0.00    +0.018 A 
ENDROOT
BRANCH   6  12
ATOM     12  C   LIG A   1      -0.150   1.533  -0.833  0.00  0.00    -0.007 A 
ATOM     13  C   LIG A   1      -1.527   1.462  -1.091  0.00  0.00    +0.007 A 
ATOM     14  C   LIG A   1      -2.005   1.366  -2.402  0.00  0.00    +0.000 A 
ATOM     15  C   LIG A   1      -1.117   1.349  -3.474  0.00  0.00    +0.000 A 
ATOM     16  C   LIG A   1       0.252   1.428  -3.240  0.00  0.00    +0.000 A 
ATOM     17  C   LIG A   1       0.730   1.521  -1.932  0.00  0.00    +0.007 A 
ENDBRANCH   6  12
BRANCH   9  18
ATOM     18  O   LIG A   1       2.259  -4.024   0.796  0.00  0.00    -0.507 OA
ATOM     19  H   LIG A   1       3.089  -3.706   0.404  0.00  0.00    +0.292 HD
ENDBRANCH   9  18
TORSDOF 2
