@<TRIPOS>MOLECULE
NuBBE_37
 77 81 0 0 0
SMALL
GASTEIGER

@<TRIPOS>ATOM
      1 C          -3.1175   -0.6594   -1.9637 C.3     1  LIG1        0.0788
      2 O          -3.1735   -1.5376   -0.8504 O.3     1  LIG1       -0.4945
      3 C          -2.0635   -2.3003   -0.6225 C.ar    1  LIG1        0.1328
      4 C          -2.3850   -3.6785   -0.6124 C.ar    1  LIG1        0.0228
      5 C          -1.4051   -4.6188   -0.4268 C.ar    1  LIG1        0.1347
      6 O          -1.7452   -5.9566   -0.4115 O.3     1  LIG1       -0.5058
      7 C          -0.0868   -4.2331   -0.2237 C.ar    1  LIG1        0.1058
      8 C           0.9784   -5.2223   -0.1430 C.ar    1  LIG1        0.1966
      9 C           2.2816   -4.7915    0.3471 C.ar    1  LIG1        0.0288
     10 C           2.4885   -3.4725    0.5004 C.ar    1  LIG1        0.1392
     11 C           3.7953   -3.0765    1.0484 C.ar    1  LIG1        0.0176
     12 C           3.8314   -2.0594    1.9891 C.ar    1  LIG1       -0.0476
     13 C           5.0175   -1.4766    2.4412 C.ar    1  LIG1       -0.0193
     14 C           6.2230   -2.0884    2.1589 C.ar    1  LIG1        0.1201
     15 O           7.4333   -1.6878    2.6517 O.3     1  LIG1       -0.4951
     16 C           7.3810   -0.9542    3.8768 C.3     1  LIG1        0.0788
     17 C           6.2127   -3.2206    1.3430 C.ar    1  LIG1       -0.0193
     18 C           5.0180   -3.6902    0.7681 C.ar    1  LIG1       -0.0476
     19 O           1.5476   -2.4899    0.2212 O.2     1  LIG1       -0.4540
     20 C           0.2390   -2.8382   -0.1057 C.ar    1  LIG1        0.1520
     21 C          -0.7631   -1.8162   -0.3131 C.ar    1  LIG1        0.0684
     22 C          -0.4396   -0.2809   -0.3702 C.3     1  LIG1        0.1197
     23 H          -0.3028   -0.1378   -1.4524 H       1  LIG1        0.0676
     24 C          -1.5212    0.8421    0.0876 C.3     1  LIG1        0.1204
     25 H          -2.5463    0.5038   -0.0084 H       1  LIG1        0.0653
     26 O          -1.3406    1.9783   -0.8422 O.3     1  LIG1       -0.3399
     27 C          -2.2774    3.0588   -0.7087 C.3     1  LIG1        0.1883
     28 H          -2.1901    3.4930    0.2880 H       1  LIG1        0.0938
     29 C          -1.9290    4.2256   -1.6580 C.3     1  LIG1        0.1341
     30 H          -0.8658    4.4809   -1.5686 H       1  LIG1        0.0671
     31 O          -2.6469    5.4178   -1.2866 O.3     1  LIG1       -0.3841
     32 O          -3.6069    2.5700   -0.8129 O.3     1  LIG1       -0.3431
     33 C          -4.3042    2.7768   -2.0349 C.3     1  LIG1        0.0873
     34 H          -4.8773    1.8556   -2.1815 H       1  LIG1        0.0621
     35 C          -5.3671    3.8481   -1.8235 C.3     1  LIG1       -0.0361
     36 C          -3.4376    2.9744   -3.2952 C.3     1  LIG1        0.1095
     37 H          -4.0670    3.3228   -4.1212 H       1  LIG1        0.0646
     38 O          -2.9173    1.7045   -3.7322 O.3     1  LIG1       -0.3866
     39 C          -2.2241    3.8888   -3.1148 C.3     1  LIG1        0.1140
     40 H          -1.3318    3.4123   -3.5412 H       1  LIG1        0.0648
     41 O          -2.4109    5.1228   -3.8390 O.3     1  LIG1       -0.3864
     42 O           0.8908    0.0393    0.1140 O.3     1  LIG1       -0.3609
     43 C           0.9498    1.2572    0.8903 C.3     1  LIG1        0.1108
     44 H           0.7008    2.1150    0.2611 H       1  LIG1        0.0646
     45 C           2.3767    1.4751    1.3408 C.3     1  LIG1        0.0729
     46 O           2.6613    0.3681    2.1541 O.3     1  LIG1       -0.3924
     47 C           0.0002    1.0261    2.0724 C.3     1  LIG1        0.1118
     48 H           0.0484   -0.0140    2.4322 H       1  LIG1        0.0647
     49 O           0.2296    1.8929    3.1800 O.3     1  LIG1       -0.3865
     50 C          -1.3815    1.3008    1.5432 C.3     1  LIG1        0.1124
     51 H          -1.5453    2.3733    1.6460 H       1  LIG1        0.0647
     52 O          -2.3666    0.6841    2.3759 O.3     1  LIG1       -0.3865
     53 O           0.8576   -6.4394   -0.4870 O.2     1  LIG1       -0.2869
     54 H          -3.1078   -1.1642   -2.9295 H       1  LIG1        0.0660
     55 H          -2.2667    0.0110   -1.9607 H       1  LIG1        0.0660
     56 H          -4.0051   -0.0328   -1.8744 H       1  LIG1        0.0660
     57 H          -3.4190   -3.9820   -0.7690 H       1  LIG1        0.0691
     58 H          -2.6744   -6.0908   -0.6536 H       1  LIG1        0.2922
     59 H           2.9932   -5.5635    0.5583 H       1  LIG1        0.0693
     60 H           2.8984   -1.7511    2.4375 H       1  LIG1        0.0626
     61 H           4.9449   -0.5675    3.0306 H       1  LIG1        0.0654
     62 H           8.4074   -0.7172    4.1718 H       1  LIG1        0.0660
     63 H           6.9310   -1.5570    4.6744 H       1  LIG1        0.0660
     64 H           6.8539   -0.0007    3.7666 H       1  LIG1        0.0660
     65 H           7.1381   -3.7613    1.1659 H       1  LIG1        0.0654
     66 H           5.0583   -4.5804    0.1455 H       1  LIG1        0.0626
     67 H          -2.6824    5.9546   -2.1073 H       1  LIG1        0.2101
     68 H          -4.9592    4.7870   -1.4491 H       1  LIG1        0.0255
     69 H          -6.0799    3.5039   -1.0635 H       1  LIG1        0.0255
     70 H          -5.9255    4.0387   -2.7441 H       1  LIG1        0.0255
     71 H          -3.6664    1.0900   -3.8109 H       1  LIG1        0.2100
     72 H          -2.2887    4.9095   -4.7835 H       1  LIG1        0.2100
     73 H           2.5116    2.3886    1.9197 H       1  LIG1        0.0584
     74 H           3.0761    1.4506    0.5002 H       1  LIG1        0.0584
     75 H           2.3050   -0.3460    1.5783 H       1  LIG1        0.2095
     76 H           0.0495    1.3607    3.9767 H       1  LIG1        0.2100
     77 H          -2.6177    1.3524    3.0401 H       1  LIG1        0.2100
@<TRIPOS>BOND
     1     1     2    1
     2     2     3    1
     3     3     4   ar
     4     4     5   ar
     5     5     6    1
     6     5     7   ar
     7     7     8   ar
     8     8     9   ar
     9     9    10   ar
    10    10    11    1
    11    11    12   ar
    12    12    13   ar
    13    13    14   ar
    14    14    15    1
    15    15    16    1
    16    14    17   ar
    17    17    18   ar
    18    11    18   ar
    19    10    19   ar
    20    19    20   ar
    21     7    20   ar
    22    20    21   ar
    23     3    21   ar
    24    22    24    1
    25    27    29    1
    26    27    32    1
    27    32    33    1
    28    33    36    1
    29    36    37    1
    30    36    38    1
    31    36    39    1
    32    29    39    1
    33    22    42    1
    34    42    43    1
    35    43    44    1
    36    43    45    1
    37    45    46    1
    38    43    47    1
    39    47    50    1
    40    50    51    1
    41    24    50    1
    42    50    52    1
    43     8    53    2
    44    33    35    1
    45    33    34    1
    46    22    23    1
    47    22    21    1
    48    24    26    1
    49    24    25    1
    50    27    28    1
    51    27    26    1
    52    29    31    1
    53    29    30    1
    54    39    41    1
    55    39    40    1
    56    47    49    1
    57    47    48    1
    58     1    54    1
    59     1    55    1
    60     1    56    1
    61     4    57    1
    62     6    58    1
    63     9    59    1
    64    12    60    1
    65    13    61    1
    66    16    62    1
    67    16    63    1
    68    16    64    1
    69    17    65    1
    70    18    66    1
    71    31    67    1
    72    35    68    1
    73    35    69    1
    74    35    70    1
    75    38    71    1
    76    41    72    1
    77    45    73    1
    78    45    74    1
    79    46    75    1
    80    49    76    1
    81    52    77    1
