REMARK  Name = NuBBE_187
REMARK  22 active torsions:
REMARK  status: ('A' for Active; 'I' for Inactive)
REMARK    1  A    between atoms: O_1  and  C_2
REMARK    2  A    between atoms: C_2  and  C_3
REMARK    3  A    between atoms: C_3  and  C_4
REMARK    4  A    between atoms: C_4  and  C_5
REMARK    5  A    between atoms: C_5  and  C_6
REMARK    6  A    between atoms: C_6  and  C_7
REMARK    7  A    between atoms: C_7  and  C_8
REMARK    8  A    between atoms: C_8  and  C_9
REMARK    9  A    between atoms: C_9  and  C_10
REMARK   10  A    between atoms: C_10  and  C_11
REMARK   11  A    between atoms: C_11  and  C_12
REMARK   12  A    between atoms: C_12  and  C_13
REMARK   13  A    between atoms: C_13  and  C_14
REMARK   14  A    between atoms: C_14  and  C_15
REMARK   15  A    between atoms: C_15  and  C_16
REMARK   16  A    between atoms: C_16  and  C_17
REMARK   17  A    between atoms: C_17  and  C_18
REMARK   18  A    between atoms: C_18  and  C_19
REMARK   19  A    between atoms: C_19  and  C_20
REMARK   20  A    between atoms: C_20  and  C_21
REMARK   21  A    between atoms: C_21  and  C_22
REMARK   22  A    between atoms: C_22  and  C_23
REMARK                            x       y       z     vdW  Elec       q    Type
REMARK                         _______ _______ _______ _____ _____    ______ ____
ROOT
ATOM      1  C   LIG A   1       3.411  -0.608   0.028  0.00  0.00    -0.000 C 
ENDROOT
BRANCH   1   2
ATOM      2  C   LIG A   1       3.318  -1.657  -1.071  0.00  0.00    -0.000 C 
BRANCH   2   3
ATOM      3  C   LIG A   1       1.886  -2.035  -1.455  0.00  0.00    -0.000 C 
BRANCH   3   4
ATOM      4  C   LIG A   1       1.894  -3.307  -2.304  0.00  0.00    -0.000 C 
BRANCH   4   5
ATOM      5  C   LIG A   1       0.492  -3.759  -2.710  0.00  0.00    +0.000 C 
BRANCH   5   6
ATOM      6  C   LIG A   1      -0.225  -2.712  -3.561  0.00  0.00    +0.000 C 
BRANCH   6   7
ATOM      7  C   LIG A   1      -1.641  -3.160  -3.925  0.00  0.00    +0.005 C 
BRANCH   7   8
ATOM      8  C   LIG A   1      -2.450  -2.139  -4.738  0.00  0.00    +0.035 C 
BRANCH   8   9
ATOM      9  C   LIG A   1      -2.807  -0.796  -4.138  0.00  0.00    -0.044 A 
ATOM     10  C   LIG A   1      -2.422  -0.361  -2.876  0.00  0.00    +0.053 A 
ATOM     11  C   LIG A   1      -2.845   0.907  -2.518  0.00  0.00    +0.167 A 
ATOM     12  O   LIG A   1      -2.436   1.630  -1.485  0.00  0.00    -0.453 OA
ATOM     13  C   LIG A   1      -3.334   2.765  -1.457  0.00  0.00    +0.466 C 
ATOM     14  O   LIG A   1      -4.045   2.872  -2.666  0.00  0.00    -0.453 OA
ATOM     15  C   LIG A   1      -3.679   1.701  -3.245  0.00  0.00    +0.166 A 
ATOM     16  C   LIG A   1      -4.058   1.322  -4.473  0.00  0.00    +0.050 A 
ATOM     17  C   LIG A   1      -3.614   0.079  -4.923  0.00  0.00    +0.007 A 
ENDBRANCH   8   9
ENDBRANCH   7   8
ENDBRANCH   6   7
ENDBRANCH   5   6
ENDBRANCH   4   5
ENDBRANCH   3   4
ENDBRANCH   2   3
ENDBRANCH   1   2
BRANCH   1  18
ATOM     18  C   LIG A   1       2.887  -1.215   1.349  0.00  0.00    -0.000 C 
BRANCH  18  19
ATOM     19  C   LIG A   1       2.932  -0.243   2.503  0.00  0.00    -0.000 C 
BRANCH  19  20
ATOM     20  C   LIG A   1       2.370  -0.604   3.852  0.00  0.00    -0.000 C 
BRANCH  20  21
ATOM     21  C   LIG A   1       2.248   0.603   4.815  0.00  0.00    -0.000 C 
BRANCH  21  22
ATOM     22  C   LIG A   1       1.456   1.904   4.520  0.00  0.00    -0.000 C 
BRANCH  22  23
ATOM     23  C   LIG A   1       1.851   2.867   3.384  0.00  0.00    -0.000 C 
BRANCH  23  24
ATOM     24  C   LIG A   1       2.030   2.459   1.915  0.00  0.00    -0.000 C 
BRANCH  24  25
ATOM     25  C   LIG A   1       0.876   1.710   1.175  0.00  0.00    -0.000 C 
BRANCH  25  26
ATOM     26  C   LIG A   1       0.082   0.464   1.730  0.00  0.00    +0.000 C 
BRANCH  26  27
ATOM     27  C   LIG A   1      -0.835   0.502   2.959  0.00  0.00    +0.000 C 
BRANCH  27  28
ATOM     28  C   LIG A   1      -1.689   1.759   3.116  0.00  0.00    +0.011 C 
BRANCH  28  29
ATOM     29  C   LIG A   1      -2.866   1.640   2.170  0.00  0.00    +0.120 C 
BRANCH  29  30
ATOM     30  C   LIG A   1      -2.337   1.393   0.920  0.00  0.00    +0.305 C 
ATOM     31  O   LIG A   1      -2.310   0.223   0.356  0.00  0.00    -0.251 OA
BRANCH  30  32
ATOM     32  O   LIG A   1      -1.699   2.494   0.482  0.00  0.00    -0.481 OA
ATOM     33  H   LIG A   1      -1.342   2.200  -0.430  0.00  0.00    +0.295 HD
ENDBRANCH  30  32
ENDBRANCH  29  30
ENDBRANCH  28  29
ENDBRANCH  27  28
ENDBRANCH  26  27
ENDBRANCH  25  26
ENDBRANCH  24  25
ENDBRANCH  23  24
ENDBRANCH  22  23
ENDBRANCH  21  22
ENDBRANCH  20  21
ENDBRANCH  19  20
ENDBRANCH  18  19
ENDBRANCH   1  18
TORSDOF 22
