@<TRIPOS>MOLECULE
NuBBE_592
 48 51 0 0 0
SMALL
GASTEIGER

@<TRIPOS>ATOM
      1 O          -4.1214   -0.4228   -0.0412 O.2     1  LIG1       -0.2918
      2 C          -2.9399   -0.6353    0.2108 C.2     1  LIG1        0.1666
      3 C          -2.3685   -2.0448    0.1549 C.3     1  LIG1        0.0227
      4 H          -3.1274   -2.6993    0.6071 H       1  LIG1        0.0381
      5 C          -1.0762   -2.2117    0.9778 C.3     1  LIG1       -0.0234
      6 H          -0.6113   -3.1713    0.7131 H       1  LIG1        0.0314
      7 C          -0.0429   -1.0747    0.7850 C.3     1  LIG1        0.0133
      8 H           0.5829   -1.0830    1.6918 H       1  LIG1        0.0400
      9 C          -0.6747    0.3021    0.7833 C.ar    1  LIG1       -0.0255
     10 C          -2.0313    0.5020    0.5225 C.ar    1  LIG1        0.0251
     11 C          -2.5577    1.7987    0.5565 C.ar    1  LIG1       -0.0055
     12 C          -1.7448    2.9075    0.8342 C.ar    1  LIG1        0.1622
     13 C          -0.3839    2.7182    1.1104 C.ar    1  LIG1        0.1618
     14 O           0.3711    3.7942    1.4985 O.3     1  LIG1       -0.4914
     15 C           1.7507    3.7513    1.1419 C.3     1  LIG1        0.0790
     16 C           0.1362    1.4183    1.0772 C.ar    1  LIG1       -0.0119
     17 O          -2.4323    4.0916    0.8321 O.3     1  LIG1       -0.4914
     18 C          -1.7202    5.2681    0.4710 C.3     1  LIG1        0.0790
     19 C           0.9407   -1.3036   -0.3622 C.ar    1  LIG1       -0.0360
     20 C           0.7353   -0.7832   -1.6627 C.ar    1  LIG1       -0.0543
     21 C           1.6802   -0.9649   -2.6794 C.ar    1  LIG1       -0.0159
     22 C           2.8336   -1.6473   -2.3691 C.ar    1  LIG1        0.1662
     23 O           3.8708   -1.8853   -3.2147 O.3     1  LIG1       -0.4526
     24 C           4.7842   -2.5734   -2.3352 C.3     1  LIG1        0.2332
     25 O           4.2617   -2.7687   -1.0042 O.3     1  LIG1       -0.4526
     26 C           3.0534   -2.1543   -1.1124 C.ar    1  LIG1        0.1665
     27 C           2.1292   -2.0126   -0.0981 C.ar    1  LIG1       -0.0124
     28 C          -1.4410   -2.3307    2.4749 C.3     1  LIG1       -0.0609
     29 C          -2.2392   -2.4769   -1.3039 C.3     1  LIG1       -0.0551
     30 H          -3.6174    1.9602    0.3618 H       1  LIG1        0.0662
     31 H           2.1739    4.7422    1.3327 H       1  LIG1        0.0660
     32 H           1.8797    3.5303    0.0765 H       1  LIG1        0.0660
     33 H           2.3019    3.0377    1.7619 H       1  LIG1        0.0660
     34 H           1.1824    1.2375    1.3105 H       1  LIG1        0.0658
     35 H          -2.3928    5.8860   -0.1323 H       1  LIG1        0.0660
     36 H          -0.8335    5.0823   -0.1429 H       1  LIG1        0.0660
     37 H          -1.4637    5.8317    1.3729 H       1  LIG1        0.0660
     38 H          -0.1584   -0.2084   -1.8971 H       1  LIG1        0.0622
     39 H           1.5184   -0.5650   -3.6743 H       1  LIG1        0.0655
     40 H           5.7096   -1.9892   -2.2665 H       1  LIG1        0.1166
     41 H           5.0179   -3.5530   -2.7668 H       1  LIG1        0.1166
     42 H           2.3434   -2.4190    0.8855 H       1  LIG1        0.0658
     43 H          -1.9241   -1.4237    2.8532 H       1  LIG1        0.0233
     44 H          -0.5463   -2.5135    3.0797 H       1  LIG1        0.0233
     45 H          -2.1242   -3.1701    2.6435 H       1  LIG1        0.0233
     46 H          -1.8301   -1.6894   -1.9389 H       1  LIG1        0.0237
     47 H          -3.2301   -2.7093   -1.7122 H       1  LIG1        0.0237
     48 H          -1.6237   -3.3757   -1.4074 H       1  LIG1        0.0237
@<TRIPOS>BOND
     1     1     2    2
     2     2     3    1
     3     3     5    1
     4     5     7    1
     5     7     8    1
     6     7     9    1
     7     9    10   ar
     8     2    10    1
     9    10    11   ar
    10    11    12   ar
    11    12    13   ar
    12    13    14    1
    13    14    15    1
    14    13    16   ar
    15     9    16   ar
    16    12    17    1
    17    17    18    1
    18     7    19    1
    19    19    20   ar
    20    20    21   ar
    21    21    22   ar
    22    22    23    1
    23    23    24    1
    24    24    25    1
    25    25    26    1
    26    22    26   ar
    27    26    27   ar
    28    19    27   ar
    29     3    29    1
    30     3     4    1
    31     5    28    1
    32     5     6    1
    33    11    30    1
    34    15    31    1
    35    15    32    1
    36    15    33    1
    37    16    34    1
    38    18    35    1
    39    18    36    1
    40    18    37    1
    41    20    38    1
    42    21    39    1
    43    24    40    1
    44    24    41    1
    45    27    42    1
    46    28    43    1
    47    28    44    1
    48    28    45    1
    49    29    46    1
    50    29    47    1
    51    29    48    1
