REMARK  Name = NuBBE_571
REMARK  6 active torsions:
REMARK  status: ('A' for Active; 'I' for Inactive)
REMARK    1  A    between atoms: C_3  and  O_9
REMARK    2  A    between atoms: C_5  and  C_6
REMARK    3  A    between atoms: C_14  and  C_15
REMARK    4  A    between atoms: C_23  and  C_24
REMARK    5  A    between atoms: C_23  and  C_25
REMARK    6  A    between atoms: C_27  and  C_29
REMARK                            x       y       z     vdW  Elec       q    Type
REMARK                         _______ _______ _______ _____ _____    ______ ____
ROOT
ATOM      1  O   LIG A   1      -1.353   1.878   1.587  0.00  0.00    -0.294 OA
ATOM      2  C   LIG A   1      -0.196   1.519   1.345  0.00  0.00    +0.172 C 
ATOM      3  C   LIG A   1       0.656   2.273   0.312  0.00  0.00    +0.155 C 
ATOM      4  C   LIG A   1       0.350   3.678  -0.143  0.00  0.00    +0.022 C 
ATOM      5  C   LIG A   1       1.290   4.038  -1.061  0.00  0.00    -0.008 C 
ATOM      6  C   LIG A   1       2.781   4.174  -0.740  0.00  0.00    +0.047 C 
ATOM      7  C   LIG A   1       1.185   2.799  -1.878  0.00  0.00    +0.168 C 
ATOM      8  O   LIG A   1       1.209   2.876  -3.124  0.00  0.00    -0.292 OA
ATOM      9  C   LIG A   1       0.986   1.537  -1.031  0.00  0.00    +0.134 C 
ATOM     10  C   LIG A   1      -0.098   0.713  -1.720  0.00  0.00    +0.165 C 
ATOM     11  C   LIG A   1      -0.291  -0.760  -2.290  0.00  0.00    +0.094 C 
ATOM     12  C   LIG A   1      -1.546  -1.018  -3.096  0.00  0.00    +0.044 C 
ATOM     13  O   LIG A   1       0.516   0.189  -2.938  0.00  0.00    -0.364 OA
ATOM     14  C   LIG A   1       0.468  -2.010  -1.892  0.00  0.00    +0.038 C 
ATOM     15  C   LIG A   1      -0.249  -2.801  -0.784  0.00  0.00    +0.007 C 
ATOM     16  C   LIG A   1      -0.157  -2.019   0.490  0.00  0.00    -0.001 C 
ATOM     17  C   LIG A   1      -0.507  -1.882   2.004  0.00  0.00    -0.001 C 
ATOM     18  C   LIG A   1      -1.605  -2.058   1.073  0.00  0.00    -0.029 C 
ATOM     19  C   LIG A   1      -2.366  -3.339   1.313  0.00  0.00    +0.011 C 
ATOM     20  C   LIG A   1      -2.477  -0.918   0.614  0.00  0.00    +0.011 C 
ATOM     21  C   LIG A   1      -0.383  -0.610   2.800  0.00  0.00    +0.015 C 
ATOM     22  C   LIG A   1       0.542   0.476   2.246  0.00  0.00    +0.056 C 
ATOM     23  C   LIG A   1       1.855  -0.103   1.693  0.00  0.00    +0.015 C 
ENDROOT
BRANCH   3  24
ATOM     24  O   LIG A   1       1.797   2.555   1.169  0.00  0.00    -0.376 OA
ATOM     25  H   LIG A   1       1.493   3.224   1.819  0.00  0.00    +0.211 HD
ENDBRANCH   3  24
TORSDOF 1
