@<TRIPOS>MOLECULE
NuBBE_1550
 66 69 0 0 0
SMALL
GASTEIGER

@<TRIPOS>ATOM
      1 O           0.1734   -6.0390    2.4376 O.2     1  LIG1       -0.2921
      2 C           0.1178   -4.9039    1.9633 C.2     1  LIG1        0.1617
      3 C          -0.0101   -3.7679    2.9055 C.2     1  LIG1       -0.0221
      4 C           0.1743   -2.4988    2.5186 C.2     1  LIG1       -0.0742
      5 C           0.5177   -2.0740    1.0925 C.3     1  LIG1       -0.0065
      6 C           2.0589   -2.0519    1.0307 C.3     1  LIG1       -0.0555
      7 C          -0.1497   -3.1369    0.1467 C.3     1  LIG1       -0.0174
      8 C          -0.0003   -2.7429   -1.3370 C.3     1  LIG1       -0.0218
      9 C          -0.6863   -1.4031   -1.6227 C.3     1  LIG1        0.0618
     10 H          -0.5608   -1.1618   -2.6848 H       1  LIG1        0.0599
     11 O          -2.0861   -1.5935   -1.3986 O.3     1  LIG1       -0.3912
     12 C          -0.1544   -0.2284   -0.7402 C.3     1  LIG1        0.0075
     13 C           1.2525    0.1382   -1.2893 C.3     1  LIG1       -0.0563
     14 C          -0.1280   -0.6586    0.7722 C.3     1  LIG1       -0.0235
     15 C           0.4086    0.5195    1.6189 C.3     1  LIG1       -0.0483
     16 C          -0.5567    1.7014    1.5856 C.3     1  LIG1       -0.0464
     17 C          -1.0455    2.1515    0.1903 C.3     1  LIG1       -0.0184
     18 C          -2.4656    2.7545    0.3967 C.3     1  LIG1       -0.0586
     19 C          -1.1501    0.9894   -0.8511 C.3     1  LIG1        0.0312
     20 C          -1.0011    1.7368   -2.1594 C.2     1  LIG1        0.1378
     21 C          -0.4945    3.1377   -1.9838 C.3     1  LIG1        0.0099
     22 C          -0.1066    3.1962   -0.4955 C.3     1  LIG1       -0.0216
     23 H           0.9318    2.8617   -0.3942 H       1  LIG1        0.0314
     24 C          -0.1772    4.6339    0.0580 C.3     1  LIG1        0.0119
     25 C           0.7653    5.6069   -0.6409 C.2     1  LIG1        0.1587
     26 C           0.7240    7.0539   -0.1540 C.3     1  LIG1        0.1022
     27 O           1.6026    7.9040   -0.8713 O.3     1  LIG1       -0.3875
     28 O           1.5528    5.2580   -1.5220 O.2     1  LIG1       -0.2950
     29 O          -1.2607    1.2508   -3.2617 O.2     1  LIG1       -0.2971
     30 C           0.1851   -4.6357    0.4529 C.3     1  LIG1        0.0311
     31 C          -0.8948   -5.5445   -0.1895 C.3     1  LIG1       -0.0525
     32 C           1.5513   -5.1075   -0.0668 C.3     1  LIG1       -0.0525
     33 H          -0.2158   -4.0300    3.9375 H       1  LIG1        0.0649
     34 H           0.1117   -1.7372    3.2908 H       1  LIG1        0.0579
     35 H           2.5077   -2.8393    1.6481 H       1  LIG1        0.0238
     36 H           2.4760   -1.1154    1.4124 H       1  LIG1        0.0238
     37 H           2.4460   -2.2021    0.0222 H       1  LIG1        0.0238
     38 H          -1.2292   -3.0620    0.3628 H       1  LIG1        0.0319
     39 H          -0.4782   -3.4985   -1.9693 H       1  LIG1        0.0293
     40 H           1.0506   -2.7105   -1.6368 H       1  LIG1        0.0293
     41 H          -2.4486   -2.0080   -2.2023 H       1  LIG1        0.2098
     42 H           1.9459   -0.7008   -1.2676 H       1  LIG1        0.0236
     43 H           1.7324    0.9531   -0.7486 H       1  LIG1        0.0236
     44 H           1.2066    0.4398   -2.3415 H       1  LIG1        0.0236
     45 H          -1.1849   -0.7744    1.0671 H       1  LIG1        0.0315
     46 H           1.3994    0.8458    1.2931 H       1  LIG1        0.0269
     47 H           0.5318    0.2308    2.6670 H       1  LIG1        0.0269
     48 H          -0.1096    2.5441    2.1258 H       1  LIG1        0.0271
     49 H          -1.4254    1.4019    2.1894 H       1  LIG1        0.0271
     50 H          -3.1715    1.9851    0.7323 H       1  LIG1        0.0235
     51 H          -2.8720    3.1855   -0.5238 H       1  LIG1        0.0235
     52 H          -2.4603    3.5367    1.1639 H       1  LIG1        0.0235
     53 H          -2.1812    0.6205   -0.8117 H       1  LIG1        0.0389
     54 H          -1.2954    3.8390   -2.2346 H       1  LIG1        0.0345
     55 H           0.3706    3.2978   -2.6323 H       1  LIG1        0.0345
     56 H          -1.1883    5.0435   -0.0367 H       1  LIG1        0.0345
     57 H           0.0958    4.6334    1.1190 H       1  LIG1        0.0345
     58 H           1.0123    7.0745    0.8998 H       1  LIG1        0.0636
     59 H          -0.2915    7.4430   -0.2668 H       1  LIG1        0.0636
     60 H           2.3785    7.3628   -1.1166 H       1  LIG1        0.2100
     61 H          -1.8998   -5.2657    0.1485 H       1  LIG1        0.0239
     62 H          -0.7498   -6.5968    0.0836 H       1  LIG1        0.0239
     63 H          -0.8774   -5.4966   -1.2823 H       1  LIG1        0.0239
     64 H           2.3860   -4.6282    0.4467 H       1  LIG1        0.0239
     65 H           1.6612   -4.9328   -1.1415 H       1  LIG1        0.0239
     66 H           1.6792   -6.1850    0.0963 H       1  LIG1        0.0239
@<TRIPOS>BOND
     1     2     3    1
     2     3     4    2
     3     4     5    1
     4     5     7    1
     5     7     8    1
     6     8     9    1
     7     9    12    1
     8    12    14    1
     9     5    14    1
    10    14    15    1
    11    15    16    1
    12    16    17    1
    13    17    19    1
    14    12    19    1
    15    19    20    1
    16    20    21    1
    17    21    22    1
    18    17    22    1
    19    24    25    1
    20    25    26    1
    21    26    27    1
    22    25    28    2
    23     7    30    1
    24     2    30    1
    25     1     2    2
    26     5     6    1
    27     9    10    1
    28     9    11    1
    29    12    13    1
    30    17    18    1
    31    20    29    2
    32    22    23    1
    33    22    24    1
    34    30    31    1
    35    30    32    1
    36     3    33    1
    37     4    34    1
    38     6    35    1
    39     6    36    1
    40     6    37    1
    41     7    38    1
    42     8    39    1
    43     8    40    1
    44    11    41    1
    45    13    42    1
    46    13    43    1
    47    13    44    1
    48    14    45    1
    49    15    46    1
    50    15    47    1
    51    16    48    1
    52    16    49    1
    53    18    50    1
    54    18    51    1
    55    18    52    1
    56    19    53    1
    57    21    54    1
    58    21    55    1
    59    24    56    1
    60    24    57    1
    61    26    58    1
    62    26    59    1
    63    27    60    1
    64    31    61    1
    65    31    62    1
    66    31    63    1
    67    32    64    1
    68    32    65    1
    69    32    66    1
