REMARK  Name = NuBBE_1448
REMARK  7 active torsions:
REMARK  status: ('A' for Active; 'I' for Inactive)
REMARK    1  A    between atoms: C_5  and  O_30
REMARK    2  A    between atoms: C_10  and  C_12
REMARK    3  A    between atoms: C_12  and  C_13
REMARK    4  A    between atoms: C_23  and  O_28
REMARK    5  A    between atoms: C_24  and  O_25
REMARK    6  A    between atoms: O_25  and  C_26
REMARK    7  A    between atoms: O_28  and  C_29
REMARK                            x       y       z     vdW  Elec       q    Type
REMARK                         _______ _______ _______ _____ _____    ______ ____
ROOT
ATOM      1  C   LIG A   1      -1.396   0.715   0.311  0.00  0.00    +0.138 C 
ATOM      2  C   LIG A   1      -1.554  -0.390  -0.716  0.00  0.00    +0.181 C 
ATOM      3  C   LIG A   1      -0.447  -0.606  -1.667  0.00  0.00    +0.102 A 
ATOM      4  C   LIG A   1      -0.473  -1.662  -2.600  0.00  0.00    +0.134 A 
ATOM      5  C   LIG A   1       0.584  -1.857  -3.490  0.00  0.00    +0.092 A 
ATOM      6  C   LIG A   1       1.645  -0.977  -3.430  0.00  0.00    +0.132 A 
ATOM      7  C   LIG A   1       1.670   0.081  -2.537  0.00  0.00    +0.041 A 
ATOM      8  C   LIG A   1       2.895   0.884  -2.755  0.00  0.00    +0.091 C 
ATOM      9  C   LIG A   1       3.675  -0.075  -3.672  0.00  0.00    +0.203 C 
ATOM     10  O   LIG A   1       2.751  -1.048  -4.234  0.00  0.00    -0.484 OA
ATOM     11  C   LIG A   1       0.636   0.275  -1.639  0.00  0.00    +0.142 A 
ATOM     12  O   LIG A   1       0.739   1.329  -0.781  0.00  0.00    -0.483 OA
ATOM     13  C   LIG A   1       0.071   1.107   0.468  0.00  0.00    +0.226 C 
ATOM     14  C   LIG A   1       0.886   0.163   1.381  0.00  0.00    +0.274 C 
ATOM     15  O   LIG A   1       0.149  -0.915   1.972  0.00  0.00    -0.488 OA
ATOM     16  C   LIG A   1      -1.067  -0.509   2.447  0.00  0.00    +0.128 A 
ATOM     17  C   LIG A   1      -1.890   0.306   1.674  0.00  0.00    +0.012 A 
ATOM     18  C   LIG A   1      -3.132   0.684   2.184  0.00  0.00    +0.057 A 
ATOM     19  C   LIG A   1      -3.534   0.274   3.467  0.00  0.00    +0.162 A 
ATOM     20  C   LIG A   1      -2.703  -0.573   4.225  0.00  0.00    +0.165 A 
ATOM     21  C   LIG A   1      -1.476  -0.981   3.689  0.00  0.00    +0.095 A 
ATOM     22  O   LIG A   1      -2.572  -1.075  -0.831  0.00  0.00    -0.291 OA
ENDROOT
BRANCH   9  23
ATOM     23  C   LIG A   1       4.417   0.643  -4.782  0.00  0.00    -0.040 C 
ATOM     24  C   LIG A   1       3.679   0.862  -6.074  0.00  0.00    +0.042 C 
ATOM     25  C   LIG A   1       5.681   1.073  -4.620  0.00  0.00    +0.011 C 
ENDBRANCH   9  23
BRANCH  20  26
ATOM     26  O   LIG A   1      -3.157  -1.037   5.432  0.00  0.00    -0.491 OA
ATOM     27  C   LIG A   1      -2.159  -1.297   6.415  0.00  0.00    +0.277 C 
ENDBRANCH  20  26
BRANCH  19  28
ATOM     28  O   LIG A   1      -4.767   0.756   3.825  0.00  0.00    -0.491 OA
ATOM     29  C   LIG A   1      -4.983   0.982   5.213  0.00  0.00    +0.277 C 
ENDBRANCH  19  28
BRANCH   4  30
ATOM     30  O   LIG A   1      -1.516  -2.546  -2.690  0.00  0.00    -0.506 OA
ATOM     31  H   LIG A   1      -2.206  -2.273  -2.043  0.00  0.00    +0.292 HD
ENDBRANCH   4  30
TORSDOF 4
