REMARK  Name = NuBBE_296
REMARK  3 active torsions:
REMARK  status: ('A' for Active; 'I' for Inactive)
REMARK    1  A    between atoms: C_4  and  C_15
REMARK    2  A    between atoms: C_9  and  O_10
REMARK    3  A    between atoms: O_10  and  C_11
REMARK                            x       y       z     vdW  Elec       q    Type
REMARK                         _______ _______ _______ _____ _____    ______ ____
ROOT
ATOM      1  O   LIG A   1      -2.154  -1.034  -0.936  0.00  0.00    -0.292 OA
ATOM      2  C   LIG A   1      -0.994  -1.026  -0.539  0.00  0.00    +0.174 C 
ATOM      3  C   LIG A   1      -0.216  -2.312  -0.453  0.00  0.00    +0.124 C 
ATOM      4  C   LIG A   1       0.753  -2.207   0.707  0.00  0.00    +0.178 C 
ATOM      5  O   LIG A   1       1.681  -1.141   0.477  0.00  0.00    -0.488 OA
ATOM      6  C   LIG A   1       1.064   0.068   0.284  0.00  0.00    +0.135 A 
ATOM      7  C   LIG A   1      -0.252   0.218  -0.183  0.00  0.00    +0.101 A 
ATOM      8  C   LIG A   1      -0.798   1.508  -0.334  0.00  0.00    +0.134 A 
ATOM      9  C   LIG A   1      -0.001   2.621  -0.028  0.00  0.00    +0.046 A 
ATOM     10  C   LIG A   1       1.316   2.461   0.410  0.00  0.00    +0.007 A 
ATOM     11  C   LIG A   1       1.849   1.186   0.561  0.00  0.00    +0.046 A 
ATOM     12  C   LIG A   1       1.561  -3.490   0.858  0.00  0.00    +0.052 C 
ENDROOT
BRANCH   8  13
ATOM     13  O   LIG A   1      -2.088   1.605  -0.777  0.00  0.00    -0.494 OA
ATOM     14  C   LIG A   1      -2.643   2.896  -0.980  0.00  0.00    +0.277 C 
ENDBRANCH   8  13
TORSDOF 1
