REMARK  Name = NuBBE_1514
REMARK  9 active torsions:
REMARK  status: ('A' for Active; 'I' for Inactive)
REMARK    1  A    between atoms: O_1  and  C_2
REMARK    2  A    between atoms: O_1  and  C_5
REMARK    3  A    between atoms: C_2  and  C_4
REMARK    4  A    between atoms: C_16  and  C_19
REMARK    5  A    between atoms: C_20  and  C_25
REMARK    6  A    between atoms: C_25  and  C_26
REMARK    7  A    between atoms: C_32  and  O_34
REMARK    8  A    between atoms: O_34  and  C_35
REMARK    9  A    between atoms: C_35  and  C_37
REMARK                            x       y       z     vdW  Elec       q    Type
REMARK                         _______ _______ _______ _____ _____    ______ ____
ROOT
ATOM      1  C   LIG A   1      -2.817  -1.989   0.194  0.00  0.00    +0.253 C 
ATOM      2  C   LIG A   1      -2.112  -0.795  -0.462  0.00  0.00    +0.092 C 
ATOM      3  C   LIG A   1      -0.643  -1.203  -0.297  0.00  0.00    +0.006 C 
ATOM      4  C   LIG A   1      -0.782  -2.655  -0.772  0.00  0.00    +0.172 C 
ATOM      5  O   LIG A   1      -2.014  -3.134  -0.230  0.00  0.00    -0.336 OA
ATOM      6  C   LIG A   1       0.328  -0.390  -1.192  0.00  0.00    +0.001 C 
ATOM      7  C   LIG A   1       0.417   1.084  -0.738  0.00  0.00    -0.003 C 
ATOM      8  C   LIG A   1       1.425   1.907  -1.609  0.00  0.00    +0.006 C 
ATOM      9  C   LIG A   1       2.786   1.229  -1.944  0.00  0.00    -0.019 C 
ATOM     10  C   LIG A   1       2.617  -0.266  -2.268  0.00  0.00    +0.008 C 
ATOM     11  C   LIG A   1       1.720  -1.036  -1.314  0.00  0.00    +0.005 C 
ATOM     12  C   LIG A   1       3.395   1.880  -3.218  0.00  0.00    +0.012 C 
ATOM     13  C   LIG A   1       3.654   1.538  -0.678  0.00  0.00    +0.061 C 
ATOM     14  C   LIG A   1       3.116   2.917  -0.297  0.00  0.00    +0.137 C 
ATOM     15  O   LIG A   1       3.639   3.683   0.503  0.00  0.00    -0.297 OA
ATOM     16  C   LIG A   1       1.826   3.254  -1.002  0.00  0.00    +0.079 C 
ATOM     17  C   LIG A   1       0.474   1.243   0.800  0.00  0.00    +0.004 C 
ATOM     18  C   LIG A   1       0.704  -0.038   1.593  0.00  0.00    +0.004 C 
ATOM     19  C   LIG A   1      -0.241  -1.195   1.214  0.00  0.00    +0.002 C 
ATOM     20  C   LIG A   1      -1.445  -1.178   2.182  0.00  0.00    +0.055 C 
ATOM     21  C   LIG A   1      -2.696  -1.960   1.745  0.00  0.00    +0.248 C 
ENDROOT
BRANCH  13  22
ATOM     22  C   LIG A   1       5.177   1.530  -0.881  0.00  0.00    +0.008 C 
ATOM     23  C   LIG A   1       5.976   1.769   0.400  0.00  0.00    +0.004 C 
ENDBRANCH  13  22
BRANCH   1  24
ATOM     24  O   LIG A   1      -4.145  -2.240  -0.283  0.00  0.00    -0.429 OA
BRANCH  24  25
ATOM     25  C   LIG A   1      -5.065  -1.249  -0.235  0.00  0.00    +0.306 C 
ATOM     26  O   LIG A   1      -4.876  -0.102   0.154  0.00  0.00    -0.251 OA
ATOM     27  C   LIG A   1      -6.364  -1.720  -0.814  0.00  0.00    +0.136 C 
ENDBRANCH  24  25
ENDBRANCH   1  24
BRANCH  21  28
ATOM     28  O   LIG A   1      -3.834  -1.307   2.354  0.00  0.00    -0.455 OA
BRANCH  28  29
ATOM     29  C   LIG A   1      -4.066  -1.567   3.668  0.00  0.00    +0.304 C 
ATOM     30  O   LIG A   1      -3.454  -2.367   4.353  0.00  0.00    -0.251 OA
ATOM     31  C   LIG A   1      -5.184  -0.699   4.165  0.00  0.00    +0.136 C 
ENDBRANCH  28  29
ENDBRANCH  21  28
TORSDOF 5
