REMARK  Name = NuBBE_966
REMARK  5 active torsions:
REMARK  status: ('A' for Active; 'I' for Inactive)
REMARK    1  A    between atoms: C_1  and  C_2
REMARK    2  A    between atoms: C_11  and  C_15
REMARK    3  A    between atoms: C_15  and  C_16
REMARK    4  A    between atoms: C_15  and  O_17
REMARK    5  A    between atoms: C_15  and  C_18
REMARK                            x       y       z     vdW  Elec       q    Type
REMARK                         _______ _______ _______ _____ _____    ______ ____
ROOT
ATOM      1  C   LIG A   1      -0.001  -1.540  -1.857  0.00  0.00    +0.012 C 
ATOM      2  C   LIG A   1       0.718  -1.391  -0.493  0.00  0.00    -0.025 C 
ATOM      3  C   LIG A   1      -0.243  -0.915   0.634  0.00  0.00    +0.021 C 
ATOM      4  C   LIG A   1      -1.300  -1.978   0.917  0.00  0.00    -0.073 C 
ATOM      5  C   LIG A   1      -0.715  -3.317   1.308  0.00  0.00    +0.030 C 
ATOM      6  C   LIG A   1       0.276  -3.819   0.260  0.00  0.00    +0.005 C 
ATOM      7  C   LIG A   1       1.330  -2.764  -0.093  0.00  0.00    +0.007 C 
ATOM      8  C   LIG A   1      -2.629  -1.802   0.835  0.00  0.00    +0.008 C 
ATOM      9  C   LIG A   1      -0.768   0.513   0.379  0.00  0.00    +0.014 C 
ATOM     10  C   LIG A   1       0.375   1.544   0.223  0.00  0.00    +0.021 C 
ATOM     11  C   LIG A   1       1.375   1.071  -0.854  0.00  0.00    +0.007 C 
ATOM     12  C   LIG A   1       1.862  -0.362  -0.629  0.00  0.00    +0.007 C 
ENDROOT
BRANCH  10  13
ATOM     13  C   LIG A   1      -0.161   2.986  -0.060  0.00  0.00    +0.063 C 
ATOM     14  C   LIG A   1       0.980   4.007  -0.185  0.00  0.00    +0.041 C 
ATOM     15  C   LIG A   1      -1.129   3.464   1.032  0.00  0.00    +0.041 C 
BRANCH  13  16
ATOM     16  O   LIG A   1      -0.874   2.978  -1.301  0.00  0.00    -0.389 OA
ATOM     17  H   LIG A   1      -1.204   3.877  -1.465  0.00  0.00    +0.210 HD
ENDBRANCH  13  16
ENDBRANCH  10  13
TORSDOF 2
