REMARK  Name = NuBBE_2329
REMARK  18 active torsions:
REMARK  status: ('A' for Active; 'I' for Inactive)
REMARK    1  A    between atoms: O_1  and  C_2
REMARK    2  A    between atoms: C_4  and  C_5
REMARK    3  A    between atoms: C_5  and  C_6
REMARK    4  A    between atoms: C_6  and  C_7
REMARK    5  A    between atoms: C_7  and  C_8
REMARK    6  A    between atoms: C_9  and  O_10
REMARK    7  A    between atoms: C_11  and  C_12
REMARK    8  A    between atoms: C_12  and  C_13
REMARK    9  A    between atoms: C_14  and  C_15
REMARK   10  A    between atoms: C_14  and  C_16
REMARK   11  A    between atoms: C_17  and  O_18
REMARK   12  A    between atoms: C_20  and  O_21
REMARK   13  A    between atoms: C_24  and  C_25
REMARK   14  A    between atoms: C_25  and  C_26
REMARK   15  A    between atoms: C_27  and  C_28
REMARK   16  A    between atoms: C_27  and  C_29
REMARK   17  A    between atoms: C_30  and  O_31
REMARK   18  A    between atoms: O_31  and  C_32
REMARK                            x       y       z     vdW  Elec       q    Type
REMARK                         _______ _______ _______ _____ _____    ______ ____
ROOT
ATOM      1  C   LIG A   1       0.765   1.427  -1.914  0.00  0.00    +0.171 C 
ATOM      2  O   LIG A   1       0.229   2.523  -2.044  0.00  0.00    -0.292 OA
ENDROOT
BRANCH   1   3
ATOM      3  C   LIG A   1       2.233   1.396  -1.623  0.00  0.00    +0.101 A 
ATOM      4  C   LIG A   1       2.813   2.507  -0.967  0.00  0.00    +0.138 A 
ATOM      5  C   LIG A   1       4.187   2.553  -0.643  0.00  0.00    +0.040 A 
ATOM      6  C   LIG A   1       4.972   1.451  -1.009  0.00  0.00    +0.127 A 
ATOM      7  C   LIG A   1       4.418   0.349  -1.663  0.00  0.00    +0.092 A 
ATOM      8  C   LIG A   1       3.057   0.324  -1.973  0.00  0.00    +0.134 A 
BRANCH   4   9
ATOM      9  O   LIG A   1       2.054   3.596  -0.598  0.00  0.00    -0.505 OA
ATOM     10  H   LIG A   1       1.167   3.513  -1.015  0.00  0.00    +0.292 HD
ENDBRANCH   4   9
BRANCH   6  11
ATOM     11  O   LIG A   1       6.314   1.355  -0.768  0.00  0.00    -0.506 OA
ATOM     12  H   LIG A   1       6.664   2.202  -0.451  0.00  0.00    +0.292 HD
ENDBRANCH   6  11
BRANCH   8  13
ATOM     13  O   LIG A   1       2.563  -0.758  -2.647  0.00  0.00    -0.506 OA
ATOM     14  H   LIG A   1       3.286  -1.384  -2.827  0.00  0.00    +0.292 HD
ENDBRANCH   8  13
BRANCH   5  15
ATOM     15  C   LIG A   1       4.744   3.735   0.132  0.00  0.00    +0.069 C 
BRANCH  15  16
ATOM     16  C   LIG A   1       4.697   3.516   1.625  0.00  0.00    -0.023 C 
ATOM     17  C   LIG A   1       4.545   4.448   2.588  0.00  0.00    -0.079 C 
ATOM     18  C   LIG A   1       4.422   5.928   2.355  0.00  0.00    +0.038 C 
ATOM     19  C   LIG A   1       4.491   4.052   4.042  0.00  0.00    +0.038 C 
ENDBRANCH  15  16
ENDBRANCH   5  15
ENDBRANCH   1   3
BRANCH   1  20
ATOM     20  C   LIG A   1      -0.028   0.134  -1.979  0.00  0.00    +0.084 C 
BRANCH  20  21
ATOM     21  C   LIG A   1      -1.491   0.371  -1.590  0.00  0.00    +0.043 C 
BRANCH  21  24
ATOM     22  C   LIG A   1      -3.583  -2.571  -2.830  0.00  0.00    +0.159 A 
ATOM     23  C   LIG A   1      -2.923  -1.335  -2.788  0.00  0.00    +0.052 A 
ATOM     24  C   LIG A   1      -2.273  -0.918  -1.627  0.00  0.00    -0.043 A 
ATOM     25  C   LIG A   1      -2.308  -1.748  -0.506  0.00  0.00    +0.011 A 
ATOM     26  C   LIG A   1      -2.954  -2.999  -0.530  0.00  0.00    +0.002 A 
ATOM     27  C   LIG A   1      -3.592  -3.427  -1.714  0.00  0.00    +0.165 A 
BRANCH  22  28
ATOM     28  O   LIG A   1      -4.212  -2.907  -3.999  0.00  0.00    -0.503 OA
ATOM     29  H   LIG A   1      -4.100  -2.185  -4.638  0.00  0.00    +0.292 HD
ENDBRANCH  22  28
BRANCH  27  30
ATOM     30  O   LIG A   1      -4.146  -4.679  -1.639  0.00  0.00    -0.491 OA
ATOM     31  C   LIG A   1      -4.767  -5.226  -2.792  0.00  0.00    +0.277 C 
ENDBRANCH  27  30
BRANCH  26  32
ATOM     32  C   LIG A   1      -2.940  -3.836   0.736  0.00  0.00    +0.066 C 
BRANCH  32  33
ATOM     33  C   LIG A   1      -4.104  -3.555   1.651  0.00  0.00    -0.023 C 
ATOM     34  C   LIG A   1      -4.162  -2.694   2.688  0.00  0.00    -0.079 C 
ATOM     35  C   LIG A   1      -3.055  -1.771   3.114  0.00  0.00    +0.038 C 
ATOM     36  C   LIG A   1      -5.414  -2.569   3.516  0.00  0.00    +0.038 C 
ENDBRANCH  32  33
ENDBRANCH  26  32
ENDBRANCH  21  24
ENDBRANCH  20  21
ENDBRANCH   1  20
TORSDOF 13
