REMARK  Name = NuBBE_414
REMARK  12 active torsions:
REMARK  status: ('A' for Active; 'I' for Inactive)
REMARK    1  A    between atoms: O_1  and  C_2
REMARK    2  A    between atoms: C_2  and  C_3
REMARK    3  A    between atoms: C_3  and  C_4
REMARK    4  A    between atoms: C_4  and  C_5
REMARK    5  A    between atoms: C_10  and  C_12
REMARK    6  A    between atoms: C_15  and  O_16
REMARK    7  A    between atoms: C_17  and  O_18
REMARK    8  A    between atoms: O_18  and  C_19
REMARK    9  A    between atoms: C_21  and  C_23
REMARK   10  A    between atoms: C_23  and  O_24
REMARK   11  A    between atoms: C_25  and  O_26
REMARK   12  A    between atoms: O_26  and  C_27
REMARK                            x       y       z     vdW  Elec       q    Type
REMARK                         _______ _______ _______ _____ _____    ______ ____
ROOT
ATOM      1  C   LIG A   1       0.724  -1.658   2.686  0.00  0.00    -0.043 A 
ATOM      2  C   LIG A   1       0.750  -0.276   2.471  0.00  0.00    +0.011 A 
ATOM      3  C   LIG A   1       1.045   0.196   1.197  0.00  0.00    +0.007 A 
ATOM      4  C   LIG A   1       1.291  -0.678   0.147  0.00  0.00    +0.166 A 
ATOM      5  O   LIG A   1       1.570  -0.034  -1.030  0.00  0.00    -0.480 OA
ATOM      6  C   LIG A   1       1.414   1.380  -0.770  0.00  0.00    +0.213 C 
ATOM      7  C   LIG A   1       1.161   1.609   0.737  0.00  0.00    +0.093 C 
ATOM      8  C   LIG A   1       1.255  -2.053   0.319  0.00  0.00    +0.162 A 
ATOM      9  C   LIG A   1       0.971  -2.530   1.605  0.00  0.00    +0.053 A 
ENDROOT
BRANCH   6  10
ATOM     10  C   LIG A   1       0.345   1.961  -1.683  0.00  0.00    -0.003 A 
ATOM     11  C   LIG A   1       0.429   3.297  -2.087  0.00  0.00    +0.011 A 
ATOM     12  C   LIG A   1      -0.513   3.837  -2.970  0.00  0.00    +0.049 A 
ATOM     13  C   LIG A   1      -1.552   3.038  -3.461  0.00  0.00    +0.159 A 
ATOM     14  C   LIG A   1      -1.657   1.705  -3.070  0.00  0.00    +0.162 A 
ATOM     15  C   LIG A   1      -0.723   1.182  -2.164  0.00  0.00    +0.056 A 
BRANCH  13  16
ATOM     16  O   LIG A   1      -2.466   3.604  -4.309  0.00  0.00    -0.503 OA
ATOM     17  H   LIG A   1      -2.269   4.545  -4.411  0.00  0.00    +0.292 HD
ENDBRANCH  13  16
BRANCH  14  18
ATOM     18  O   LIG A   1      -2.630   0.810  -3.445  0.00  0.00    -0.491 OA
ATOM     19  C   LIG A   1      -3.119   0.943  -4.773  0.00  0.00    +0.277 C 
ENDBRANCH  14  18
ENDBRANCH   6  10
BRANCH   8  20
ATOM     20  O   LIG A   1       1.457  -3.028  -0.614  0.00  0.00    -0.491 OA
ATOM     21  C   LIG A   1       1.766  -2.608  -1.937  0.00  0.00    +0.277 C 
ENDBRANCH   8  20
BRANCH   1  22
ATOM     22  C   LIG A   1       0.415  -2.220   4.054  0.00  0.00    +0.037 C 
BRANCH  22  23
ATOM     23  C   LIG A   1      -1.084  -2.401   4.320  0.00  0.00    +0.032 C 
BRANCH  23  24
ATOM     24  C   LIG A   1      -1.760  -3.385   3.373  0.00  0.00    +0.156 C 
BRANCH  24  25
ATOM     25  O   LIG A   1      -1.149  -4.663   3.491  0.00  0.00    -0.395 OA
ATOM     26  H   LIG A   1      -1.535  -5.226   2.798  0.00  0.00    +0.209 HD
ENDBRANCH  24  25
ENDBRANCH  23  24
ENDBRANCH  22  23
ENDBRANCH   1  22
BRANCH   7  27
ATOM     27  C   LIG A   1       2.344   2.344   1.377  0.00  0.00    +0.168 C 
BRANCH  27  28
ATOM     28  O   LIG A   1       2.128   2.614   2.760  0.00  0.00    -0.394 OA
ATOM     29  H   LIG A   1       1.295   3.105   2.849  0.00  0.00    +0.209 HD
ENDBRANCH  27  28
ENDBRANCH   7  27
TORSDOF 10
