@<TRIPOS>MOLECULE
NuBBE_1502
 45 49 0 0 0
SMALL
GASTEIGER

@<TRIPOS>ATOM
      1 C          -1.0935   -0.0292   -2.0053 C.3     1  LIG1        0.0039
      2 C          -1.7424   -0.5275   -0.7419 C.ar    1  LIG1       -0.0199
      3 C          -2.1068   -1.8810   -0.4301 C.ar    1  LIG1        0.0029
      4 C          -2.7306   -1.8708    0.8180 C.ar    1  LIG1        0.0467
      5 N          -2.7352   -0.5683    1.2568 N.ar    1  LIG1       -0.3604
      6 H          -3.1314   -0.2620    2.1345 H       1  LIG1        0.1653
      7 C          -2.1303    0.2447    0.3367 C.ar    1  LIG1        0.0060
      8 C          -3.2322   -3.0285    1.4267 C.ar    1  LIG1       -0.0378
      9 C          -3.0661   -4.2413    0.7521 C.ar    1  LIG1       -0.0598
     10 C          -2.4342   -4.2896   -0.4870 C.ar    1  LIG1       -0.0611
     11 C          -1.9640   -3.1187   -1.0934 C.ar    1  LIG1       -0.0523
     12 C           0.4533    0.0115   -2.0021 C.3     1  LIG1        0.1188
     13 H           0.7805    0.4295   -2.9642 H       1  LIG1        0.0629
     14 N           1.0076    0.8843   -0.9566 N.ar    1  LIG1       -0.2823
     15 C           1.3722    0.3659    0.2719 C.ar    1  LIG1        0.1338
     16 N           1.5660    1.0887    1.3312 N.ar    1  LIG1       -0.2316
     17 C           1.4121    2.4758    1.2309 C.ar    1  LIG1        0.0782
     18 C           1.1025    3.1064    0.0290 C.ar    1  LIG1        0.0649
     19 C           0.8426    2.2517   -1.1399 C.ar    1  LIG1        0.2625
     20 O           0.4675    2.7619   -2.1945 O.2     1  LIG1       -0.2669
     21 C           1.0148    4.5013   -0.0573 C.ar    1  LIG1       -0.0474
     22 C           1.2430    5.2763    1.0790 C.ar    1  LIG1       -0.0609
     23 C           1.5473    4.6566    2.2907 C.ar    1  LIG1       -0.0597
     24 C           1.6317    3.2629    2.3637 C.ar    1  LIG1       -0.0355
     25 C           1.7873   -1.1147    0.3184 C.3     1  LIG1        0.0786
     26 H           1.4309   -1.5365    1.2651 H       1  LIG1        0.0576
     27 N           1.2206   -1.9329   -0.7306 N.am    1  LIG1       -0.3041
     28 C           0.9843   -1.4194   -1.9772 C.2     1  LIG1        0.2369
     29 O           0.9703   -2.1588   -2.9585 O.2     1  LIG1       -0.2735
     30 C           3.3122   -1.1974    0.2731 C.3     1  LIG1       -0.0395
     31 H          -1.4858    0.9751   -2.2118 H       1  LIG1        0.0339
     32 H          -1.4365   -0.6545   -2.8404 H       1  LIG1        0.0339
     33 H          -2.0404    1.3071    0.5224 H       1  LIG1        0.0810
     34 H          -3.7308   -2.9936    2.3897 H       1  LIG1        0.0638
     35 H          -3.4368   -5.1596    1.2020 H       1  LIG1        0.0618
     36 H          -2.3060   -5.2432   -0.9934 H       1  LIG1        0.0618
     37 H          -1.4775   -3.1745   -2.0637 H       1  LIG1        0.0624
     38 H           0.7731    4.9805   -1.0034 H       1  LIG1        0.0626
     39 H           1.1839    6.3606    1.0200 H       1  LIG1        0.0618
     40 H           1.7268    5.2571    3.1794 H       1  LIG1        0.0618
     41 H           1.8819    2.7846    3.3073 H       1  LIG1        0.0639
     42 H           1.4510   -2.9190   -0.7331 H       1  LIG1        0.1494
     43 H           3.7628   -0.6399    1.1012 H       1  LIG1        0.0252
     44 H           3.7081   -0.7837   -0.6612 H       1  LIG1        0.0252
     45 H           3.6465   -2.2381    0.3458 H       1  LIG1        0.0252
@<TRIPOS>BOND
     1     1     2    1
     2     2     3   ar
     3     3     4   ar
     4     4     5   ar
     5     5     6    1
     6     5     7   ar
     7     2     7   ar
     8     4     8   ar
     9     8     9   ar
    10     9    10   ar
    11    10    11   ar
    12     3    11   ar
    13     1    12    1
    14    12    13    1
    15    12    14    1
    16    14    15   ar
    17    15    16   ar
    18    16    17   ar
    19    17    18   ar
    20    18    19   ar
    21    14    19   ar
    22    19    20    2
    23    18    21   ar
    24    21    22   ar
    25    22    23   ar
    26    23    24   ar
    27    17    24   ar
    28    15    25    1
    29    25    26    1
    30    25    27    1
    31    27    28   am
    32    12    28    1
    33    28    29    2
    34    25    30    1
    35     1    31    1
    36     1    32    1
    37     7    33    1
    38     8    34    1
    39     9    35    1
    40    10    36    1
    41    11    37    1
    42    21    38    1
    43    22    39    1
    44    23    40    1
    45    24    41    1
    46    27    42    1
    47    30    43    1
    48    30    44    1
    49    30    45    1
