@<TRIPOS>MOLECULE
NuBBE_1265
 56 59 0 0 0
SMALL
GASTEIGER

@<TRIPOS>ATOM
      1 C          -1.5044    3.6184    0.0474 C.3     1  LIG1       -0.0215
      2 C          -0.0299    3.2744   -0.1899 C.3     1  LIG1        0.1235
      3 O           0.0333    2.3791   -1.3165 O.3     1  LIG1       -0.4811
      4 C           0.7330    4.5336   -0.6174 C.3     1  LIG1       -0.0215
      5 C           0.5821    2.7328    1.0767 C.2     1  LIG1       -0.0408
      6 C           0.8753    1.4403    1.2388 C.2     1  LIG1       -0.0478
      7 C           0.5681    0.5170    0.1488 C.ar    1  LIG1        0.0594
      8 C           0.1513    1.0323   -1.0878 C.ar    1  LIG1        0.1393
      9 C          -0.1188    0.1785   -2.1761 C.ar    1  LIG1        0.0409
     10 C          -0.5606    0.7493   -3.5096 C.3     1  LIG1       -0.0023
     11 C          -2.0605    0.8470   -3.6240 C.2     1  LIG1       -0.0807
     12 C          -2.8129    1.9466   -3.8300 C.2     1  LIG1       -0.0793
     13 C          -2.2848    3.3454   -3.9866 C.3     1  LIG1       -0.0440
     14 C          -4.3131    1.8435   -3.9236 C.3     1  LIG1       -0.0440
     15 C           0.0081   -1.2078   -1.9895 C.ar    1  LIG1        0.1378
     16 O          -0.2663   -2.0245   -3.0588 O.3     1  LIG1       -0.5055
     17 C           0.4186   -1.7300   -0.7541 C.ar    1  LIG1        0.1015
     18 C           0.6913   -0.8715    0.3127 C.ar    1  LIG1        0.1460
     19 O           1.1248   -1.3210    1.5318 O.3     1  LIG1       -0.4823
     20 C           0.7982   -2.6823    1.8351 C.3     1  LIG1        0.1322
     21 H          -0.2918   -2.7377    1.9678 H       1  LIG1        0.0789
     22 C           1.4658   -3.0351    3.1551 C.ar    1  LIG1       -0.0067
     23 C           0.8930   -3.9911    4.0096 C.ar    1  LIG1       -0.0516
     24 C           1.5078   -4.3229    5.2218 C.ar    1  LIG1       -0.0198
     25 C           2.6985   -3.7003    5.5821 C.ar    1  LIG1        0.1169
     26 O           3.3313   -3.9915    6.7537 O.3     1  LIG1       -0.5068
     27 C           3.2850   -2.7565    4.7517 C.ar    1  LIG1       -0.0198
     28 C           2.6755   -2.4299    3.5406 C.ar    1  LIG1       -0.0516
     29 C           1.2619   -3.6155    0.7289 C.3     1  LIG1        0.0520
     30 C           0.6260   -3.1785   -0.5582 C.2     1  LIG1        0.1740
     31 O           0.3440   -3.9677   -1.4617 O.2     1  LIG1       -0.2917
     32 H          -1.9601    4.0260   -0.8616 H       1  LIG1        0.0271
     33 H          -1.6297    4.3501    0.8528 H       1  LIG1        0.0271
     34 H          -2.0815    2.7221    0.3046 H       1  LIG1        0.0271
     35 H           0.3190    4.9449   -1.5455 H       1  LIG1        0.0271
     36 H           1.7846    4.3011   -0.8258 H       1  LIG1        0.0271
     37 H           0.6995    5.3146    0.1502 H       1  LIG1        0.0271
     38 H           0.7680    3.4263    1.8922 H       1  LIG1        0.0611
     39 H           1.3042    1.0662    2.1618 H       1  LIG1        0.0624
     40 H          -0.1870    0.1189   -4.3260 H       1  LIG1        0.0358
     41 H          -0.0648    1.7100   -3.6746 H       1  LIG1        0.0358
     42 H          -2.5645   -0.1164   -3.5393 H       1  LIG1        0.0575
     43 H          -1.1985    3.4183   -3.9131 H       1  LIG1        0.0274
     44 H          -2.7071    3.9940   -3.2126 H       1  LIG1        0.0274
     45 H          -2.5725    3.7465   -4.9641 H       1  LIG1        0.0274
     46 H          -4.6701    0.8156   -3.8019 H       1  LIG1        0.0274
     47 H          -4.6568    2.2018   -4.8997 H       1  LIG1        0.0274
     48 H          -4.7830    2.4529   -3.1446 H       1  LIG1        0.0274
     49 H          -0.1283   -2.9599   -2.7870 H       1  LIG1        0.2922
     50 H          -0.0395   -4.4833    3.7409 H       1  LIG1        0.0623
     51 H           1.0451   -5.0623    5.8680 H       1  LIG1        0.0654
     52 H           2.8187   -4.6678    7.2250 H       1  LIG1        0.2921
     53 H           4.2130   -2.2733    5.0438 H       1  LIG1        0.0654
     54 H           3.1513   -1.6871    2.9029 H       1  LIG1        0.0623
     55 H           0.9611   -4.6471    0.9434 H       1  LIG1        0.0385
     56 H           2.3494   -3.5865    0.5915 H       1  LIG1        0.0385
@<TRIPOS>BOND
     1     1     2    1
     2     2     3    1
     3     2     4    1
     4     2     5    1
     5     5     6    2
     6     6     7    1
     7     7     8   ar
     8     3     8    1
     9     8     9   ar
    10     9    10    1
    11    10    11    1
    12    11    12    2
    13    12    13    1
    14    12    14    1
    15     9    15   ar
    16    15    16    1
    17    15    17   ar
    18    17    18   ar
    19     7    18   ar
    20    18    19    1
    21    19    20    1
    22    20    21    1
    23    20    22    1
    24    22    23   ar
    25    23    24   ar
    26    24    25   ar
    27    25    26    1
    28    25    27   ar
    29    27    28   ar
    30    22    28   ar
    31    20    29    1
    32    29    30    1
    33    17    30    1
    34    30    31    2
    35     1    32    1
    36     1    33    1
    37     1    34    1
    38     4    35    1
    39     4    36    1
    40     4    37    1
    41     5    38    1
    42     6    39    1
    43    10    40    1
    44    10    41    1
    45    11    42    1
    46    13    43    1
    47    13    44    1
    48    13    45    1
    49    14    46    1
    50    14    47    1
    51    14    48    1
    52    16    49    1
    53    23    50    1
    54    24    51    1
    55    26    52    1
    56    27    53    1
    57    28    54    1
    58    29    55    1
    59    29    56    1
