@<TRIPOS>MOLECULE
NuBBE_132
 81 85 0 0 0
SMALL
GASTEIGER

@<TRIPOS>ATOM
      1 C          -3.2340    0.9996   -4.4865 C.3     1  LIG1       -0.0598
      2 C          -1.8827    1.7058   -4.7240 C.3     1  LIG1       -0.0343
      3 C          -1.4632    1.4236   -6.1798 C.3     1  LIG1       -0.0598
      4 C          -2.0197    3.2287   -4.5233 C.3     1  LIG1       -0.0468
      5 C          -2.2346    3.6412   -3.0632 C.3     1  LIG1       -0.0362
      6 C          -1.1604    3.0835   -2.0974 C.3     1  LIG1        0.0741
      7 C          -1.6208    3.3387   -0.6342 C.3     1  LIG1       -0.0359
      8 C          -0.6849    2.7024    0.4070 C.3     1  LIG1       -0.0424
      9 C          -0.4535    1.1672    0.2247 C.3     1  LIG1       -0.0051
     10 C          -0.0556    0.9311   -1.2663 C.2     1  LIG1       -0.0629
     11 C           1.0355    0.2142   -1.6199 C.2     1  LIG1       -0.0836
     12 C           1.8966   -0.5835   -0.6706 C.3     1  LIG1       -0.0306
     13 C           1.1297   -0.7915    0.6455 C.3     1  LIG1       -0.0257
     14 C           1.6807   -1.8410    1.6756 C.3     1  LIG1       -0.0250
     15 C           2.0097   -3.1756    0.9216 C.3     1  LIG1       -0.0447
     16 C           1.6684   -4.4679    1.6662 C.3     1  LIG1       -0.0258
     17 C           1.7367   -4.3267    3.1784 C.3     1  LIG1        0.0606
     18 O           1.5424   -5.6057    3.7828 O.3     1  LIG1       -0.3912
     19 C           0.7351   -3.2642    3.7299 C.3     1  LIG1       -0.0056
     20 C           1.2951   -2.7576    5.0775 C.3     1  LIG1       -0.0572
     21 C           0.4982   -2.1219    2.6661 C.3     1  LIG1       -0.0278
     22 C          -0.2357   -0.8648    3.1947 C.3     1  LIG1       -0.0486
     23 C           0.2665    0.4929    2.7060 C.3     1  LIG1       -0.0463
     24 C           0.7023    0.6089    1.2189 C.3     1  LIG1       -0.0194
     25 C           1.9049    1.6135    1.2299 C.3     1  LIG1       -0.0585
     26 C          -0.6425   -3.9110    4.0406 C.3     1  LIG1       -0.0572
     27 H           2.7603   -4.0466    3.4449 H       1  LIG1        0.0599
     28 C           2.9652   -1.3541    2.3675 C.3     1  LIG1       -0.0590
     29 C          -1.8038    0.4492    0.5226 C.3     1  LIG1       -0.0553
     30 C          -1.0071    1.5535   -2.2979 C.3     1  LIG1       -0.0031
     31 C          -0.7953    1.1482   -3.7761 C.3     1  LIG1       -0.0403
     32 C           0.1479    3.8349   -2.3771 C.2     1  LIG1        0.3115
     33 O           0.1726    5.0826   -1.8642 O.3     1  LIG1       -0.4802
     34 O           1.0935    3.4634   -3.0556 O.2     1  LIG1       -0.2504
     35 H          -3.6338    1.1736   -3.4838 H       1  LIG1        0.0235
     36 H          -3.1371   -0.0847   -4.6152 H       1  LIG1        0.0235
     37 H          -3.9895    1.3497   -5.1991 H       1  LIG1        0.0235
     38 H          -0.5072    1.9024   -6.4191 H       1  LIG1        0.0235
     39 H          -2.2104    1.8006   -6.8871 H       1  LIG1        0.0235
     40 H          -1.3492    0.3477   -6.3560 H       1  LIG1        0.0235
     41 H          -2.8538    3.6117   -5.1253 H       1  LIG1        0.0271
     42 H          -1.1198    3.7309   -4.9011 H       1  LIG1        0.0271
     43 H          -3.2294    3.3054   -2.7447 H       1  LIG1        0.0276
     44 H          -2.2597    4.7374   -3.0129 H       1  LIG1        0.0276
     45 H          -2.6372    2.9525   -0.4898 H       1  LIG1        0.0276
     46 H          -1.6914    4.4143   -0.4289 H       1  LIG1        0.0276
     47 H          -1.0874    2.9043    1.4070 H       1  LIG1        0.0274
     48 H           0.2596    3.2515    0.3444 H       1  LIG1        0.0274
     49 H           1.3204    0.1160   -2.6643 H       1  LIG1        0.0572
     50 H           2.8651   -0.0953   -0.5257 H       1  LIG1        0.0310
     51 H           2.1074   -1.5411   -1.1561 H       1  LIG1        0.0310
     52 H           0.2051   -1.2845    0.3119 H       1  LIG1        0.0315
     53 H           3.0720   -3.1901    0.6442 H       1  LIG1        0.0271
     54 H           1.4597   -3.2308   -0.0257 H       1  LIG1        0.0271
     55 H           2.3335   -5.2728    1.3287 H       1  LIG1        0.0290
     56 H           0.6620   -4.7991    1.3770 H       1  LIG1        0.0290
     57 H           0.7614   -6.0182    3.3762 H       1  LIG1        0.2098
     58 H           2.1765   -2.1262    4.9405 H       1  LIG1        0.0236
     59 H           1.5897   -3.5992    5.7163 H       1  LIG1        0.0236
     60 H           0.5563   -2.1872    5.6487 H       1  LIG1        0.0236
     61 H          -0.2651   -2.5636    2.0004 H       1  LIG1        0.0312
     62 H          -0.2380   -0.8283    4.2868 H       1  LIG1        0.0268
     63 H          -1.2965   -0.9608    2.9312 H       1  LIG1        0.0268
     64 H           1.1148    0.7489    3.3547 H       1  LIG1        0.0271
     65 H          -0.4781    1.2602    2.9488 H       1  LIG1        0.0271
     66 H           2.1783    1.9691    0.2319 H       1  LIG1        0.0235
     67 H           2.8046    1.1790    1.6703 H       1  LIG1        0.0235
     68 H           1.6718    2.5002    1.8321 H       1  LIG1        0.0235
     69 H          -1.0627   -4.3976    3.1530 H       1  LIG1        0.0236
     70 H          -1.3671   -3.1624    4.3797 H       1  LIG1        0.0236
     71 H          -0.5695   -4.6657    4.8314 H       1  LIG1        0.0236
     72 H           3.6853   -0.9761    1.6337 H       1  LIG1        0.0235
     73 H           3.4794   -2.1538    2.9053 H       1  LIG1        0.0235
     74 H           2.7815   -0.5660    3.0989 H       1  LIG1        0.0235
     75 H          -2.6165    0.7657   -0.1361 H       1  LIG1        0.0238
     76 H          -2.1555    0.6704    1.5351 H       1  LIG1        0.0238
     77 H          -1.7374   -0.6369    0.4183 H       1  LIG1        0.0238
     78 H          -1.9814    1.1107   -2.0608 H       1  LIG1        0.0357
     79 H          -0.7856    0.0520   -3.8540 H       1  LIG1        0.0276
     80 H           0.1885    1.4817   -4.1251 H       1  LIG1        0.0276
     81 H           1.0391    5.4334   -2.1597 H       1  LIG1        0.2951
@<TRIPOS>BOND
     1     2     4    1
     2     4     5    1
     3     5     6    1
     4     6     7    1
     5     7     8    1
     6     8     9    1
     7     9    10    1
     8    10    11    2
     9    11    12    1
    10    12    13    1
    11    13    14    1
    12    14    15    1
    13    15    16    1
    14    16    17    1
    15    17    19    1
    16    19    21    1
    17    14    21    1
    18    21    22    1
    19    22    23    1
    20    23    24    1
    21     9    24    1
    22    13    24    1
    23     6    30    1
    24    10    30    1
    25    30    31    1
    26     2    31    1
    27    32    33    1
    28    32    34    2
    29     1     2    1
    30     2     3    1
    31     6    32    1
    32     9    29    1
    33    14    28    1
    34    19    20    1
    35    19    26    1
    36    24    25    1
    37    17    27    1
    38    17    18    1
    39     1    35    1
    40     1    36    1
    41     1    37    1
    42     3    38    1
    43     3    39    1
    44     3    40    1
    45     4    41    1
    46     4    42    1
    47     5    43    1
    48     5    44    1
    49     7    45    1
    50     7    46    1
    51     8    47    1
    52     8    48    1
    53    11    49    1
    54    12    50    1
    55    12    51    1
    56    13    52    1
    57    15    53    1
    58    15    54    1
    59    16    55    1
    60    16    56    1
    61    18    57    1
    62    20    58    1
    63    20    59    1
    64    20    60    1
    65    21    61    1
    66    22    62    1
    67    22    63    1
    68    23    64    1
    69    23    65    1
    70    25    66    1
    71    25    67    1
    72    25    68    1
    73    26    69    1
    74    26    70    1
    75    26    71    1
    76    28    72    1
    77    28    73    1
    78    28    74    1
    79    29    75    1
    80    29    76    1
    81    29    77    1
    82    30    78    1
    83    31    79    1
    84    31    80    1
    85    33    81    1
