@<TRIPOS>MOLECULE
NuBBE_125
 76 80 0 0 0
SMALL
GASTEIGER

@<TRIPOS>ATOM
      1 O           3.3540    2.8641   10.2875 O.3     1  LIG1       -0.5033
      2 C           3.3463    2.4969    8.9724 C.ar    1  LIG1        0.1583
      3 C           2.1711    2.2582    8.2777 C.ar    1  LIG1       -0.0159
      4 C           2.2412    1.8980    6.9243 C.ar    1  LIG1       -0.0474
      5 C           3.4800    1.7709    6.2527 C.ar    1  LIG1        0.0211
      6 C           3.5293    1.4152    4.8100 C.ar    1  LIG1        0.1393
      7 O           2.2830    1.2482    4.2373 O.2     1  LIG1       -0.4543
      8 C           2.1946    1.0774    2.8835 C.ar    1  LIG1        0.1465
      9 C           3.2875    0.9124    2.0486 C.ar    1  LIG1        0.1091
     10 C           3.0907    0.7502    0.6653 C.ar    1  LIG1        0.1769
     11 O           4.1708    0.5871   -0.1759 O.3     1  LIG1       -0.5027
     12 C           1.7886    0.7884    0.1100 C.ar    1  LIG1        0.2074
     13 O           1.7014    0.5967   -1.2508 O.3     1  LIG1       -0.4535
     14 C           0.6243    1.2217   -1.9775 C.3     1  LIG1        0.2311
     15 H           0.0230    1.8979   -1.3708 H       1  LIG1        0.1084
     16 O          -0.2569    0.2048   -2.4916 O.3     1  LIG1       -0.3313
     17 C          -0.5862    0.3194   -3.8854 C.3     1  LIG1        0.1144
     18 H          -1.1170    1.2624   -4.0603 H       1  LIG1        0.0647
     19 C           0.7212    0.2240   -4.6964 C.3     1  LIG1        0.1120
     20 H           1.1421   -0.7809   -4.5663 H       1  LIG1        0.0647
     21 C           1.7627    1.2671   -4.2327 C.3     1  LIG1        0.1152
     22 H           2.0029    1.9333   -5.0704 H       1  LIG1        0.0648
     23 O           2.9976    0.6121   -3.9151 O.3     1  LIG1       -0.3864
     24 O           0.4787    0.3878   -6.0986 O.3     1  LIG1       -0.3865
     25 C          -1.5685   -0.8091   -4.2796 C.3     1  LIG1        0.0796
     26 O          -2.7953   -0.7104   -3.5289 O.3     1  LIG1       -0.3461
     27 C          -3.6998   -1.7957   -3.8133 C.3     1  LIG1        0.1879
     28 H          -4.0063   -1.7402   -4.8652 H       1  LIG1        0.0937
     29 C          -4.9358   -1.6100   -2.8932 C.3     1  LIG1        0.1341
     30 H          -5.5028   -0.7198   -3.1880 H       1  LIG1        0.0671
     31 C          -5.8387   -2.8463   -2.8935 C.3     1  LIG1        0.1140
     32 H          -6.3900   -2.9195   -3.8387 H       1  LIG1        0.0648
     33 C          -5.0263   -4.1288   -2.6763 C.3     1  LIG1        0.1095
     34 H          -4.6038   -4.1405   -1.6638 H       1  LIG1        0.0646
     35 O          -5.8994   -5.2567   -2.7874 O.3     1  LIG1       -0.3866
     36 C          -3.9153   -4.1776   -3.7289 C.3     1  LIG1        0.0873
     37 H          -4.3546   -4.1729   -4.7357 H       1  LIG1        0.0621
     38 C          -3.0540   -5.4298   -3.6112 C.3     1  LIG1       -0.0361
     39 O          -3.0534   -3.0460   -3.5784 O.3     1  LIG1       -0.3431
     40 O          -6.8254   -2.7485   -1.8507 O.3     1  LIG1       -0.3864
     41 O          -4.5325   -1.3729   -1.5242 O.3     1  LIG1       -0.3841
     42 C           1.2640    2.1206   -3.0633 C.3     1  LIG1        0.1454
     43 H           2.1002    2.6768   -2.6236 H       1  LIG1        0.0683
     44 O           0.3036    3.0971   -3.5102 O.3     1  LIG1       -0.3829
     45 C           0.6978    0.9770    0.9821 C.ar    1  LIG1        0.1688
     46 O          -0.5886    0.9748    0.5086 O.3     1  LIG1       -0.4912
     47 C          -1.4388    1.9530    1.1145 C.3     1  LIG1        0.0790
     48 C           0.9140    1.0885    2.3593 C.ar    1  LIG1        0.0270
     49 C           4.6682    1.2756    4.1158 C.ar    1  LIG1        0.0288
     50 C           4.6083    0.9586    2.6775 C.ar    1  LIG1        0.1967
     51 O           5.6352    0.7751    2.0150 O.2     1  LIG1       -0.2869
     52 C           4.6463    2.0120    6.9922 C.ar    1  LIG1       -0.0059
     53 C           4.5708    2.3694    8.3307 C.ar    1  LIG1        0.1589
     54 O           5.7328    2.6013    9.0091 O.3     1  LIG1       -0.5033
     55 H           2.4319    2.9467   10.5851 H       1  LIG1        0.2923
     56 H           1.2011    2.3452    8.7574 H       1  LIG1        0.0655
     57 H           1.3027    1.7206    6.4004 H       1  LIG1        0.0626
     58 H           4.9942    0.6033    0.3654 H       1  LIG1        0.2923
     59 H           2.9479    0.2845   -2.9915 H       1  LIG1        0.2100
     60 H           1.3377    0.2459   -6.5421 H       1  LIG1        0.2100
     61 H          -1.8157   -0.7466   -5.3459 H       1  LIG1        0.0587
     62 H          -1.0957   -1.7743   -4.0722 H       1  LIG1        0.0587
     63 H          -6.6542   -5.0560   -2.1982 H       1  LIG1        0.2100
     64 H          -3.6516   -6.3357   -3.4765 H       1  LIG1        0.0255
     65 H          -2.3404   -5.3444   -2.7850 H       1  LIG1        0.0255
     66 H          -2.4608   -5.5541   -4.5246 H       1  LIG1        0.0255
     67 H          -6.3616   -2.2972   -1.1128 H       1  LIG1        0.2100
     68 H          -3.7014   -0.8550   -1.5982 H       1  LIG1        0.2101
     69 H           0.5428    3.3886   -4.4071 H       1  LIG1        0.2102
     70 H          -2.3599    2.0103    0.5297 H       1  LIG1        0.0660
     71 H          -0.9730    2.9467    1.1166 H       1  LIG1        0.0660
     72 H          -1.7193    1.6569    2.1296 H       1  LIG1        0.0660
     73 H           0.0863    1.1771    3.0544 H       1  LIG1        0.0692
     74 H           5.6639    1.3987    4.5181 H       1  LIG1        0.0693
     75 H           5.6352    1.9359    6.5551 H       1  LIG1        0.0662
     76 H           5.4472    2.8347    9.9141 H       1  LIG1        0.2923
@<TRIPOS>BOND
     1     1     2    1
     2     2     3   ar
     3     3     4   ar
     4     4     5   ar
     5     5     6    1
     6     6     7   ar
     7     7     8   ar
     8     8     9   ar
     9     9    10   ar
    10    10    11    1
    11    10    12   ar
    12    12    13    1
    13    13    14    1
    14    14    15    1
    15    14    16    1
    16    16    17    1
    17    17    19    1
    18    19    20    1
    19    19    21    1
    20    19    24    1
    21    25    26    1
    22    26    27    1
    23    27    28    1
    24    27    29    1
    25    29    31    1
    26    31    32    1
    27    31    33    1
    28    33    36    1
    29    36    37    1
    30    36    38    1
    31    36    39    1
    32    27    39    1
    33    31    40    1
    34    14    42    1
    35    21    42    1
    36    12    45   ar
    37    45    46    1
    38    46    47    1
    39    45    48   ar
    40     8    48   ar
    41     6    49   ar
    42    49    50   ar
    43     9    50   ar
    44    50    51    2
    45     5    52   ar
    46     2    53   ar
    47    52    53   ar
    48    53    54    1
    49    33    35    1
    50    33    34    1
    51    17    25    1
    52    17    18    1
    53    21    23    1
    54    21    22    1
    55    29    41    1
    56    29    30    1
    57    42    44    1
    58    42    43    1
    59     1    55    1
    60     3    56    1
    61     4    57    1
    62    11    58    1
    63    23    59    1
    64    24    60    1
    65    25    61    1
    66    25    62    1
    67    35    63    1
    68    38    64    1
    69    38    65    1
    70    38    66    1
    71    40    67    1
    72    41    68    1
    73    44    69    1
    74    47    70    1
    75    47    71    1
    76    47    72    1
    77    48    73    1
    78    49    74    1
    79    52    75    1
    80    54    76    1
