@<TRIPOS>MOLECULE
NuBBE_187
 78 79 0 0 0
SMALL
GASTEIGER

@<TRIPOS>ATOM
      1 O          -1.6987    2.4944    0.4822 O.3     1  LIG1       -0.4806
      2 C          -2.3367    1.3929    0.9198 C.2     1  LIG1        0.3047
      3 C          -2.8659    1.6398    2.1696 C.3     1  LIG1        0.0448
      4 C          -1.6890    1.7590    3.1158 C.3     1  LIG1       -0.0430
      5 C          -0.8354    0.5022    2.9591 C.3     1  LIG1       -0.0526
      6 C           0.0817    0.4640    1.7298 C.3     1  LIG1       -0.0530
      7 C           0.8763    1.7105    1.1753 C.3     1  LIG1       -0.0531
      8 C           2.0297    2.4588    1.9149 C.3     1  LIG1       -0.0531
      9 C           1.8511    2.8669    3.3841 C.3     1  LIG1       -0.0531
     10 C           1.4564    1.9037    4.5196 C.3     1  LIG1       -0.0531
     11 C           2.2481    0.6025    4.8151 C.3     1  LIG1       -0.0531
     12 C           2.3703   -0.6042    3.8519 C.3     1  LIG1       -0.0531
     13 C           2.9317   -0.2434    2.5033 C.3     1  LIG1       -0.0531
     14 C           2.8872   -1.2151    1.3492 C.3     1  LIG1       -0.0531
     15 C           3.4108   -0.6079    0.0278 C.3     1  LIG1       -0.0531
     16 C           3.3178   -1.6575   -1.0713 C.3     1  LIG1       -0.0531
     17 C           1.8863   -2.0352   -1.4552 C.3     1  LIG1       -0.0531
     18 C           1.8938   -3.3073   -2.3037 C.3     1  LIG1       -0.0531
     19 C           0.4918   -3.7593   -2.7099 C.3     1  LIG1       -0.0530
     20 C          -0.2249   -2.7118   -3.5614 C.3     1  LIG1       -0.0528
     21 C          -1.6407   -3.1596   -3.9246 C.3     1  LIG1       -0.0491
     22 C          -2.4504   -2.1391   -4.7382 C.3     1  LIG1       -0.0276
     23 C          -2.8070   -0.7961   -4.1379 C.ar    1  LIG1       -0.0437
     24 C          -2.4224   -0.3610   -2.8759 C.ar    1  LIG1       -0.0130
     25 C          -2.8445    0.9070   -2.5184 C.ar    1  LIG1        0.1665
     26 O          -2.4356    1.6297   -1.4846 O.3     1  LIG1       -0.4526
     27 C          -3.3342    2.7647   -1.4572 C.3     1  LIG1        0.2332
     28 O          -4.0449    2.8716   -2.6662 O.3     1  LIG1       -0.4526
     29 C          -3.6794    1.7012   -3.2450 C.ar    1  LIG1        0.1662
     30 C          -4.0582    1.3223   -4.4733 C.ar    1  LIG1       -0.0159
     31 C          -3.6137    0.0791   -4.9227 C.ar    1  LIG1       -0.0549
     32 O          -2.3102    0.2232    0.3560 O.2     1  LIG1       -0.2510
     33 H          -1.3420    2.1999   -0.4302 H       1  LIG1        0.2951
     34 H          -3.5221    0.7805    2.4082 H       1  LIG1        0.0377
     35 H          -3.4850    2.5536    2.1298 H       1  LIG1        0.0377
     36 H          -2.0506    1.8624    4.1355 H       1  LIG1        0.0270
     37 H          -1.1062    2.6605    2.8745 H       1  LIG1        0.0270
     38 H          -1.4942   -0.3751    2.9646 H       1  LIG1        0.0265
     39 H          -0.2410    0.2771    3.8365 H       1  LIG1        0.0265
     40 H          -0.3771   -0.0141    0.8648 H       1  LIG1        0.0265
     41 H           0.6634   -0.4094    1.9340 H       1  LIG1        0.0265
     42 H           0.2500    2.5198    0.8320 H       1  LIG1        0.0265
     43 H           1.2679    1.3371    0.2174 H       1  LIG1        0.0265
     44 H           2.2851    3.3433    1.3101 H       1  LIG1        0.0265
     45 H           2.9980    1.9637    1.8089 H       1  LIG1        0.0265
     46 H           1.1048    3.6709    3.3801 H       1  LIG1        0.0265
     47 H           2.7940    3.3265    3.7017 H       1  LIG1        0.0265
     48 H           0.3879    1.7626    4.4900 H       1  LIG1        0.0265
     49 H           1.4890    2.4841    5.4585 H       1  LIG1        0.0265
     50 H           1.8254    0.1757    5.7383 H       1  LIG1        0.0265
     51 H           3.2656    0.9104    5.0653 H       1  LIG1        0.0265
     52 H           1.4098   -1.1302    3.7682 H       1  LIG1        0.0265
     53 H           3.0759   -1.3064    4.2884 H       1  LIG1        0.0265
     54 H           3.8812    0.2823    2.5676 H       1  LIG1        0.0265
     55 H           2.2144    0.4516    2.2124 H       1  LIG1        0.0265
     56 H           1.8718   -1.5816    1.1783 H       1  LIG1        0.0265
     57 H           3.4674   -2.0790    1.6483 H       1  LIG1        0.0265
     58 H           4.4598   -0.3217    0.1539 H       1  LIG1        0.0265
     59 H           2.9066    0.3110   -0.3005 H       1  LIG1        0.0265
     60 H           3.8551   -2.5404   -0.7142 H       1  LIG1        0.0265
     61 H           3.8353   -1.2996   -1.9688 H       1  LIG1        0.0265
     62 H           1.4461   -1.1905   -1.9950 H       1  LIG1        0.0265
     63 H           1.2428   -2.2157   -0.5890 H       1  LIG1        0.0265
     64 H           2.3643   -4.1148   -1.7274 H       1  LIG1        0.0265
     65 H           2.5079   -3.1481   -3.1962 H       1  LIG1        0.0265
     66 H          -0.0947   -3.9681   -1.8053 H       1  LIG1        0.0265
     67 H           0.5660   -4.6996   -3.2673 H       1  LIG1        0.0265
     68 H           0.3520   -2.4836   -4.4639 H       1  LIG1        0.0265
     69 H          -0.2553   -1.7880   -2.9917 H       1  LIG1        0.0265
     70 H          -2.1980   -3.4307   -3.0203 H       1  LIG1        0.0268
     71 H          -1.5591   -4.0766   -4.5251 H       1  LIG1        0.0268
     72 H          -3.4081   -2.6216   -4.9775 H       1  LIG1        0.0313
     73 H          -1.9384   -1.9663   -5.6939 H       1  LIG1        0.0313
     74 H          -1.8372   -0.9586   -2.1818 H       1  LIG1        0.0658
     75 H          -2.6894    3.6396   -1.3361 H       1  LIG1        0.1166
     76 H          -4.0107    2.7219   -0.5840 H       1  LIG1        0.1166
     77 H          -4.6785    2.0121   -5.0192 H       1  LIG1        0.0655
     78 H          -3.9410   -0.2226   -5.9079 H       1  LIG1        0.0621
@<TRIPOS>BOND
     1     1     2    1
     2     2     3    1
     3     3     4    1
     4     4     5    1
     5     5     6    1
     6     6     7    1
     7     7     8    1
     8     8     9    1
     9     9    10    1
    10    10    11    1
    11    11    12    1
    12    12    13    1
    13    13    14    1
    14    14    15    1
    15    15    16    1
    16    16    17    1
    17    17    18    1
    18    18    19    1
    19    19    20    1
    20    20    21    1
    21    21    22    1
    22    22    23    1
    23    23    24   ar
    24    24    25   ar
    25    25    26    1
    26    26    27    1
    27    27    28    1
    28    25    29   ar
    29    28    29    1
    30    29    30   ar
    31    30    31   ar
    32    23    31   ar
    33     2    32    2
    34     1    33    1
    35     3    34    1
    36     3    35    1
    37     4    36    1
    38     4    37    1
    39     5    38    1
    40     5    39    1
    41     6    40    1
    42     6    41    1
    43     7    42    1
    44     7    43    1
    45     8    44    1
    46     8    45    1
    47     9    46    1
    48     9    47    1
    49    10    48    1
    50    10    49    1
    51    11    50    1
    52    11    51    1
    53    12    52    1
    54    12    53    1
    55    13    54    1
    56    13    55    1
    57    14    56    1
    58    14    57    1
    59    15    58    1
    60    15    59    1
    61    16    60    1
    62    16    61    1
    63    17    62    1
    64    17    63    1
    65    18    64    1
    66    18    65    1
    67    19    66    1
    68    19    67    1
    69    20    68    1
    70    20    69    1
    71    21    70    1
    72    21    71    1
    73    22    72    1
    74    22    73    1
    75    24    74    1
    76    27    75    1
    77    27    76    1
    78    30    77    1
    79    31    78    1
