@<TRIPOS>MOLECULE
NuBBE_2319
 60 62 0 0 0
SMALL
GASTEIGER

@<TRIPOS>ATOM
      1 C           0.5667   -0.3094    1.1618 C.2     1  LIG1        0.2033
      2 C          -0.1278   -0.7730    0.1152 C.2     1  LIG1        0.1529
      3 C          -0.2069   -2.2192   -0.2280 C.3     1  LIG1        0.0463
      4 C           1.2053   -2.8440   -0.1391 C.3     1  LIG1       -0.0058
      5 C           2.2559   -2.0978    0.7209 C.3     1  LIG1        0.1247
      6 C           1.5790   -1.2044    1.7598 C.2     1  LIG1        0.2290
      7 O           1.8978   -1.0722    2.9027 O.2     1  LIG1       -0.2859
      8 O           3.1829   -3.0344    1.2451 O.3     1  LIG1       -0.3718
      9 C           4.2174   -2.4307    2.0215 C.3     1  LIG1        0.0374
     10 C          -0.8508   -2.0973   -1.6363 C.3     1  LIG1        0.0318
     11 H          -1.9487   -2.1051   -1.5055 H       1  LIG1        0.0368
     12 C          -0.5313   -0.6511   -2.0493 C.3     1  LIG1        0.2052
     13 H          -1.2074   -0.3103   -2.8433 H       1  LIG1        0.1059
     14 O          -0.8475   -0.0175   -0.8042 O.2     1  LIG1       -0.4632
     15 O           0.8294   -0.3820   -2.4036 O.3     1  LIG1       -0.3366
     16 C           1.0870    0.9455   -2.9366 C.3     1  LIG1        0.0768
     17 C           0.8149    2.1718   -2.0552 C.ar    1  LIG1       -0.0181
     18 C           1.8183    2.8656   -1.3825 C.ar    1  LIG1       -0.0527
     19 C           1.4800    3.8470   -0.4146 C.ar    1  LIG1       -0.0160
     20 C           0.1364    4.1540   -0.0385 C.ar    1  LIG1        0.1615
     21 C          -0.8815    3.5591   -0.8043 C.ar    1  LIG1        0.1618
     22 C          -0.5005    2.6273   -1.8356 C.ar    1  LIG1       -0.0109
     23 O          -2.2475    3.5374   -0.7087 O.3     1  LIG1       -0.4914
     24 C          -3.0125    3.6923    0.4712 C.3     1  LIG1        0.0790
     25 O           0.0986    4.9544    1.0824 O.3     1  LIG1       -0.4915
     26 C          -0.8078    4.7815    2.1735 C.3     1  LIG1        0.0790
     27 C          -0.5678   -3.2071   -2.6192 C.3     1  LIG1       -0.0558
     28 C          -1.2458   -2.7657    0.8102 C.3     1  LIG1       -0.0218
     29 C          -1.5869   -4.2146    0.6815 C.2     1  LIG1       -0.0902
     30 C          -2.7770   -4.7141    1.0354 C.2     1  LIG1       -0.1026
     31 O           0.5416    0.8985    1.7655 O.2     1  LIG1       -0.4888
     32 C          -0.5784    1.5823    1.3409 C.3     1  LIG1        0.0791
     33 H           1.6428   -2.9040   -1.1403 H       1  LIG1        0.0304
     34 H           1.1356   -3.8774    0.2064 H       1  LIG1        0.0304
     35 H           2.8133   -1.4198    0.0502 H       1  LIG1        0.0680
     36 H           4.9723   -3.1916    2.2210 H       1  LIG1        0.0524
     37 H           3.8547   -2.0986    2.9970 H       1  LIG1        0.0524
     38 H           4.6791   -1.5924    1.4895 H       1  LIG1        0.0524
     39 H           0.5576    1.0494   -3.8902 H       1  LIG1        0.0611
     40 H           2.1556    0.9347   -3.1932 H       1  LIG1        0.0611
     41 H           2.8693    2.6323   -1.5568 H       1  LIG1        0.0622
     42 H           2.3022    4.3159    0.1301 H       1  LIG1        0.0655
     43 H          -1.3070    2.0936   -2.3392 H       1  LIG1        0.0659
     44 H          -2.5924    3.2284    1.3662 H       1  LIG1        0.0660
     45 H          -3.9756    3.1838    0.3428 H       1  LIG1        0.0660
     46 H          -3.2444    4.7497    0.6065 H       1  LIG1        0.0660
     47 H          -0.5377    5.4413    3.0000 H       1  LIG1        0.0660
     48 H          -0.8177    3.8097    2.6750 H       1  LIG1        0.0660
     49 H          -1.8042    5.0817    1.8923 H       1  LIG1        0.0660
     50 H          -0.9526   -4.1522   -2.2187 H       1  LIG1        0.0235
     51 H           0.4926   -3.3308   -2.8343 H       1  LIG1        0.0235
     52 H          -1.0868   -3.0201   -3.5641 H       1  LIG1        0.0235
     53 H          -2.1809   -2.1822    0.7282 H       1  LIG1        0.0317
     54 H          -0.8946   -2.5853    1.8360 H       1  LIG1        0.0317
     55 H          -0.8264   -4.8876    0.3002 H       1  LIG1        0.0567
     56 H          -3.5602   -4.0879    1.4539 H       1  LIG1        0.0532
     57 H          -2.9808   -5.7742    0.9326 H       1  LIG1        0.0532
     58 H          -1.5352    1.2153    1.7092 H       1  LIG1        0.0660
     59 H          -0.5822    1.6322    0.2797 H       1  LIG1        0.0660
     60 H          -0.3816    2.5693    1.6374 H       1  LIG1        0.0660
@<TRIPOS>BOND
     1     1     2    2
     2     2     3    1
     3     3     4    1
     4     4     5    1
     5     5     6    1
     6     1     6    1
     7     6     7    2
     8     5     8    1
     9     8     9    1
    10     3    10    1
    11    10    11    1
    12    10    12    1
    13    12    13    1
    14    12    14    1
    15     2    14    1
    16    12    15    1
    17    15    16    1
    18    16    17    1
    19    17    18   ar
    20    18    19   ar
    21    19    20   ar
    22    20    21   ar
    23    21    22   ar
    24    17    22   ar
    25    21    23    1
    26    23    24    1
    27    20    25    1
    28    25    26    1
    29    10    27    1
    30     3    28    1
    31    28    29    1
    32    29    30    2
    33     1    31    1
    34    31    32    1
    35     4    33    1
    36     4    34    1
    37     5    35    1
    38     9    36    1
    39     9    37    1
    40     9    38    1
    41    16    39    1
    42    16    40    1
    43    18    41    1
    44    19    42    1
    45    22    43    1
    46    24    44    1
    47    24    45    1
    48    24    46    1
    49    26    47    1
    50    26    48    1
    51    26    49    1
    52    27    50    1
    53    27    51    1
    54    27    52    1
    55    28    53    1
    56    28    54    1
    57    29    55    1
    58    30    56    1
    59    30    57    1
    60    32    58    1
    61    32    59    1
    62    32    60    1
