@<TRIPOS>MOLECULE
NuBBE_2444
 25 26 0 0 0
SMALL
GASTEIGER

@<TRIPOS>ATOM
      1 O          -1.7973    1.2270   -0.2222 O.3     1  LIG1       -0.4942
      2 C          -2.4919    2.4613   -0.3564 C.3     1  LIG1        0.0788
      3 C          -0.4263    1.2442   -0.0996 C.ar    1  LIG1        0.1378
      4 C           0.2252   -0.0810    0.0263 C.ar    1  LIG1        0.0623
      5 C           1.6251   -0.0930    0.1452 C.ar    1  LIG1        0.1463
      6 O           2.3855    1.0947    0.1502 O.2     1  LIG1       -0.4218
      7 C           1.7866    2.3309    0.0395 C.ar    1  LIG1        0.3408
      8 O           2.4286    3.3750    0.0453 O.2     1  LIG1       -0.2451
      9 C           0.3282    2.3524   -0.0896 C.ar    1  LIG1        0.0652
     10 C           2.3748   -1.2655    0.2679 C.ar    1  LIG1        0.0230
     11 C           1.7105   -2.4768    0.2739 C.ar    1  LIG1        0.1206
     12 C           0.3269   -2.5192    0.1610 C.ar    1  LIG1       -0.0164
     13 C          -0.4333   -1.3351    0.0371 C.ar    1  LIG1       -0.0328
     14 C          -1.9269   -1.4953   -0.0776 C.3     1  LIG1       -0.0388
     15 O           2.3775   -3.6589    0.3896 O.3     1  LIG1       -0.5066
     16 H          -3.5594    2.2382   -0.4433 H       1  LIG1        0.0660
     17 H          -2.1824    2.9877   -1.2650 H       1  LIG1        0.0660
     18 H          -2.3495    3.0886    0.5294 H       1  LIG1        0.0660
     19 H          -0.0820    3.3492   -0.1768 H       1  LIG1        0.0726
     20 H           3.4543   -1.2074    0.3557 H       1  LIG1        0.0691
     21 H          -0.1645   -3.4906    0.1700 H       1  LIG1        0.0657
     22 H          -2.2232   -2.5497   -0.0407 H       1  LIG1        0.0278
     23 H          -2.2837   -1.1015   -1.0343 H       1  LIG1        0.0278
     24 H          -2.4323   -0.9979    0.7560 H       1  LIG1        0.0278
     25 H           3.3296   -3.4772    0.4584 H       1  LIG1        0.2921
@<TRIPOS>BOND
     1     1     2    1
     2     1     3    1
     3     3     4   ar
     4     4     5   ar
     5     5     6   ar
     6     6     7   ar
     7     7     8    2
     8     7     9   ar
     9     3     9   ar
    10     5    10   ar
    11    10    11   ar
    12    11    12   ar
    13    12    13   ar
    14     4    13   ar
    15    13    14    1
    16    11    15    1
    17     2    16    1
    18     2    17    1
    19     2    18    1
    20     9    19    1
    21    10    20    1
    22    12    21    1
    23    14    22    1
    24    14    23    1
    25    14    24    1
    26    15    25    1
