REMARK  Name = NuBBE_2216
REMARK  7 active torsions:
REMARK  status: ('A' for Active; 'I' for Inactive)
REMARK    1  A    between atoms: C_1  and  C_2
REMARK    2  A    between atoms: C_5  and  O_12
REMARK    3  A    between atoms: C_6  and  O_10
REMARK    4  A    between atoms: C_7  and  O_8
REMARK    5  A    between atoms: O_8  and  C_9
REMARK    6  A    between atoms: O_10  and  C_11
REMARK    7  A    between atoms: C_16  and  C_19
REMARK                            x       y       z     vdW  Elec       q    Type
REMARK                         _______ _______ _______ _____ _____    ______ ____
ROOT
ATOM      1  C   LIG A   1      -2.752  -0.265  -0.773  0.00  0.00    +0.048 C 
ATOM      2  C   LIG A   1      -1.259  -0.233  -0.547  0.00  0.00    -0.001 A 
ATOM      3  C   LIG A   1      -0.577   0.986  -0.353  0.00  0.00    -0.020 A 
ATOM      4  C   LIG A   1       0.823   0.984  -0.230  0.00  0.00    +0.108 A 
ATOM      5  C   LIG A   1       1.540  -0.229  -0.204  0.00  0.00    +0.177 A 
ATOM      6  C   LIG A   1       0.864  -1.458  -0.303  0.00  0.00    +0.204 A 
ATOM      7  C   LIG A   1      -0.540  -1.451  -0.466  0.00  0.00    +0.168 A 
ATOM      8  C   LIG A   1       1.558   2.277  -0.150  0.00  0.00    +0.343 C 
ATOM      9  O   LIG A   1       2.776   2.306  -0.313  0.00  0.00    -0.245 OA
ATOM     10  O   LIG A   1       0.846   3.402   0.093  0.00  0.00    -0.458 OA
ATOM     11  C   LIG A   1      -0.516   3.310   0.544  0.00  0.00    +0.178 C 
ATOM     12  C   LIG A   1      -1.293   2.311  -0.307  0.00  0.00    +0.080 C 
ATOM     13  C   LIG A   1      -0.545   3.016   2.043  0.00  0.00    +0.052 C 
ENDROOT
BRANCH   7  14
ATOM     14  O   LIG A   1      -1.313  -2.576  -0.654  0.00  0.00    -0.491 OA
ATOM     15  C   LIG A   1      -0.994  -3.722   0.127  0.00  0.00    +0.277 C 
ENDBRANCH   7  14
BRANCH   6  16
ATOM     16  O   LIG A   1       1.461  -2.690  -0.227  0.00  0.00    -0.488 OA
ATOM     17  C   LIG A   1       2.807  -2.824  -0.663  0.00  0.00    +0.277 C 
ENDBRANCH   6  16
BRANCH   5  18
ATOM     18  O   LIG A   1       2.906  -0.225  -0.049  0.00  0.00    -0.503 OA
ATOM     19  H   LIG A   1       3.247   0.693  -0.145  0.00  0.00    +0.292 HD
ENDBRANCH   5  18
TORSDOF 3
