REMARK  Name = NuBBE_1728
REMARK  12 active torsions:
REMARK  status: ('A' for Active; 'I' for Inactive)
REMARK    1  A    between atoms: C_1  and  C_2
REMARK    2  A    between atoms: C_5  and  C_6
REMARK    3  A    between atoms: C_11  and  C_12
REMARK    4  A    between atoms: C_11  and  C_13
REMARK    5  A    between atoms: N_15  and  O_16
REMARK    6  A    between atoms: C_23  and  C_24
REMARK    7  A    between atoms: C_27  and  C_29
REMARK    8  A    between atoms: C_29  and  C_30
REMARK    9  A    between atoms: C_32  and  C_36
REMARK   10  A    between atoms: C_36  and  C_37
REMARK   11  A    between atoms: C_36  and  C_38
REMARK   12  A    between atoms: C_36  and  O_39
REMARK                            x       y       z     vdW  Elec       q    Type
REMARK                         _______ _______ _______ _____ _____    ______ ____
ROOT
ATOM      1  C   LIG A   1      -1.384  -0.972   0.024  0.00  0.00    +0.012 C 
ATOM      2  C   LIG A   1      -0.108  -1.176  -0.848  0.00  0.00    -0.023 C 
ATOM      3  C   LIG A   1       1.134  -1.632  -0.002  0.00  0.00    +0.002 C 
ATOM      4  C   LIG A   1       1.034  -3.058   0.691  0.00  0.00    -0.025 C 
ATOM      5  C   LIG A   1       0.026  -3.029   1.862  0.00  0.00    +0.012 C 
ATOM      6  C   LIG A   1       0.691  -4.110  -0.430  0.00  0.00    +0.006 C 
ATOM      7  C   LIG A   1      -0.570  -3.708  -1.228  0.00  0.00    +0.005 C 
ATOM      8  C   LIG A   1      -0.440  -2.311  -1.858  0.00  0.00    +0.008 C 
ATOM      9  C   LIG A   1       0.731  -5.621   0.006  0.00  0.00    +0.010 C 
ATOM     10  C   LIG A   1      -0.403  -6.054   0.951  0.00  0.00    +0.017 C 
ATOM     11  C   LIG A   1       0.630  -6.525  -1.251  0.00  0.00    +0.017 C 
ATOM     12  C   LIG A   1       2.076  -5.887   0.723  0.00  0.00    +0.063 C 
ATOM     13  N   LIG A   1       2.699  -7.016   0.487  0.00  0.00    -0.096 NA
ATOM     14  C   LIG A   1       2.543  -4.879   1.757  0.00  0.00    +0.055 C 
ATOM     15  C   LIG A   1       2.437  -3.445   1.248  0.00  0.00    +0.013 C 
ATOM     16  C   LIG A   1       1.721  -0.510   0.891  0.00  0.00    +0.005 C 
ATOM     17  C   LIG A   1       1.060   0.864   0.807  0.00  0.00    +0.005 C 
ATOM     18  C   LIG A   1       0.656   1.328  -0.594  0.00  0.00    +0.001 C 
ATOM     19  C   LIG A   1       0.291   0.182  -1.603  0.00  0.00    -0.023 C 
ATOM     20  C   LIG A   1       1.523   0.020  -2.547  0.00  0.00    +0.012 C 
ATOM     21  C   LIG A   1      -0.852   0.773  -2.480  0.00  0.00    +0.008 C 
ATOM     22  C   LIG A   1      -0.960   2.248  -2.106  0.00  0.00    +0.007 C 
ATOM     23  C   LIG A   1      -0.546   2.306  -0.630  0.00  0.00    +0.024 C 
ENDROOT
BRANCH  23  24
ATOM     24  C   LIG A   1      -0.324   3.751  -0.099  0.00  0.00    +0.070 C 
ATOM     25  C   LIG A   1       0.771   4.519  -0.859  0.00  0.00    +0.042 C 
ATOM     26  O   LIG A   1      -1.552   4.503  -0.296  0.00  0.00    -0.367 OA
ATOM     27  C   LIG A   1      -1.902   5.208   0.921  0.00  0.00    +0.150 C 
ATOM     28  C   LIG A   1      -0.677   5.125   1.819  0.00  0.00    +0.037 C 
ATOM     29  C   LIG A   1      -0.082   3.799   1.413  0.00  0.00    +0.037 C 
BRANCH  27  30
ATOM     30  C   LIG A   1      -2.369   6.645   0.582  0.00  0.00    +0.086 C 
ATOM     31  C   LIG A   1      -3.616   6.623  -0.309  0.00  0.00    +0.043 C 
ATOM     32  C   LIG A   1      -2.644   7.473   1.838  0.00  0.00    +0.043 C 
BRANCH  30  33
ATOM     33  O   LIG A   1      -1.335   7.312  -0.157  0.00  0.00    -0.387 OA
ATOM     34  H   LIG A   1      -1.109   6.706  -0.889  0.00  0.00    +0.210 HD
ENDBRANCH  30  33
ENDBRANCH  27  30
ENDBRANCH  23  24
BRANCH  13  35
ATOM     35  O   LIG A   1       3.852  -7.161   1.256  0.00  0.00    -0.409 OA
ATOM     36  H   LIG A   1       4.184  -8.033   0.968  0.00  0.00    +0.328 HD
ENDBRANCH  13  35
TORSDOF 4
