@<TRIPOS>MOLECULE
NuBBE_2448
 30 32 0 0 0
SMALL
GASTEIGER

@<TRIPOS>ATOM
      1 O          -2.2058    0.1468    2.4797 O.2     1  LIG1       -0.2918
      2 C          -1.0977    0.3109    1.9795 C.2     1  LIG1        0.1705
      3 C          -0.2395   -0.8349    1.6290 C.ar    1  LIG1        0.0594
      4 C           1.0112   -0.5888    1.0610 C.ar    1  LIG1        0.1353
      5 O           1.4767    0.6657    0.7652 O.3     1  LIG1       -0.4830
      6 C           0.4399    1.6500    0.5694 C.3     1  LIG1        0.1322
      7 H           0.9567    2.6197    0.5797 H       1  LIG1        0.0789
      8 C          -0.5099    1.6761    1.7621 C.3     1  LIG1        0.0519
      9 C          -0.1499    1.5331   -0.8330 C.ar    1  LIG1       -0.0069
     10 C          -1.5272    1.4617   -1.0912 C.ar    1  LIG1       -0.0551
     11 C          -2.0046    1.3662   -2.4020 C.ar    1  LIG1       -0.0614
     12 C          -1.1168    1.3488   -3.4744 C.ar    1  LIG1       -0.0617
     13 C           0.2520    1.4280   -3.2397 C.ar    1  LIG1       -0.0614
     14 C           0.7303    1.5213   -1.9316 C.ar    1  LIG1       -0.0551
     15 C           1.8718   -1.6519    0.7864 C.ar    1  LIG1        0.0223
     16 C           1.4557   -2.9531    1.0575 C.ar    1  LIG1        0.1204
     17 C           0.2017   -3.2064    1.6062 C.ar    1  LIG1       -0.0193
     18 C          -0.6526   -2.1430    1.8981 C.ar    1  LIG1       -0.0443
     19 O           2.2587   -4.0237    0.7965 O.3     1  LIG1       -0.5066
     20 H          -1.3127    2.4063    1.6192 H       1  LIG1        0.0385
     21 H           0.0349    1.9358    2.6779 H       1  LIG1        0.0385
     22 H          -2.2619    1.4748   -0.2897 H       1  LIG1        0.0621
     23 H          -3.0749    1.3051   -2.5841 H       1  LIG1        0.0618
     24 H          -1.4926    1.2741   -4.4913 H       1  LIG1        0.0618
     25 H           0.9488    1.4162   -4.0738 H       1  LIG1        0.0618
     26 H           1.8053    1.5810   -1.7688 H       1  LIG1        0.0621
     27 H           2.8470   -1.4506    0.3553 H       1  LIG1        0.0691
     28 H          -0.1062   -4.2282    1.8121 H       1  LIG1        0.0654
     29 H          -1.6272   -2.3350    2.3410 H       1  LIG1        0.0627
     30 H           3.0886   -3.7062    0.4036 H       1  LIG1        0.2921
@<TRIPOS>BOND
     1     1     2    2
     2     2     3    1
     3     3     4   ar
     4     4     5    1
     5     5     6    1
     6     6     8    1
     7     2     8    1
     8     9    10   ar
     9    10    11   ar
    10    11    12   ar
    11    12    13   ar
    12    13    14   ar
    13     9    14   ar
    14     4    15   ar
    15    15    16   ar
    16    16    17   ar
    17    17    18   ar
    18     3    18   ar
    19    16    19    1
    20     6     9    1
    21     6     7    1
    22     8    20    1
    23     8    21    1
    24    10    22    1
    25    11    23    1
    26    12    24    1
    27    13    25    1
    28    14    26    1
    29    15    27    1
    30    17    28    1
    31    18    29    1
    32    19    30    1
