@<TRIPOS>MOLECULE
NuBBE_2310
 53 56 0 0 0
SMALL
GASTEIGER

@<TRIPOS>ATOM
      1 C           0.4931    3.3701   -1.9287 C.ar    1  LIG1       -0.0159
      2 C          -0.3078    3.2174   -3.0300 C.ar    1  LIG1        0.1662
      3 C          -1.1882    2.1712   -3.1344 C.ar    1  LIG1        0.1665
      4 C          -1.3336    1.2362   -2.1248 C.ar    1  LIG1       -0.0126
      5 C          -0.5266    1.3398   -0.9685 C.ar    1  LIG1       -0.0374
      6 C          -0.6742    0.2733    0.1444 C.3     1  LIG1        0.0221
      7 H          -1.7296    0.2989    0.4466 H       1  LIG1        0.0382
      8 C          -0.2955   -1.1188   -0.4667 C.3     1  LIG1       -0.0223
      9 H           0.0359   -0.9858   -1.5031 H       1  LIG1        0.0314
     10 C           0.9259   -1.6277    0.3658 C.3     1  LIG1        0.0275
     11 C           0.4104   -2.4909    1.5179 C.2     1  LIG1       -0.0345
     12 C          -0.2114   -1.9462    2.5653 C.2     1  LIG1        0.1253
     13 O          -0.6111   -2.7657    3.6139 O.2     1  LIG1       -0.4970
     14 C          -1.7718   -2.3519    4.3186 C.3     1  LIG1        0.0784
     15 C          -0.3471   -0.4380    2.6799 C.3     1  LIG1        0.1434
     16 H          -1.3926   -0.1577    2.8322 H       1  LIG1        0.0705
     17 C           0.2148    0.3843    1.4500 C.3     1  LIG1        0.1353
     18 C           1.5057   -0.3086    0.9565 C.3     1  LIG1        0.0972
     19 O           2.4779   -0.5103    1.9824 O.3     1  LIG1       -0.3879
     20 O           0.4966    1.7349    1.8633 O.3     1  LIG1       -0.3703
     21 C          -0.6392    2.4813    2.2964 C.3     1  LIG1        0.0374
     22 O           0.3696   -0.0647    3.8712 O.3     1  LIG1       -0.3811
     23 C           1.9446   -2.4093   -0.5068 C.3     1  LIG1       -0.0230
     24 C           2.5570   -1.6236   -1.6444 C.2     1  LIG1       -0.0902
     25 C           2.4335   -1.9370   -2.9428 C.2     1  LIG1       -0.1026
     26 C          -1.5020   -2.0642   -0.5529 C.3     1  LIG1       -0.0609
     27 C           0.3936    2.4139   -0.9124 C.ar    1  LIG1       -0.0545
     28 O          -1.8573    2.1823   -4.3195 O.3     1  LIG1       -0.4526
     29 C          -1.2630    3.3354   -4.9558 C.3     1  LIG1        0.2332
     30 O          -0.3233    4.0327   -4.1154 O.3     1  LIG1       -0.4526
     31 H           1.1919    4.1950   -1.8517 H       1  LIG1        0.0655
     32 H          -2.0441    0.4265   -2.2549 H       1  LIG1        0.0658
     33 H           0.5392   -3.5766    1.4680 H       1  LIG1        0.0612
     34 H          -1.9464   -3.0690    5.1276 H       1  LIG1        0.0660
     35 H          -2.6438   -2.3585    3.6596 H       1  LIG1        0.0660
     36 H          -1.6496   -1.3675    4.7851 H       1  LIG1        0.0660
     37 H           1.9995    0.3000    0.1925 H       1  LIG1        0.0632
     38 H           2.8293    0.3758    2.1952 H       1  LIG1        0.2099
     39 H          -0.3455    3.5327    2.3650 H       1  LIG1        0.0524
     40 H          -0.9640    2.1556    3.2869 H       1  LIG1        0.0524
     41 H          -1.4719    2.4104    1.5906 H       1  LIG1        0.0524
     42 H           1.2726   -0.4200    3.7403 H       1  LIG1        0.2105
     43 H           2.7669   -2.7809    0.1184 H       1  LIG1        0.0317
     44 H           1.4461   -3.2992   -0.9165 H       1  LIG1        0.0317
     45 H           3.1457   -0.7455   -1.3882 H       1  LIG1        0.0567
     46 H           1.8735   -2.8051   -3.2739 H       1  LIG1        0.0532
     47 H           2.8983   -1.3212   -3.7066 H       1  LIG1        0.0532
     48 H          -2.0203   -2.1700    0.4057 H       1  LIG1        0.0233
     49 H          -1.1981   -3.0588   -0.8945 H       1  LIG1        0.0233
     50 H          -2.2392   -1.6812   -1.2649 H       1  LIG1        0.0233
     51 H           1.0734    2.5472   -0.0784 H       1  LIG1        0.0622
     52 H          -2.0605    4.0298   -5.2424 H       1  LIG1        0.1166
     53 H          -0.7372    3.0093   -5.8611 H       1  LIG1        0.1166
@<TRIPOS>BOND
     1     1     2   ar
     2     2     3   ar
     3     3     4   ar
     4     4     5   ar
     5     6     8    1
     6     8    10    1
     7    10    11    1
     8    11    12    2
     9    13    14    1
    10    12    15    1
    11    15    17    1
    12     6    17    1
    13    17    18    1
    14    10    18    1
    15    20    21    1
    16    23    24    1
    17    24    25    2
    18     5    27   ar
    19     1    27   ar
    20     3    28    1
    21    28    29    1
    22    29    30    1
    23     2    30    1
    24    10    23    1
    25    12    13    1
    26    17    20    1
    27    18    19    1
    28     8    26    1
    29     8     9    1
    30     6     7    1
    31     6     5    1
    32    15    22    1
    33    15    16    1
    34     1    31    1
    35     4    32    1
    36    11    33    1
    37    14    34    1
    38    14    35    1
    39    14    36    1
    40    18    37    1
    41    19    38    1
    42    21    39    1
    43    21    40    1
    44    21    41    1
    45    22    42    1
    46    23    43    1
    47    23    44    1
    48    24    45    1
    49    25    46    1
    50    25    47    1
    51    26    48    1
    52    26    49    1
    53    26    50    1
    54    27    51    1
    55    29    52    1
    56    29    53    1
