@<TRIPOS>MOLECULE
NuBBE_2182
 50 52 0 0 0
SMALL
GASTEIGER

@<TRIPOS>ATOM
      1 C          -0.2005   -0.3927   -0.1815 C.3     1  LIG1        0.0000
      2 H          -0.5182   -0.1762    0.8492 H       1  LIG1        0.0337
      3 C          -1.2521    0.2890   -1.1143 C.3     1  LIG1       -0.0216
      4 C          -2.7350   -0.0268   -0.9664 C.ar    1  LIG1       -0.0433
      5 C          -3.2572   -0.9122   -0.0157 C.ar    1  LIG1       -0.0130
      6 C          -4.6094   -1.1776   -0.0239 C.ar    1  LIG1        0.1665
      7 C          -5.4729   -0.5348   -0.8723 C.ar    1  LIG1        0.1662
      8 C          -5.0246    0.4071   -1.7688 C.ar    1  LIG1       -0.0159
      9 C          -3.6448    0.6490   -1.8226 C.ar    1  LIG1       -0.0549
     10 O          -6.7610   -0.9300   -0.6918 O.3     1  LIG1       -0.4526
     11 C          -6.6006   -1.9045    0.3617 C.3     1  LIG1        0.2332
     12 O          -5.2341   -2.0739    0.7850 O.3     1  LIG1       -0.4526
     13 C          -0.2333   -1.9338   -0.3194 C.3     1  LIG1       -0.0588
     14 C           1.2694    0.2219   -0.3231 C.3     1  LIG1        0.1473
     15 O           1.7846    0.1722   -1.6846 O.3     1  LIG1       -0.3645
     16 C           1.9573   -1.0957   -2.3201 C.3     1  LIG1        0.0382
     17 C           1.2355    1.7253    0.1045 C.2     1  LIG1        0.1367
     18 C           1.8002    2.1678    1.2793 C.2     1  LIG1        0.0260
     19 C           2.4889    1.2563    2.1779 C.2     1  LIG1        0.1855
     20 O           2.7814    1.6265    3.3348 O.2     1  LIG1       -0.2875
     21 C           2.8701   -0.0734    1.6652 C.2     1  LIG1        0.0023
     22 C           2.2781   -0.5203    0.5349 C.2     1  LIG1       -0.0379
     23 C           3.8983   -0.8942    2.4011 C.3     1  LIG1       -0.0063
     24 C           5.2350   -0.2077    2.4898 C.2     1  LIG1       -0.0867
     25 C           6.2198   -0.3367    1.5904 C.2     1  LIG1       -0.1023
     26 O           0.5865    2.5855   -0.7830 O.2     1  LIG1       -0.4960
     27 C           0.7942    3.9972   -0.7236 C.3     1  LIG1        0.0785
     28 H          -0.9656    0.1213   -2.1603 H       1  LIG1        0.0317
     29 H          -1.2281    1.3672   -0.9439 H       1  LIG1        0.0317
     30 H          -2.6505   -1.4066    0.7304 H       1  LIG1        0.0658
     31 H          -5.7156    0.9402   -2.4116 H       1  LIG1        0.0655
     32 H          -3.2719    1.3877   -2.5320 H       1  LIG1        0.0621
     33 H          -6.9833   -2.8700    0.0105 H       1  LIG1        0.1166
     34 H          -7.1888   -1.5861    1.2296 H       1  LIG1        0.1166
     35 H          -1.2354   -2.3570   -0.2881 H       1  LIG1        0.0234
     36 H           0.3197   -2.4026    0.4998 H       1  LIG1        0.0234
     37 H           0.1593   -2.3082   -1.2593 H       1  LIG1        0.0234
     38 H           2.7354   -1.0153   -3.0860 H       1  LIG1        0.0524
     39 H           1.0380   -1.3991   -2.8290 H       1  LIG1        0.0524
     40 H           2.2802   -1.9001   -1.6519 H       1  LIG1        0.0524
     41 H           1.7363    3.1930    1.6165 H       1  LIG1        0.0690
     42 H           2.5866   -1.5021    0.2196 H       1  LIG1        0.0609
     43 H           4.0346   -1.8635    1.9199 H       1  LIG1        0.0357
     44 H           3.5300   -1.1165    3.4130 H       1  LIG1        0.0357
     45 H           5.3878    0.4331    3.3562 H       1  LIG1        0.0570
     46 H           6.1123   -0.9507    0.7017 H       1  LIG1        0.0532
     47 H           7.1562    0.1982    1.7196 H       1  LIG1        0.0532
     48 H           0.1217    4.4669   -1.4508 H       1  LIG1        0.0660
     49 H           1.8220    4.2242   -1.0224 H       1  LIG1        0.0660
     50 H           0.5634    4.4388    0.2559 H       1  LIG1        0.0660
@<TRIPOS>BOND
     1     1     2    1
     2     1     3    1
     3     3     4    1
     4     4     5   ar
     5     5     6   ar
     6     6     7   ar
     7     7     8   ar
     8     8     9   ar
     9     4     9   ar
    10     7    10    1
    11    10    11    1
    12    11    12    1
    13     6    12    1
    14     1    13    1
    15     1    14    1
    16    14    15    1
    17    15    16    1
    18    14    17    1
    19    17    18    2
    20    18    19    1
    21    19    20    2
    22    19    21    1
    23    21    22    2
    24    14    22    1
    25    21    23    1
    26    23    24    1
    27    24    25    2
    28    17    26    1
    29    26    27    1
    30     3    28    1
    31     3    29    1
    32     5    30    1
    33     8    31    1
    34     9    32    1
    35    11    33    1
    36    11    34    1
    37    13    35    1
    38    13    36    1
    39    13    37    1
    40    16    38    1
    41    16    39    1
    42    16    40    1
    43    18    41    1
    44    22    42    1
    45    23    43    1
    46    23    44    1
    47    24    45    1
    48    25    46    1
    49    25    47    1
    50    27    48    1
    51    27    49    1
    52    27    50    1
