REMARK  Name = NuBBE_1295
REMARK  29 active torsions:
REMARK  status: ('A' for Active; 'I' for Inactive)
REMARK    1  A    between atoms: C_2  and  C_3
REMARK    2  A    between atoms: C_2  and  C_6
REMARK    3  A    between atoms: C_3  and  C_4
REMARK    4  A    between atoms: C_3  and  C_5
REMARK    5  A    between atoms: C_6  and  C_7
REMARK    6  A    between atoms: C_7  and  C_8
REMARK    7  A    between atoms: C_8  and  C_10
REMARK    8  A    between atoms: C_8  and  C_52
REMARK    9  A    between atoms: C_14  and  C_15
REMARK   10  A    between atoms: C_24  and  C_25
REMARK   11  A    between atoms: C_29  and  O_34
REMARK   12  A    between atoms: C_31  and  C_32
REMARK   13  A    between atoms: C_31  and  C_33
REMARK   14  A    between atoms: O_34  and  C_35
REMARK   15  A    between atoms: C_35  and  C_36
REMARK   16  A    between atoms: C_36  and  C_37
REMARK   17  A    between atoms: C_37  and  C_38
REMARK   18  A    between atoms: C_38  and  C_39
REMARK   19  A    between atoms: C_39  and  C_40
REMARK   20  A    between atoms: C_40  and  C_41
REMARK   21  A    between atoms: C_41  and  C_42
REMARK   22  A    between atoms: C_42  and  C_43
REMARK   23  A    between atoms: C_43  and  C_44
REMARK   24  A    between atoms: C_44  and  C_45
REMARK   25  A    between atoms: C_45  and  C_46
REMARK   26  A    between atoms: C_46  and  C_47
REMARK   27  A    between atoms: C_47  and  C_48
REMARK   28  A    between atoms: C_48  and  C_49
REMARK   29  A    between atoms: C_49  and  C_50
REMARK                            x       y       z     vdW  Elec       q    Type
REMARK                         _______ _______ _______ _____ _____    ______ ____
ROOT
ATOM      1  C   LIG A   1       2.406  -1.039   1.636  0.00  0.00    -0.002 C 
ATOM      2  C   LIG A   1       3.523  -0.124   2.276  0.00  0.00    +0.005 C 
ATOM      3  C   LIG A   1       4.066   0.685   1.135  0.00  0.00    +0.008 C 
ATOM      4  C   LIG A   1       3.744  -0.058  -0.204  0.00  0.00    -0.023 C 
ATOM      5  C   LIG A   1       5.067  -0.379  -0.816  0.00  0.00    +0.012 C 
ATOM      6  C   LIG A   1       2.866   0.903  -1.323  0.00  0.00    +0.002 C 
ATOM      7  C   LIG A   1       3.525   1.986  -2.139  0.00  0.00    +0.005 C 
ATOM      8  C   LIG A   1       2.453   2.964  -2.754  0.00  0.00    +0.005 C 
ATOM      9  C   LIG A   1       1.422   2.400  -3.807  0.00  0.00    +0.005 C 
ATOM     10  C   LIG A   1       1.017   0.967  -3.547  0.00  0.00    -0.019 C 
ATOM     11  C   LIG A   1       1.880   0.166  -2.338  0.00  0.00    -0.019 C 
ATOM     12  C   LIG A   1       2.157  -1.276  -2.317  0.00  0.00    +0.008 C 
ATOM     13  C   LIG A   1       2.101  -1.774  -0.882  0.00  0.00    +0.008 C 
ATOM     14  C   LIG A   1       3.051  -1.404   0.247  0.00  0.00    -0.023 C 
ATOM     15  C   LIG A   1       3.936  -2.679   0.686  0.00  0.00    +0.012 C 
ATOM     16  C   LIG A   1       0.515   0.705  -2.241  0.00  0.00    +0.015 C 
ATOM     17  C   LIG A   1      -0.167   0.471  -4.458  0.00  0.00    +0.011 C 
ATOM     18  C   LIG A   1      -1.491   1.333  -4.291  0.00  0.00    +0.046 C 
ATOM     19  C   LIG A   1      -1.314   2.805  -3.850  0.00  0.00    +0.182 C 
ATOM     20  C   LIG A   1       0.157   3.332  -4.217  0.00  0.00    +0.005 C 
ATOM     21  C   LIG A   1       0.162   3.346  -5.792  0.00  0.00    +0.015 C 
ATOM     22  C   LIG A   1       0.324   4.801  -3.803  0.00  0.00    +0.015 C 
ENDROOT
BRANCH   1  23
ATOM     23  C   LIG A   1       0.564  -0.969   1.810  0.00  0.00    -0.010 C 
ATOM     24  C   LIG A   1      -0.613  -2.084   1.146  0.00  0.00    +0.008 C 
BRANCH  23  25
ATOM     25  C   LIG A   1      -0.652   0.163   2.554  0.00  0.00    +0.008 C 
BRANCH  25  26
ATOM     26  C   LIG A   1      -2.029  -0.133   3.132  0.00  0.00    +0.030 C 
BRANCH  26  28
ATOM     27  C   LIG A   1      -4.204  -0.689   2.600  0.00  0.00    +0.008 C 
ATOM     28  C   LIG A   1      -3.073  -1.272   2.866  0.00  0.00    -0.074 C 
BRANCH  28  29
ATOM     29  C   LIG A   1      -3.151  -2.806   2.796  0.00  0.00    +0.008 C 
ATOM     30  C   LIG A   1      -4.128  -3.323   3.848  0.00  0.00    +0.012 C 
ATOM     31  C   LIG A   1      -3.483  -3.497   1.446  0.00  0.00    +0.012 C 
ENDBRANCH  28  29
ENDBRANCH  26  28
ENDBRANCH  25  26
ENDBRANCH  23  25
ENDBRANCH   1  23
BRANCH  19  32
ATOM     32  O   LIG A   1      -2.005   3.062  -2.550  0.00  0.00    -0.461 OA
BRANCH  32  33
ATOM     33  C   LIG A   1      -1.544   3.232  -1.417  0.00  0.00    +0.307 C 
ATOM     34  O   LIG A   1      -0.002   3.254  -1.337  0.00  0.00    -0.251 OA
BRANCH  33  35
ATOM     35  C   LIG A   1      -2.066   3.413  -0.086  0.00  0.00    +0.120 C 
BRANCH  35  36
ATOM     36  C   LIG A   1      -3.595   3.291   0.004  0.00  0.00    +0.011 C 
BRANCH  36  37
ATOM     37  C   LIG A   1      -4.540   2.121  -0.401  0.00  0.00    +0.000 C 
BRANCH  37  38
ATOM     38  C   LIG A   1      -4.436   0.808   0.304  0.00  0.00    +0.000 C 
BRANCH  38  39
ATOM     39  C   LIG A   1      -3.202  -0.047  -0.066  0.00  0.00    -0.000 C 
BRANCH  39  40
ATOM     40  C   LIG A   1      -1.989   0.778   0.152  0.00  0.00    -0.000 C 
BRANCH  40  41
ATOM     41  C   LIG A   1      -0.578   0.350  -0.005  0.00  0.00    -0.000 C 
BRANCH  41  42
ATOM     42  C   LIG A   1       0.806   1.107   0.754  0.00  0.00    -0.000 C 
BRANCH  42  43
ATOM     43  C   LIG A   1       1.321   1.420   2.467  0.00  0.00    -0.000 C 
BRANCH  43  44
ATOM     44  C   LIG A   1       1.361   0.218   3.946  0.00  0.00    -0.000 C 
BRANCH  44  45
ATOM     45  C   LIG A   1       0.371  -1.119   4.455  0.00  0.00    -0.000 C 
BRANCH  45  46
ATOM     46  C   LIG A   1      -0.096  -2.523   3.511  0.00  0.00    -0.000 C 
BRANCH  46  47
ATOM     47  C   LIG A   1       0.812  -3.538   2.136  0.00  0.00    -0.000 C 
BRANCH  47  48
ATOM     48  C   LIG A   1       0.218  -4.164   0.476  0.00  0.00    -0.003 C 
ATOM     49  C   LIG A   1       1.265  -4.916  -0.257  0.00  0.00    +0.004 C 
ENDBRANCH  47  48
ENDBRANCH  46  47
ENDBRANCH  45  46
ENDBRANCH  44  45
ENDBRANCH  43  44
ENDBRANCH  42  43
ENDBRANCH  41  42
ENDBRANCH  40  41
ENDBRANCH  39  40
ENDBRANCH  38  39
ENDBRANCH  37  38
ENDBRANCH  36  37
ENDBRANCH  35  36
ENDBRANCH  33  35
ENDBRANCH  32  33
ENDBRANCH  19  32
TORSDOF 21
