@<TRIPOS>MOLECULE
NuBBE_1928
 39 41 0 0 0
SMALL
GASTEIGER

@<TRIPOS>ATOM
      1 C          -1.9879   -0.8403    1.8416 C.3     1  LIG1       -0.0595
      2 C          -0.4610   -0.7382    1.7019 C.3     1  LIG1       -0.0312
      3 C           0.1330   -0.3887    3.0746 C.3     1  LIG1       -0.0595
      4 C          -0.0011    0.2805    0.6698 C.3     1  LIG1       -0.0257
      5 H           0.8413   -0.3918    0.5083 H       1  LIG1        0.0315
      6 C          -0.8657    0.5496   -0.5719 C.3     1  LIG1       -0.0281
      7 H          -1.8432    0.0674   -0.6357 H       1  LIG1        0.0312
      8 C           0.1370    0.0164   -1.6060 C.3     1  LIG1       -0.0079
      9 C           1.3899    0.8106   -1.0654 C.2     1  LIG1       -0.0671
     10 C           2.3716    1.3369   -1.7973 C.2     1  LIG1       -0.0986
     11 C           0.9983    1.3724    0.3749 C.3     1  LIG1       -0.0160
     12 H           1.8384    1.4531    1.0688 H       1  LIG1        0.0349
     13 C           0.1276    2.6052    0.2526 C.3     1  LIG1       -0.0459
     14 C          -1.0301    2.0958   -0.6038 C.3     1  LIG1       -0.0486
     15 C           0.0178   -1.5731   -1.4699 C.3     1  LIG1       -0.0436
     16 C           0.5640   -2.3773   -0.2569 C.3     1  LIG1       -0.0518
     17 C           0.0631   -2.1719    1.2245 C.3     1  LIG1       -0.0476
     18 C          -0.2179    0.3767   -3.0567 C.3     1  LIG1       -0.0556
     19 H          -2.4564   -1.2171    0.9263 H       1  LIG1        0.0235
     20 H          -2.4353    0.1261    2.0910 H       1  LIG1        0.0235
     21 H          -2.2561   -1.5498    2.6339 H       1  LIG1        0.0235
     22 H           1.2257   -0.3192    3.0304 H       1  LIG1        0.0235
     23 H          -0.1200   -1.1501    3.8207 H       1  LIG1        0.0235
     24 H          -0.2485    0.5743    3.4325 H       1  LIG1        0.0235
     25 H           3.3557    0.9159   -1.5504 H       1  LIG1        0.0535
     26 H           2.5967    2.3889   -1.6065 H       1  LIG1        0.0535
     27 H           0.6430    3.4580   -0.1971 H       1  LIG1        0.0271
     28 H          -0.2429    2.9088    1.2386 H       1  LIG1        0.0271
     29 H          -0.9694    2.5065   -1.6169 H       1  LIG1        0.0268
     30 H          -1.9880    2.4157   -0.1833 H       1  LIG1        0.0268
     31 H           0.4816   -2.0151   -2.3599 H       1  LIG1        0.0274
     32 H          -1.0500   -1.8287   -1.5523 H       1  LIG1        0.0274
     33 H           1.6570   -2.2635   -0.2659 H       1  LIG1        0.0266
     34 H           0.3968   -3.4395   -0.4846 H       1  LIG1        0.0266
     35 H           0.9331   -2.4308    1.8482 H       1  LIG1        0.0271
     36 H          -0.6788   -2.9434    1.4600 H       1  LIG1        0.0271
     37 H          -0.0437    1.4289   -3.2919 H       1  LIG1        0.0238
     38 H          -1.2684    0.1551   -3.2691 H       1  LIG1        0.0238
     39 H           0.3926   -0.2044   -3.7567 H       1  LIG1        0.0238
@<TRIPOS>BOND
     1     2     4    1
     2     4     6    1
     3     6     8    1
     4     8     9    1
     5     9    11    1
     6     4    11    1
     7    11    13    1
     8    13    14    1
     9     6    14    1
    10     8    15    1
    11    15    16    1
    12    16    17    1
    13     2    17    1
    14     1     2    1
    15     2     3    1
    16     4     5    1
    17     6     7    1
    18     8    18    1
    19     9    10    2
    20    11    12    1
    21     1    19    1
    22     1    20    1
    23     1    21    1
    24     3    22    1
    25     3    23    1
    26     3    24    1
    27    10    25    1
    28    10    26    1
    29    13    27    1
    30    13    28    1
    31    14    29    1
    32    14    30    1
    33    15    31    1
    34    15    32    1
    35    16    33    1
    36    16    34    1
    37    17    35    1
    38    17    36    1
    39    18    37    1
    40    18    38    1
    41    18    39    1
