REMARK  Name = NuBBE_2014
REMARK  6 active torsions:
REMARK  status: ('A' for Active; 'I' for Inactive)
REMARK    1  A    between atoms: C_10  and  O_11
REMARK    2  A    between atoms: O_11  and  C_12
REMARK    3  A    between atoms: C_13  and  O_14
REMARK    4  A    between atoms: O_14  and  C_15
REMARK    5  A    between atoms: C_16  and  O_17
REMARK    6  A    between atoms: O_17  and  C_18
REMARK                            x       y       z     vdW  Elec       q    Type
REMARK                         _______ _______ _______ _____ _____    ______ ____
ROOT
ATOM      1  O   LIG A   1      -4.452  -1.210  -0.588  0.00  0.00    -0.285 OA
ATOM      2  C   LIG A   1      -3.282  -1.040  -0.272  0.00  0.00    +0.212 C 
ATOM      3  C   LIG A   1      -2.408  -2.205  -0.009  0.00  0.00    +0.032 A 
ATOM      4  C   LIG A   1      -3.024  -3.464   0.094  0.00  0.00    +0.012 A 
ATOM      5  C   LIG A   1      -2.288  -4.564   0.511  0.00  0.00    +0.001 A 
ATOM      6  C   LIG A   1      -0.951  -4.389   0.847  0.00  0.00    +0.001 A 
ATOM      7  C   LIG A   1      -0.335  -3.135   0.706  0.00  0.00    +0.009 A 
ATOM      8  C   LIG A   1      -1.030  -2.011   0.221  0.00  0.00    -0.003 A 
ATOM      9  C   LIG A   1      -0.417  -0.655   0.020  0.00  0.00    +0.038 A 
ATOM     10  C   LIG A   1       0.974  -0.397  -0.159  0.00  0.00    +0.173 A 
ATOM     11  C   LIG A   1       1.450   0.933  -0.276  0.00  0.00    +0.205 A 
ATOM     12  C   LIG A   1       0.573   2.011  -0.094  0.00  0.00    +0.173 A 
ATOM     13  C   LIG A   1      -0.817   1.783  -0.036  0.00  0.00    +0.032 A 
ATOM     14  C   LIG A   1      -1.740   2.846  -0.024  0.00  0.00    +0.032 A 
ATOM     15  C   LIG A   1      -3.092   2.577  -0.051  0.00  0.00    +0.112 A 
ATOM     16  N   LIG A   1      -3.592   1.335  -0.106  0.00  0.00    -0.251 NA
ATOM     17  C   LIG A   1      -2.695   0.313  -0.103  0.00  0.00    +0.119 A 
ATOM     18  C   LIG A   1      -1.303   0.456  -0.028  0.00  0.00    +0.026 A 
ENDROOT
BRANCH  10  19
ATOM     19  O   LIG A   1       1.767  -1.503  -0.371  0.00  0.00    -0.491 OA
ATOM     20  C   LIG A   1       3.106  -1.466   0.113  0.00  0.00    +0.277 C 
ENDBRANCH  10  19
BRANCH  11  21
ATOM     21  O   LIG A   1       2.782   1.134  -0.559  0.00  0.00    -0.488 OA
ATOM     22  C   LIG A   1       3.072   2.050  -1.619  0.00  0.00    +0.277 C 
ENDBRANCH  11  21
BRANCH  12  23
ATOM     23  O   LIG A   1       0.981   3.324  -0.122  0.00  0.00    -0.491 OA
ATOM     24  C   LIG A   1       1.943   3.671   0.871  0.00  0.00    +0.277 C 
ENDBRANCH  12  23
TORSDOF 3
