REMARK  Name = NuBBE_2253
REMARK  15 active torsions:
REMARK  status: ('A' for Active; 'I' for Inactive)
REMARK    1  A    between atoms: C_1  and  C_2
REMARK    2  A    between atoms: C_5  and  C_6
REMARK    3  A    between atoms: C_11  and  C_12
REMARK    4  A    between atoms: C_11  and  C_13
REMARK    5  A    between atoms: C_14  and  O_18
REMARK    6  A    between atoms: C_23  and  C_24
REMARK    7  A    between atoms: C_27  and  C_29
REMARK    8  A    between atoms: C_29  and  C_30
REMARK    9  A    between atoms: C_29  and  C_37
REMARK   10  A    between atoms: C_29  and  O_38
REMARK   11  A    between atoms: C_30  and  C_31
REMARK   12  A    between atoms: C_31  and  C_32
REMARK   13  A    between atoms: C_32  and  C_34
REMARK   14  A    between atoms: C_34  and  C_35
REMARK   15  A    between atoms: C_34  and  C_36
REMARK                            x       y       z     vdW  Elec       q    Type
REMARK                         _______ _______ _______ _____ _____    ______ ____
ROOT
ATOM      1  C   LIG A   1       1.326  -1.572  -0.447  0.00  0.00    +0.012 C 
ATOM      2  C   LIG A   1       0.835  -0.554  -1.529  0.00  0.00    -0.023 C 
ATOM      3  C   LIG A   1       0.997   0.924  -1.026  0.00  0.00    +0.002 C 
ATOM      4  C   LIG A   1       2.483   1.461  -0.883  0.00  0.00    -0.025 C 
ATOM      5  C   LIG A   1       3.210   0.790   0.307  0.00  0.00    +0.012 C 
ATOM      6  C   LIG A   1       3.186   1.224  -2.272  0.00  0.00    +0.003 C 
ATOM      7  C   LIG A   1       3.154  -0.266  -2.667  0.00  0.00    +0.005 C 
ATOM      8  C   LIG A   1       1.713  -0.770  -2.794  0.00  0.00    +0.008 C 
ATOM      9  C   LIG A   1       4.577   1.925  -2.474  0.00  0.00    -0.006 C 
ATOM     10  C   LIG A   1       5.717   1.268  -1.669  0.00  0.00    +0.014 C 
ATOM     11  C   LIG A   1       4.995   1.828  -3.967  0.00  0.00    +0.014 C 
ATOM     12  C   LIG A   1       4.467   3.434  -2.097  0.00  0.00    +0.120 C 
ATOM     13  C   LIG A   1       3.795   3.692  -0.749  0.00  0.00    +0.032 C 
ATOM     14  C   LIG A   1       2.439   2.994  -0.611  0.00  0.00    +0.010 C 
ATOM     15  C   LIG A   1       0.067   1.255   0.164  0.00  0.00    +0.005 C 
ATOM     16  C   LIG A   1      -0.955   0.181   0.533  0.00  0.00    +0.005 C 
ATOM     17  C   LIG A   1      -1.659  -0.479  -0.659  0.00  0.00    +0.001 C 
ATOM     18  C   LIG A   1      -0.712  -0.778  -1.879  0.00  0.00    -0.023 C 
ATOM     19  C   LIG A   1      -1.226   0.127  -3.046  0.00  0.00    +0.012 C 
ATOM     20  C   LIG A   1      -1.022  -2.235  -2.306  0.00  0.00    +0.008 C 
ATOM     21  C   LIG A   1      -2.362  -2.561  -1.673  0.00  0.00    +0.007 C 
ATOM     22  C   LIG A   1      -2.367  -1.823  -0.316  0.00  0.00    +0.024 C 
ENDROOT
BRANCH  12  23
ATOM     23  O   LIG A   1       3.755   4.169  -3.098  0.00  0.00    -0.391 OA
ATOM     24  H   LIG A   1       2.852   3.819  -3.160  0.00  0.00    +0.210 HD
ENDBRANCH  12  23
BRANCH  22  25
ATOM     25  C   LIG A   1      -3.810  -1.712   0.274  0.00  0.00    +0.067 C 
ATOM     26  C   LIG A   1      -4.394  -3.106   0.564  0.00  0.00    +0.041 C 
BRANCH  25  27
ATOM     27  O   LIG A   1      -4.642  -1.113  -0.738  0.00  0.00    -0.389 OA
ATOM     28  H   LIG A   1      -5.570  -1.206  -0.463  0.00  0.00    +0.210 HD
ENDBRANCH  25  27
BRANCH  25  29
ATOM     29  C   LIG A   1      -3.958  -0.811   1.522  0.00  0.00    +0.039 C 
BRANCH  29  30
ATOM     30  C   LIG A   1      -3.249  -1.285   2.805  0.00  0.00    +0.033 C 
BRANCH  30  31
ATOM     31  C   LIG A   1      -3.453  -0.429   4.056  0.00  0.00    -0.074 C 
ATOM     32  C   LIG A   1      -4.091   0.764   4.008  0.00  0.00    +0.008 C 
BRANCH  31  33
ATOM     33  C   LIG A   1      -2.846  -0.982   5.358  0.00  0.00    +0.008 C 
ATOM     34  C   LIG A   1      -3.040  -0.075   6.587  0.00  0.00    +0.012 C 
ATOM     35  C   LIG A   1      -3.366  -2.383   5.720  0.00  0.00    +0.012 C 
ENDBRANCH  31  33
ENDBRANCH  30  31
ENDBRANCH  29  30
ENDBRANCH  25  29
ENDBRANCH  22  25
TORSDOF 7
