REMARK  Name = NuBBE_1834
REMARK  12 active torsions:
REMARK  status: ('A' for Active; 'I' for Inactive)
REMARK    1  A    between atoms: C_1  and  C_2
REMARK    2  A    between atoms: C_6  and  C_26
REMARK    3  A    between atoms: C_6  and  O_29
REMARK    4  A    between atoms: C_12  and  C_14
REMARK    5  A    between atoms: C_16  and  O_17
REMARK    6  A    between atoms: O_17  and  C_18
REMARK    7  A    between atoms: C_19  and  O_24
REMARK    8  A    between atoms: C_20  and  O_22
REMARK    9  A    between atoms: O_22  and  C_23
REMARK   10  A    between atoms: O_24  and  C_25
REMARK   11  A    between atoms: C_26  and  C_27
REMARK   12  A    between atoms: O_29  and  C_30
REMARK                            x       y       z     vdW  Elec       q    Type
REMARK                         _______ _______ _______ _____ _____    ______ ____
ROOT
ATOM      1  C   LIG A   1      -3.795   0.662  -0.709  0.00  0.00    +0.016 C 
ATOM      2  C   LIG A   1      -2.337   0.529  -0.275  0.00  0.00    +0.065 C 
ATOM      3  C   LIG A   1      -1.636  -0.562  -1.020  0.00  0.00    +0.000 C 
ATOM      4  C   LIG A   1      -1.560  -1.878  -0.779  0.00  0.00    +0.023 C 
ATOM      5  C   LIG A   1      -0.800  -2.843  -1.688  0.00  0.00    +0.153 C 
ATOM      6  C   LIG A   1      -0.194  -2.092  -2.933  0.00  0.00    +0.195 C 
ATOM      7  O   LIG A   1       0.384  -2.685  -3.854  0.00  0.00    -0.289 OA
ATOM      8  C   LIG A   1      -0.231  -0.614  -3.012  0.00  0.00    +0.095 C 
ATOM      9  C   LIG A   1      -0.907   0.063  -2.075  0.00  0.00    +0.128 C 
ATOM     10  O   LIG A   1      -0.945   1.439  -2.010  0.00  0.00    -0.483 OA
ATOM     11  C   LIG A   1      -1.515   1.758  -0.714  0.00  0.00    +0.211 C 
ENDROOT
BRANCH  11  12
ATOM     12  C   LIG A   1      -0.395   2.165   0.230  0.00  0.00    +0.000 A 
ATOM     13  C   LIG A   1       0.023   3.496   0.298  0.00  0.00    +0.057 A 
ATOM     14  C   LIG A   1       1.113   3.867   1.099  0.00  0.00    +0.166 A 
ATOM     15  C   LIG A   1       1.790   2.892   1.871  0.00  0.00    +0.203 A 
ATOM     16  C   LIG A   1       1.308   1.571   1.887  0.00  0.00    +0.166 A 
ATOM     17  C   LIG A   1       0.261   1.226   1.032  0.00  0.00    +0.057 A 
BRANCH  14  18
ATOM     18  O   LIG A   1       1.541   5.172   1.194  0.00  0.00    -0.491 OA
ATOM     19  C   LIG A   1       1.296   5.993   0.054  0.00  0.00    +0.277 C 
ENDBRANCH  14  18
BRANCH  16  20
ATOM     20  O   LIG A   1       1.889   0.636   2.709  0.00  0.00    -0.491 OA
ATOM     21  C   LIG A   1       1.052  -0.443   3.125  0.00  0.00    +0.277 C 
ENDBRANCH  16  20
BRANCH  15  22
ATOM     22  O   LIG A   1       2.884   3.332   2.581  0.00  0.00    -0.488 OA
ATOM     23  C   LIG A   1       3.952   2.401   2.750  0.00  0.00    +0.277 C 
ENDBRANCH  15  22
ENDBRANCH  11  12
BRANCH   5  24
ATOM     24  O   LIG A   1      -1.782  -3.829  -2.044  0.00  0.00    -0.364 OA
ATOM     25  C   LIG A   1      -1.347  -4.866  -2.916  0.00  0.00    +0.195 C 
ENDBRANCH   5  24
BRANCH   5  26
ATOM     26  C   LIG A   1       0.406  -3.479  -0.928  0.00  0.00    +0.074 C 
BRANCH  26  27
ATOM     27  C   LIG A   1       0.052  -4.322   0.276  0.00  0.00    -0.031 C 
ATOM     28  C   LIG A   1       0.550  -4.125   1.502  0.00  0.00    +0.004 C 
ENDBRANCH  26  27
ENDBRANCH   5  26
TORSDOF 7
