@<TRIPOS>MOLECULE
NuBBE_106
 53 55 0 0 0
SMALL
GASTEIGER

@<TRIPOS>ATOM
      1 H          -0.0963    2.1356    0.7839 H       1  LIG1        0.0358
      2 C           0.9469    1.8526    0.5930 C.3     1  LIG1        0.0050
      3 C           1.0360    1.0022   -0.6984 C.3     1  LIG1        0.0338
      4 C           0.7779   -0.4743   -0.3939 C.3     1  LIG1        0.2071
      5 H           0.8877   -1.0594   -1.3122 H       1  LIG1        0.1059
      6 O           1.7281   -0.9792    0.5539 O.2     1  LIG1       -0.4702
      7 C           1.8602   -0.2024    1.6747 C.2     1  LIG1        0.0981
      8 C           1.4686    1.0787    1.7855 C.2     1  LIG1        0.0744
      9 C           1.4940    1.7321    3.1162 C.2     1  LIG1        0.3381
     10 O           2.3262    1.0716    3.9529 O.3     1  LIG1       -0.4646
     11 C           2.4407    1.5872    5.2785 C.3     1  LIG1        0.0820
     12 O           0.8515    2.7451    3.3827 O.2     1  LIG1       -0.2452
     13 O          -0.5825   -0.5698    0.0550 O.3     1  LIG1       -0.3096
     14 C          -1.0029   -1.8995    0.3416 C.3     1  LIG1        0.1918
     15 H          -0.3083   -2.3336    1.0712 H       1  LIG1        0.0939
     16 O          -0.9420   -2.7462   -0.8112 O.3     1  LIG1       -0.3404
     17 C          -1.9844   -2.5775   -1.7822 C.3     1  LIG1        0.1130
     18 H          -1.8768   -3.4427   -2.4487 H       1  LIG1        0.0647
     19 C          -3.3778   -2.6942   -1.1410 C.3     1  LIG1        0.1119
     20 H          -4.1655   -2.5523   -1.8880 H       1  LIG1        0.0647
     21 C          -3.5445   -1.6907    0.0051 C.3     1  LIG1        0.1141
     22 H          -4.4995   -1.9002    0.5042 H       1  LIG1        0.0648
     23 O          -3.6152   -0.3613   -0.5069 O.3     1  LIG1       -0.3864
     24 O          -3.5394   -4.0235   -0.5958 O.3     1  LIG1       -0.3865
     25 C          -1.7941   -1.3350   -2.6661 C.3     1  LIG1        0.0730
     26 O          -2.8400   -1.2374   -3.6284 O.3     1  LIG1       -0.3924
     27 C          -2.4020   -1.8734    1.0212 C.3     1  LIG1        0.1342
     28 H          -2.4306   -1.0546    1.7495 H       1  LIG1        0.0671
     29 O          -2.6182   -3.0914    1.7617 O.3     1  LIG1       -0.3841
     30 H           0.2688    1.3594   -1.4008 H       1  LIG1        0.0370
     31 C           1.7922    3.1114    0.2744 C.3     1  LIG1       -0.0190
     32 C           2.4756    2.8535   -1.0747 C.3     1  LIG1        0.0588
     33 H           3.4972    3.2460   -1.1041 H       1  LIG1        0.0596
     34 C           2.4392    1.3334   -1.2398 C.3     1  LIG1       -0.0087
     35 H           3.2146    0.8999   -0.5949 H       1  LIG1        0.0328
     36 C           2.6842    0.8450   -2.6600 C.3     1  LIG1       -0.0596
     37 O           1.7288    3.4778   -2.1143 O.3     1  LIG1       -0.3915
     38 H           2.3156   -0.7863    2.4652 H       1  LIG1        0.1029
     39 H           2.6953    0.7527    5.9380 H       1  LIG1        0.0661
     40 H           1.5090    2.0349    5.6369 H       1  LIG1        0.0661
     41 H           3.2557    2.3149    5.3070 H       1  LIG1        0.0661
     42 H          -4.1059    0.1781    0.1372 H       1  LIG1        0.2100
     43 H          -3.4583   -4.6445   -1.3436 H       1  LIG1        0.2100
     44 H          -1.7486   -0.4049   -2.0966 H       1  LIG1        0.0584
     45 H          -0.8459   -1.4150   -3.2086 H       1  LIG1        0.0584
     46 H          -2.7661   -0.3530   -4.0295 H       1  LIG1        0.2095
     47 H          -2.8601   -3.7773    1.0994 H       1  LIG1        0.2101
     48 H           2.5505    3.2904    1.0447 H       1  LIG1        0.0296
     49 H           1.1490    3.9981    0.2303 H       1  LIG1        0.0296
     50 H           3.6262    1.2489   -3.0464 H       1  LIG1        0.0233
     51 H           1.8808    1.1398   -3.3419 H       1  LIG1        0.0233
     52 H           2.7590   -0.2472   -2.6835 H       1  LIG1        0.0233
     53 H           1.7457    4.4373   -1.9524 H       1  LIG1        0.2098
@<TRIPOS>BOND
     1     2     3    1
     2     3     4    1
     3     4     6    1
     4     6     7    1
     5     7     8    2
     6     9    10    1
     7    10    11    1
     8     9    12    2
     9    13    14    1
    10    14    15    1
    11    14    16    1
    12    16    17    1
    13    17    19    1
    14    19    20    1
    15    19    21    1
    16    19    24    1
    17    25    26    1
    18    14    27    1
    19    21    27    1
    20     8     2    1
    21     2    31    1
    22    31    32    1
    23    32    34    1
    24     3    34    1
    25     1     2    1
    26     3    30    1
    27     4     5    1
    28     4    13    1
    29     8     9    1
    30    32    33    1
    31    32    37    1
    32    34    36    1
    33    34    35    1
    34    17    25    1
    35    17    18    1
    36    21    23    1
    37    21    22    1
    38    27    29    1
    39    27    28    1
    40     7    38    1
    41    11    39    1
    42    11    40    1
    43    11    41    1
    44    23    42    1
    45    24    43    1
    46    25    44    1
    47    25    45    1
    48    26    46    1
    49    29    47    1
    50    31    48    1
    51    31    49    1
    52    36    50    1
    53    36    51    1
    54    36    52    1
    55    37    53    1
