REMARK  Name = NuBBE_1713
REMARK  3 active torsions:
REMARK  status: ('A' for Active; 'I' for Inactive)
REMARK    1  A    between atoms: C_4  and  O_5
REMARK    2  A    between atoms: C_14  and  O_15
REMARK    3  A    between atoms: O_15  and  C_16
REMARK                            x       y       z     vdW  Elec       q    Type
REMARK                         _______ _______ _______ _____ _____    ______ ____
ROOT
ATOM      1  O   LIG A   1      -2.119   0.686  -0.103  0.00  0.00    -0.286 OA
ATOM      2  C   LIG A   1      -0.894   0.673  -0.027  0.00  0.00    +0.204 A 
ATOM      3  C   LIG A   1      -0.136   1.927   0.061  0.00  0.00    +0.106 A 
ATOM      4  C   LIG A   1      -0.774   3.171   0.059  0.00  0.00    +0.131 A 
ATOM      5  C   LIG A   1      -0.025   4.341   0.142  0.00  0.00    +0.046 A 
ATOM      6  C   LIG A   1       1.367   4.270   0.228  0.00  0.00    +0.007 A 
ATOM      7  C   LIG A   1       2.005   3.028   0.231  0.00  0.00    +0.047 A 
ATOM      8  C   LIG A   1       1.253   1.853   0.147  0.00  0.00    +0.143 A 
ATOM      9  O   LIG A   1       1.960   0.675   0.156  0.00  0.00    -0.455 OA
ATOM     10  C   LIG A   1       1.261  -0.503   0.072  0.00  0.00    +0.140 A 
ATOM     11  C   LIG A   1       2.010  -1.677   0.081  0.00  0.00    +0.050 A 
ATOM     12  C   LIG A   1       1.365  -2.913  -0.004  0.00  0.00    +0.049 A 
ATOM     13  C   LIG A   1      -0.029  -2.991  -0.098  0.00  0.00    +0.121 A 
ATOM     14  C   LIG A   1      -0.779  -1.816  -0.105  0.00  0.00    +0.061 A 
ATOM     15  C   LIG A   1      -0.127  -0.579  -0.020  0.00  0.00    +0.068 A 
ENDROOT
BRANCH   4  16
ATOM     16  O   LIG A   1      -2.133   3.312  -0.023  0.00  0.00    -0.506 OA
ATOM     17  H   LIG A   1      -2.526   2.410  -0.075  0.00  0.00    +0.292 HD
ENDBRANCH   4  16
BRANCH  13  18
ATOM     18  O   LIG A   1      -0.525  -4.262  -0.175  0.00  0.00    -0.495 OA
ATOM     19  C   LIG A   1      -1.937  -4.397  -0.291  0.00  0.00    +0.277 C 
ENDBRANCH  13  18
TORSDOF 2
