@<TRIPOS>MOLECULE
NuBBE_1249
 68 72 0 0 0
SMALL
GASTEIGER

@<TRIPOS>ATOM
      1 O          -1.3579    0.6006   -1.7485 O.3     1  LIG1       -0.5058
      2 C          -0.7016   -0.3487   -1.0039 C.ar    1  LIG1        0.1353
      3 C          -0.0241    0.1157    0.1602 C.ar    1  LIG1        0.0686
      4 C           0.6768   -0.8371    0.9336 C.ar    1  LIG1        0.1520
      5 C           0.6438   -2.1889    0.5623 C.ar    1  LIG1        0.1062
      6 C          -0.0677   -2.6183   -0.5702 C.ar    1  LIG1        0.1404
      7 C          -0.7274   -1.7082   -1.4049 C.ar    1  LIG1        0.0677
      8 C          -1.4529   -2.2374   -2.6533 C.3     1  LIG1        0.1188
      9 H          -2.2260   -2.9336   -2.2994 H       1  LIG1        0.0675
     10 C          -0.5148   -2.9470   -3.6817 C.3     1  LIG1        0.1139
     11 H           0.0094   -3.7952   -3.2340 H       1  LIG1        0.0649
     12 O           0.4810   -2.0503   -4.2122 O.3     1  LIG1       -0.3862
     13 C          -1.3390   -3.4499   -4.8758 C.3     1  LIG1        0.1117
     14 H          -0.6852   -3.8900   -5.6379 H       1  LIG1        0.0647
     15 O          -2.2558   -4.4780   -4.4781 O.3     1  LIG1       -0.3865
     16 C          -2.1137   -2.2799   -5.4930 C.3     1  LIG1        0.1068
     17 H          -1.4128   -1.5561   -5.9260 H       1  LIG1        0.0643
     18 C          -2.9443   -1.5856   -4.4129 C.3     1  LIG1        0.0770
     19 O          -2.1334   -1.1448   -3.3186 O.3     1  LIG1       -0.3664
     20 O          -2.9643   -2.7663   -6.5354 O.3     1  LIG1       -0.3869
     21 O          -0.1609   -3.9527   -0.8907 O.3     1  LIG1       -0.5054
     22 C           1.3649   -3.1658    1.3826 C.ar    1  LIG1        0.1966
     23 O           1.3820   -4.3647    1.0939 O.2     1  LIG1       -0.2869
     24 C           2.0750   -2.6744    2.5541 C.ar    1  LIG1        0.0288
     25 C           2.0709   -1.3604    2.8186 C.ar    1  LIG1        0.1392
     26 O           1.3799   -0.4191    2.0527 O.2     1  LIG1       -0.4540
     27 C           2.8141   -0.8353    3.9947 C.ar    1  LIG1        0.0176
     28 C           3.9799   -1.4718    4.4734 C.ar    1  LIG1       -0.0476
     29 C           4.6791   -0.9875    5.5849 C.ar    1  LIG1       -0.0195
     30 C           4.2235    0.1535    6.2274 C.ar    1  LIG1        0.1169
     31 C           3.0828    0.8068    5.7780 C.ar    1  LIG1       -0.0195
     32 C           2.3811    0.3159    4.6681 C.ar    1  LIG1       -0.0476
     33 O           4.8734    0.6680    7.3090 O.3     1  LIG1       -0.5068
     34 C          -0.0874    1.6002    0.5661 C.3     1  LIG1        0.1193
     35 H           0.4379    1.7267    1.5201 H       1  LIG1        0.0676
     36 O          -1.4739    1.9245    0.8240 O.3     1  LIG1       -0.3609
     37 C          -1.6968    3.3008    1.1555 C.3     1  LIG1        0.1108
     38 H          -1.0944    3.5664    2.0349 H       1  LIG1        0.0646
     39 C          -3.1706    3.4937    1.5439 C.3     1  LIG1        0.0729
     40 O          -3.4225    4.8527    1.9078 O.3     1  LIG1       -0.3924
     41 C          -1.2986    4.2043   -0.0213 C.3     1  LIG1        0.1117
     42 H          -1.8673    3.9504   -0.9243 H       1  LIG1        0.0647
     43 C           0.1939    4.0117   -0.2693 C.3     1  LIG1        0.1121
     44 H           0.7646    4.4329    0.5683 H       1  LIG1        0.0647
     45 C           0.5734    2.5411   -0.4807 C.3     1  LIG1        0.1139
     46 H           0.3134    2.2650   -1.5059 H       1  LIG1        0.0649
     47 O           2.0096    2.4478   -0.4054 O.3     1  LIG1       -0.3862
     48 O           0.6049    4.7805   -1.4162 O.3     1  LIG1       -0.3865
     49 O          -1.5029    5.6043    0.2267 O.3     1  LIG1       -0.3865
     50 H          -1.8546    0.1362   -2.4559 H       1  LIG1        0.2922
     51 H           0.6369   -1.3495   -3.5543 H       1  LIG1        0.2100
     52 H          -2.8984   -4.5607   -5.2115 H       1  LIG1        0.2100
     53 H          -3.7535   -2.2258   -4.0417 H       1  LIG1        0.0587
     54 H          -3.4282   -0.7008   -4.8409 H       1  LIG1        0.0587
     55 H          -2.3947   -2.9134   -7.3132 H       1  LIG1        0.2100
     56 H           0.3737   -4.4788   -0.2515 H       1  LIG1        0.2922
     57 H           2.5772   -3.4238    3.1507 H       1  LIG1        0.0693
     58 H           4.3749   -2.3599    3.9845 H       1  LIG1        0.0626
     59 H           5.5690   -1.5102    5.9224 H       1  LIG1        0.0654
     60 H           2.7372    1.6993    6.2922 H       1  LIG1        0.0654
     61 H           1.4853    0.8414    4.3464 H       1  LIG1        0.0626
     62 H           5.6388    0.1052    7.5129 H       1  LIG1        0.2921
     63 H          -3.4200    2.8514    2.3951 H       1  LIG1        0.0584
     64 H          -3.8363    3.2255    0.7170 H       1  LIG1        0.0584
     65 H          -4.2976    4.8712    2.3388 H       1  LIG1        0.2095
     66 H           2.3360    3.1535   -0.9997 H       1  LIG1        0.2100
     67 H           0.1465    5.6409   -1.3143 H       1  LIG1        0.2100
     68 H          -2.3111    5.6819    0.7816 H       1  LIG1        0.2100
@<TRIPOS>BOND
     1     1     2    1
     2     2     3   ar
     3     3     4   ar
     4     4     5   ar
     5     5     6   ar
     6     6     7   ar
     7     2     7   ar
     8     8    10    1
     9    10    13    1
    10    13    16    1
    11    16    18    1
    12    18    19    1
    13     8    19    1
    14     6    21    1
    15     5    22   ar
    16    22    23    2
    17    22    24   ar
    18    24    25   ar
    19    25    26   ar
    20     4    26   ar
    21    25    27    1
    22    27    28   ar
    23    28    29   ar
    24    29    30   ar
    25    30    31   ar
    26    31    32   ar
    27    27    32   ar
    28    30    33    1
    29     3    34    1
    30    34    35    1
    31    34    36    1
    32    36    37    1
    33    37    38    1
    34    37    39    1
    35    39    40    1
    36    37    41    1
    37    41    43    1
    38    43    44    1
    39    43    45    1
    40    34    45    1
    41    43    48    1
    42     8     9    1
    43     8     7    1
    44    10    12    1
    45    10    11    1
    46    13    15    1
    47    13    14    1
    48    16    20    1
    49    16    17    1
    50    41    49    1
    51    41    42    1
    52    45    47    1
    53    45    46    1
    54     1    50    1
    55    12    51    1
    56    15    52    1
    57    18    53    1
    58    18    54    1
    59    20    55    1
    60    21    56    1
    61    24    57    1
    62    28    58    1
    63    29    59    1
    64    31    60    1
    65    32    61    1
    66    33    62    1
    67    39    63    1
    68    39    64    1
    69    40    65    1
    70    47    66    1
    71    48    67    1
    72    49    68    1
