@<TRIPOS>MOLECULE
NuBBE_165
 47 50 0 0 0
SMALL
GASTEIGER

@<TRIPOS>ATOM
      1 C          -3.5852    2.1195    2.8823 C.3     1  LIG1        0.0790
      2 O          -3.2367    2.2422    1.5101 O.3     1  LIG1       -0.4914
      3 C          -2.2516    1.4358    1.0002 C.ar    1  LIG1        0.1618
      4 C          -1.9674    1.7162   -0.3440 C.ar    1  LIG1       -0.0103
      5 C          -1.0215    0.9706   -1.0670 C.ar    1  LIG1       -0.0090
      6 C          -0.3229   -0.0767   -0.4441 C.ar    1  LIG1       -0.0134
      7 C           0.6984   -0.8992   -1.2610 C.3     1  LIG1        0.0756
      8 C           2.1228   -0.3107   -1.2610 C.3     1  LIG1        0.0039
      9 C           2.8389   -0.4978    0.0933 C.3     1  LIG1        0.0790
     10 H           3.9142   -0.3317   -0.0534 H       1  LIG1        0.0641
     11 O           2.3783    0.3936    1.1110 O.3     1  LIG1       -0.3757
     12 C           2.6871    1.7604    0.8791 C.3     1  LIG1        0.0372
     13 C           2.6614   -1.8961    0.6419 C.2     1  LIG1       -0.0553
     14 C           1.7322   -2.7626    0.1944 C.2     1  LIG1       -0.0583
     15 C           0.8062   -2.3530   -0.8209 C.2     1  LIG1       -0.0256
     16 C           0.0369   -3.1434   -1.5873 C.2     1  LIG1       -0.0648
     17 C          -0.5826   -2.3217   -2.6658 C.3     1  LIG1        0.0189
     18 N           0.2285   -1.0926   -2.6638 N.3     1  LIG1       -0.2825
     19 C          -0.3962    0.0457   -3.3416 C.3     1  LIG1        0.0305
     20 C          -0.7232    1.3032   -2.5047 C.3     1  LIG1        0.0933
     21 H          -1.5874    1.7994   -2.9621 H       1  LIG1        0.0656
     22 O           0.3591    2.2359   -2.5622 O.3     1  LIG1       -0.3859
     23 C          -0.6017   -0.3326    0.9128 C.ar    1  LIG1       -0.0107
     24 C          -1.5437    0.4117    1.6419 C.ar    1  LIG1        0.1618
     25 O          -1.8466    0.1091    2.9416 O.3     1  LIG1       -0.4914
     26 C          -0.8000   -0.4079    3.7520 C.3     1  LIG1        0.0790
     27 H          -4.4904    2.7107    3.0508 H       1  LIG1        0.0660
     28 H          -2.7939    2.5302    3.5183 H       1  LIG1        0.0660
     29 H          -3.8476    1.0952    3.1599 H       1  LIG1        0.0660
     30 H          -2.5090    2.5241   -0.8345 H       1  LIG1        0.0659
     31 H           2.1141    0.7364   -1.5665 H       1  LIG1        0.0318
     32 H           2.7267   -0.8311   -2.0205 H       1  LIG1        0.0318
     33 H           2.2189    2.3522    1.6703 H       1  LIG1        0.0524
     34 H           2.2819    2.1169   -0.0701 H       1  LIG1        0.0524
     35 H           3.7678    1.9221    0.9084 H       1  LIG1        0.0524
     36 H           3.3483   -2.2073    1.4228 H       1  LIG1        0.0598
     37 H           1.6805   -3.7744    0.5832 H       1  LIG1        0.0619
     38 H          -0.0570   -4.2121   -1.5093 H       1  LIG1        0.0588
     39 H          -1.6390   -2.1406   -2.4349 H       1  LIG1        0.0470
     40 H          -0.4996   -2.8224   -3.6354 H       1  LIG1        0.0470
     41 H          -1.3276   -0.2861   -3.8195 H       1  LIG1        0.0456
     42 H           0.2675    0.3362   -4.1657 H       1  LIG1        0.0456
     43 H           0.4798    2.5978   -1.6680 H       1  LIG1        0.2103
     44 H          -0.0788   -1.1432    1.4067 H       1  LIG1        0.0659
     45 H          -0.5956   -1.4558    3.5144 H       1  LIG1        0.0660
     46 H          -1.1481   -0.3712    4.7893 H       1  LIG1        0.0660
     47 H           0.1037    0.2051    3.6788 H       1  LIG1        0.0660
@<TRIPOS>BOND
     1     1     2    1
     2     3     4   ar
     3     4     5   ar
     4     5     6   ar
     5     6     7    1
     6     7     8    1
     7     8     9    1
     8    11    12    1
     9     9    13    1
    10    13    14    2
    11     7    15    1
    12    14    15    1
    13    15    16    2
    14    16    17    1
    15    17    18    1
    16     7    18    1
    17    18    19    1
    18    19    20    1
    19     5    20    1
    20     6    23   ar
    21    23    24   ar
    22     3    24   ar
    23    25    26    1
    24     2     3    1
    25    20    21    1
    26    20    22    1
    27    24    25    1
    28     9    11    1
    29     9    10    1
    30     1    27    1
    31     1    28    1
    32     1    29    1
    33     4    30    1
    34     8    31    1
    35     8    32    1
    36    12    33    1
    37    12    34    1
    38    12    35    1
    39    13    36    1
    40    14    37    1
    41    16    38    1
    42    17    39    1
    43    17    40    1
    44    19    41    1
    45    19    42    1
    46    22    43    1
    47    23    44    1
    48    26    45    1
    49    26    46    1
    50    26    47    1
