REMARK  Name = NuBBE_584
REMARK  7 active torsions:
REMARK  status: ('A' for Active; 'I' for Inactive)
REMARK    1  A    between atoms: O_1  and  C_2
REMARK    2  A    between atoms: C_5  and  C_21
REMARK    3  A    between atoms: C_8  and  C_10
REMARK    4  A    between atoms: C_11  and  C_12
REMARK    5  A    between atoms: C_18  and  O_20
REMARK    6  A    between atoms: C_21  and  C_22
REMARK    7  A    between atoms: C_23  and  C_24
REMARK                            x       y       z     vdW  Elec       q    Type
REMARK                         _______ _______ _______ _____ _____    ______ ____
ROOT
ATOM      1  C   LIG A   1      -1.404   0.650   4.158  0.00  0.00    +0.148 C 
ATOM      2  C   LIG A   1      -0.920  -0.749   3.781  0.00  0.00    +0.066 C 
ATOM      3  C   LIG A   1      -1.253  -1.054   2.316  0.00  0.00    +0.125 C 
ATOM      4  O   LIG A   1      -0.636  -0.059   1.500  0.00  0.00    -0.366 OA
ATOM      5  C   LIG A   1      -1.174   1.249   1.707  0.00  0.00    +0.172 C 
ATOM      6  C   LIG A   1      -0.923   1.714   3.157  0.00  0.00    +0.175 C 
ENDROOT
BRANCH   1   7
ATOM      7  O   LIG A   1      -2.842   0.672   4.187  0.00  0.00    -0.389 OA
ATOM      8  H   LIG A   1      -3.122   0.119   4.939  0.00  0.00    +0.210 HD
ENDBRANCH   1   7
BRANCH   5   9
ATOM      9  C   LIG A   1      -0.545   2.186   0.702  0.00  0.00    +0.007 C 
ATOM     10  C   LIG A   1       0.338   1.832  -0.248  0.00  0.00    +0.006 C 
BRANCH  10  11
ATOM     11  C   LIG A   1       0.921   2.748  -1.236  0.00  0.00    -0.025 A 
ATOM     12  C   LIG A   1       0.223   3.856  -1.730  0.00  0.00    +0.008 A 
ATOM     13  C   LIG A   1       0.797   4.686  -2.695  0.00  0.00    +0.001 A 
ATOM     14  C   LIG A   1       2.070   4.409  -3.185  0.00  0.00    +0.000 A 
ATOM     15  C   LIG A   1       2.768   3.297  -2.717  0.00  0.00    +0.001 A 
ATOM     16  C   LIG A   1       2.194   2.468  -1.751  0.00  0.00    +0.008 A 
ENDBRANCH  10  11
ENDBRANCH   5   9
BRANCH   6  17
ATOM     17  O   LIG A   1      -1.613   2.942   3.435  0.00  0.00    -0.386 OA
ATOM     18  H   LIG A   1      -2.539   2.677   3.611  0.00  0.00    +0.210 HD
ENDBRANCH   6  17
BRANCH   3  19
ATOM     19  C   LIG A   1      -0.699  -2.424   1.883  0.00  0.00    +0.058 C 
BRANCH  19  20
ATOM     20  C   LIG A   1      -1.042  -2.759   0.448  0.00  0.00    -0.025 C 
ATOM     21  C   LIG A   1      -0.118  -2.989  -0.503  0.00  0.00    +0.013 C 
BRANCH  21  22
ATOM     22  C   LIG A   1      -0.422  -3.282  -1.954  0.00  0.00    +0.203 C 
ATOM     23  O   LIG A   1       0.131  -4.574  -2.295  0.00  0.00    -0.454 OA
ATOM     24  C   LIG A   1       1.412  -4.712  -2.705  0.00  0.00    +0.332 C 
ATOM     25  C   LIG A   1       2.128  -3.488  -3.110  0.00  0.00    +0.087 C 
ATOM     26  C   LIG A   1       1.503  -2.311  -3.231  0.00  0.00    -0.016 C 
ATOM     27  C   LIG A   1       0.052  -2.176  -2.907  0.00  0.00    +0.076 C 
ATOM     28  O   LIG A   1       1.969  -5.804  -2.783  0.00  0.00    -0.246 OA
ENDBRANCH  21  22
ENDBRANCH  19  20
ENDBRANCH   3  19
TORSDOF 7
