REMARK  Name = NuBBE_1551
REMARK  16 active torsions:
REMARK  status: ('A' for Active; 'I' for Inactive)
REMARK    1  A    between atoms: C_2  and  C_3
REMARK    2  A    between atoms: C_2  and  O_4
REMARK    3  A    between atoms: O_4  and  C_5
REMARK    4  A    between atoms: C_8  and  O_9
REMARK    5  A    between atoms: C_11  and  C_47
REMARK    6  A    between atoms: C_12  and  C_14
REMARK    7  A    between atoms: C_14  and  O_16
REMARK    8  A    between atoms: C_14  and  C_17
REMARK    9  A    between atoms: C_17  and  O_18
REMARK   10  A    between atoms: O_18  and  C_19
REMARK   11  A    between atoms: C_21  and  C_45
REMARK   12  A    between atoms: C_22  and  O_24
REMARK   13  A    between atoms: C_25  and  O_43
REMARK   14  A    between atoms: C_28  and  C_29
REMARK   15  A    between atoms: C_30  and  C_32
REMARK   16  A    between atoms: O_43  and  C_44
REMARK                            x       y       z     vdW  Elec       q    Type
REMARK                         _______ _______ _______ _____ _____    ______ ____
ROOT
ATOM      1  C   LIG A   1       1.787   0.890  -0.229  0.00  0.00    +0.131 C 
ATOM      2  C   LIG A   1       0.427   0.262  -0.308  0.00  0.00    +0.130 C 
ATOM      3  C   LIG A   1      -0.327   0.065   0.928  0.00  0.00    +0.111 C 
ATOM      4  C   LIG A   1       0.712   0.191   1.986  0.00  0.00    +0.034 C 
ATOM      5  C   LIG A   1       2.146   0.088   1.081  0.00  0.00    +0.020 C 
ATOM      6  C   LIG A   1       2.588  -1.423   0.248  0.00  0.00    +0.047 C 
ATOM      7  C   LIG A   1       2.245  -1.212  -1.363  0.00  0.00    +0.009 C 
ATOM      8  C   LIG A   1       0.601  -1.421  -1.893  0.00  0.00    +0.181 C 
ATOM      9  C   LIG A   1      -0.369  -0.071  -1.496  0.00  0.00    +0.206 C 
ATOM     10  O   LIG A   1      -1.697  -0.092  -0.737  0.00  0.00    -0.335 OA
ATOM     11  C   LIG A   1      -1.561   0.814   0.560  0.00  0.00    +0.121 C 
ATOM     12  C   LIG A   1      -2.448   0.696   1.859  0.00  0.00    +0.042 C 
ATOM     13  C   LIG A   1      -3.029  -0.689   2.267  0.00  0.00    +0.018 C 
ATOM     14  C   LIG A   1      -3.699   1.630   1.720  0.00  0.00    +0.218 C 
ATOM     15  O   LIG A   1      -3.303   3.003   1.645  0.00  0.00    -0.456 OA
ATOM     16  C   LIG A   1      -2.213   3.350   0.945  0.00  0.00    +0.311 C 
ATOM     17  C   LIG A   1      -1.547   2.296   0.086  0.00  0.00    +0.159 C 
ATOM     18  O   LIG A   1      -1.807   4.509   0.963  0.00  0.00    -0.251 OA
ATOM     19  C   LIG A   1      -1.459   1.167   3.101  0.00  0.00    +0.014 C 
ATOM     20  C   LIG A   1       0.128   1.348   2.826  0.00  0.00    +0.008 C 
ATOM     21  C   LIG A   1       3.201  -1.975  -2.283  0.00  0.00    +0.014 C 
ATOM     22  C   LIG A   1       2.614   0.304  -1.391  0.00  0.00    +0.059 C 
ATOM     23  C   LIG A   1       3.345   0.578   1.877  0.00  0.00    +0.016 C 
ENDROOT
BRANCH  14  24
ATOM     24  C   LIG A   1      -4.692   1.290   0.616  0.00  0.00    +0.031 A 
ATOM     25  C   LIG A   1      -4.464   0.689  -0.605  0.00  0.00    +0.202 A 
ATOM     26  O   LIG A   1      -5.583   0.532  -1.336  0.00  0.00    -0.471 OA
ATOM     27  C   LIG A   1      -6.584   1.058  -0.607  0.00  0.00    +0.195 A 
ATOM     28  C   LIG A   1      -6.104   1.540   0.592  0.00  0.00    +0.048 A 
ENDBRANCH  14  24
BRANCH   3  29
ATOM     29  O   LIG A   1      -0.747  -1.347   1.044  0.00  0.00    -0.385 OA
ATOM     30  H   LIG A   1      -1.484  -1.446   0.401  0.00  0.00    +0.210 HD
ENDBRANCH   3  29
BRANCH   8  31
ATOM     31  O   LIG A   1       0.599  -1.774  -3.270  0.00  0.00    -0.386 OA
ATOM     32  H   LIG A   1       1.143  -1.121  -3.744  0.00  0.00    +0.210 HD
ENDBRANCH   8  31
BRANCH   9  33
ATOM     33  O   LIG A   1      -0.388   0.895  -2.523  0.00  0.00    -0.349 OA
ATOM     34  C   LIG A   1      -1.194   0.506  -3.636  0.00  0.00    +0.197 C 
ENDBRANCH   9  33
BRANCH   1  35
ATOM     35  O   LIG A   1       1.846   2.310  -0.041  0.00  0.00    -0.457 OA
BRANCH  35  37
ATOM     36  O   LIG A   1       1.558   2.820  -2.257  0.00  0.00    -0.251 OA
ATOM     37  C   LIG A   1       1.704   3.140  -1.130  0.00  0.00    +0.304 C 
ATOM     38  C   LIG A   1       1.776   4.593  -0.695  0.00  0.00    +0.136 C 
ENDBRANCH  35  37
ENDBRANCH   1  35
BRANCH   6  39
ATOM     39  C   LIG A   1       2.267  -2.777   0.930  0.00  0.00    +0.227 C 
BRANCH  39  40
ATOM     40  O   LIG A   1       3.053  -2.756   2.157  0.00  0.00    -0.380 OA
ATOM     41  H   LIG A   1       3.865  -3.280   1.962  0.00  0.00    +0.210 HD
ENDBRANCH  39  40
BRANCH  39  42
ATOM     42  C   LIG A   1       2.731  -4.101   0.258  0.00  0.00    +0.336 C 
ATOM     43  O   LIG A   1       3.713  -4.720   0.672  0.00  0.00    -0.248 OA
BRANCH  42  44
ATOM     44  O   LIG A   1       1.959  -4.530  -0.774  0.00  0.00    -0.466 OA
ATOM     45  C   LIG A   1       2.478  -5.721  -1.397  0.00  0.00    +0.280 C 
ENDBRANCH  42  44
ENDBRANCH  39  42
ENDBRANCH   6  39
TORSDOF 10
