@<TRIPOS>MOLECULE
NuBBE_1763
 51 54 0 0 0
SMALL
GASTEIGER

@<TRIPOS>ATOM
      1 C          -1.3093    1.1555   -0.3164 C.3     1  LIG1       -0.0219
      2 C          -1.1315    2.4150   -1.1372 C.2     1  LIG1       -0.0902
      3 C          -2.1261    3.0477   -1.7723 C.2     1  LIG1       -0.1026
      4 C          -0.4868   -0.0745   -0.8331 C.3     1  LIG1        0.0442
      5 C           0.9771    0.2515   -0.7800 C.2     1  LIG1        0.1504
      6 C           1.7761    0.5114   -1.8261 C.2     1  LIG1        0.2032
      7 O           3.1043    0.8471   -1.6191 O.2     1  LIG1       -0.4888
      8 C           3.8893    1.1184   -2.7732 C.3     1  LIG1        0.0791
      9 C           1.1391    0.3645   -3.1891 C.2     1  LIG1        0.2290
     10 O           1.5237    1.0153   -4.1520 O.2     1  LIG1       -0.2859
     11 C           0.0411   -0.7230   -3.2822 C.3     1  LIG1        0.1247
     12 H           0.5487   -1.6790   -3.1125 H       1  LIG1        0.0680
     13 C          -1.0248   -0.4602   -2.2225 C.3     1  LIG1       -0.0059
     14 O          -0.5513   -0.7762   -4.5846 O.3     1  LIG1       -0.3718
     15 C          -1.5494   -1.7786   -4.7352 C.3     1  LIG1        0.0374
     16 O           1.4515    0.1865    0.5235 O.2     1  LIG1       -0.4838
     17 C           0.6705   -0.8431    1.1710 C.3     1  LIG1        0.1285
     18 H           1.3611   -1.6915    1.2759 H       1  LIG1        0.0787
     19 C          -0.4979   -1.2123    0.2147 C.3     1  LIG1        0.0104
     20 H          -1.4646   -1.2458    0.7328 H       1  LIG1        0.0347
     21 C          -0.2391   -2.6277   -0.3347 C.3     1  LIG1       -0.0578
     22 C           0.2564   -0.5023    2.5959 C.ar    1  LIG1       -0.0034
     23 C           0.6440    0.6968    3.2178 C.ar    1  LIG1       -0.0095
     24 C           0.3323    0.8769    4.5529 C.ar    1  LIG1        0.1666
     25 C          -0.3451   -0.0741    5.2777 C.ar    1  LIG1        0.1662
     26 C          -0.7577   -1.2564    4.7088 C.ar    1  LIG1       -0.0158
     27 C          -0.4492   -1.4699    3.3605 C.ar    1  LIG1       -0.0514
     28 O          -0.5248    0.2866    6.5762 O.3     1  LIG1       -0.4526
     29 C           0.1377    1.5679    6.5940 C.3     1  LIG1        0.2332
     30 O           0.6627    1.9599    5.3082 O.3     1  LIG1       -0.4526
     31 H          -2.3725    0.8786   -0.2967 H       1  LIG1        0.0317
     32 H          -1.0440    1.4016    0.7173 H       1  LIG1        0.0317
     33 H          -0.1269    2.8324   -1.2062 H       1  LIG1        0.0567
     34 H          -3.1484    2.6864   -1.7376 H       1  LIG1        0.0532
     35 H          -1.9326    3.9482   -2.3488 H       1  LIG1        0.0532
     36 H           4.9186    1.2964   -2.4476 H       1  LIG1        0.0660
     37 H           3.5461    2.0279   -3.2759 H       1  LIG1        0.0660
     38 H           3.9008    0.2597   -3.4521 H       1  LIG1        0.0660
     39 H          -1.6922   -1.3234   -2.1361 H       1  LIG1        0.0304
     40 H          -1.6894    0.3178   -2.6187 H       1  LIG1        0.0304
     41 H          -1.8505   -1.8173   -5.7849 H       1  LIG1        0.0524
     42 H          -2.4423   -1.5290   -4.1536 H       1  LIG1        0.0524
     43 H          -1.1682   -2.7596   -4.4367 H       1  LIG1        0.0524
     44 H           0.6880   -2.6753   -0.9153 H       1  LIG1        0.0234
     45 H          -1.0600   -2.9771   -0.9666 H       1  LIG1        0.0234
     46 H          -0.1494   -3.3462    0.4881 H       1  LIG1        0.0234
     47 H           1.2012    1.4611    2.6850 H       1  LIG1        0.0659
     48 H          -1.2819   -2.0036    5.2943 H       1  LIG1        0.0655
     49 H          -0.7401   -2.4174    2.9101 H       1  LIG1        0.0623
     50 H           0.9643    1.5254    7.3136 H       1  LIG1        0.1166
     51 H          -0.5785    2.3270    6.9286 H       1  LIG1        0.1166
@<TRIPOS>BOND
     1     1     2    1
     2     2     3    2
     3     4     5    1
     4     5     6    2
     5     7     8    1
     6     6     9    1
     7     9    11    1
     8    11    13    1
     9     4    13    1
    10    14    15    1
    11     5    16    1
    12    16    17    1
    13    17    19    1
    14     4    19    1
    15    22    23   ar
    16    23    24   ar
    17    24    25   ar
    18    25    26   ar
    19    26    27   ar
    20    22    27   ar
    21    25    28    1
    22    28    29    1
    23    29    30    1
    24    24    30    1
    25     1     4    1
    26     6     7    1
    27     9    10    2
    28    17    18    1
    29    17    22    1
    30    11    14    1
    31    11    12    1
    32    19    21    1
    33    19    20    1
    34     1    31    1
    35     1    32    1
    36     2    33    1
    37     3    34    1
    38     3    35    1
    39     8    36    1
    40     8    37    1
    41     8    38    1
    42    13    39    1
    43    13    40    1
    44    15    41    1
    45    15    42    1
    46    15    43    1
    47    21    44    1
    48    21    45    1
    49    21    46    1
    50    23    47    1
    51    26    48    1
    52    27    49    1
    53    29    50    1
    54    29    51    1
