REMARK  Name = NuBBE_290
REMARK  13 active torsions:
REMARK  status: ('A' for Active; 'I' for Inactive)
REMARK    1  A    between atoms: O_1  and  C_2
REMARK    2  A    between atoms: C_3  and  C_4
REMARK    3  A    between atoms: C_4  and  C_5
REMARK    4  A    between atoms: C_5  and  C_6
REMARK    5  A    between atoms: C_6  and  C_7
REMARK    6  A    between atoms: C_6  and  O_8
REMARK    7  A    between atoms: C_6  and  C_9
REMARK    8  A    between atoms: C_9  and  C_10
REMARK    9  A    between atoms: C_10  and  C_11
REMARK   10  A    between atoms: C_12  and  C_13
REMARK   11  A    between atoms: C_12  and  C_14
REMARK   12  A    between atoms: C_17  and  C_18
REMARK   13  A    between atoms: C_18  and  O_19
REMARK                            x       y       z     vdW  Elec       q    Type
REMARK                         _______ _______ _______ _____ _____    ______ ____
ROOT
ATOM      1  C   LIG A   1      -0.193   1.200  -1.850  0.00  0.00    +0.169 C 
ATOM      2  O   LIG A   1      -0.900   1.035  -2.833  0.00  0.00    -0.292 OA
ENDROOT
BRANCH   1   4
ATOM      3  C   LIG A   1       2.272   0.937  -1.043  0.00  0.00    +0.127 A 
ATOM      4  C   LIG A   1       1.324   1.222  -2.034  0.00  0.00    +0.060 A 
ATOM      5  C   LIG A   1       1.829   1.546  -3.299  0.00  0.00    +0.030 A 
ATOM      6  C   LIG A   1       3.227   1.549  -3.520  0.00  0.00    +0.060 A 
ATOM      7  C   LIG A   1       4.115   1.129  -2.524  0.00  0.00    +0.018 A 
ATOM      8  C   LIG A   1       3.627   0.769  -1.294  0.00  0.00    +0.047 A 
BRANCH   3   9
ATOM      9  O   LIG A   1       1.987   1.009   0.276  0.00  0.00    -0.506 OA
ATOM     10  H   LIG A   1       2.651   0.517   0.793  0.00  0.00    +0.292 HD
ENDBRANCH   3   9
BRANCH   6  11
ATOM     11  C   LIG A   1       3.784   2.071  -4.766  0.00  0.00    +0.337 C 
ATOM     12  O   LIG A   1       3.126   2.509  -5.721  0.00  0.00    -0.245 OA
BRANCH  11  13
ATOM     13  O   LIG A   1       5.113   2.062  -4.798  0.00  0.00    -0.477 OA
ATOM     14  H   LIG A   1       5.364   2.440  -5.663  0.00  0.00    +0.295 HD
ENDBRANCH  11  13
ENDBRANCH   6  11
ENDBRANCH   1   4
BRANCH   1  15
ATOM     15  C   LIG A   1      -0.826   1.440  -0.471  0.00  0.00    +0.114 C 
BRANCH  15  16
ATOM     16  C   LIG A   1      -1.154   0.213   0.416  0.00  0.00    +0.071 C 
ATOM     17  C   LIG A   1       0.096  -0.577   0.715  0.00  0.00    +0.041 C 
BRANCH  16  18
ATOM     18  O   LIG A   1      -1.561   0.757   1.685  0.00  0.00    -0.388 OA
ATOM     19  H   LIG A   1      -2.467   1.095   1.610  0.00  0.00    +0.210 HD
ENDBRANCH  16  18
BRANCH  16  20
ATOM     20  C   LIG A   1      -2.258  -0.696  -0.161  0.00  0.00    +0.039 C 
BRANCH  20  21
ATOM     21  C   LIG A   1      -2.567  -1.992   0.627  0.00  0.00    +0.030 C 
BRANCH  21  22
ATOM     22  C   LIG A   1      -3.150  -1.786   2.002  0.00  0.00    -0.028 C 
ATOM     23  C   LIG A   1      -2.510  -1.780   3.192  0.00  0.00    -0.080 C 
ATOM     24  C   LIG A   1      -1.045  -2.011   3.409  0.00  0.00    +0.038 C 
ATOM     25  C   LIG A   1      -3.239  -1.478   4.468  0.00  0.00    +0.038 C 
ENDBRANCH  21  22
ENDBRANCH  20  21
ENDBRANCH  16  20
ENDBRANCH  15  16
ENDBRANCH   1  15
TORSDOF 10
