REMARK  Name = NuBBE_1469
REMARK  12 active torsions:
REMARK  status: ('A' for Active; 'I' for Inactive)
REMARK    1  A    between atoms: C_1  and  C_2
REMARK    2  A    between atoms: C_5  and  C_23
REMARK    3  A    between atoms: C_6  and  C_14
REMARK    4  A    between atoms: C_10  and  O_12
REMARK    5  A    between atoms: C_24  and  C_42
REMARK    6  A    between atoms: C_29  and  C_30
REMARK    7  A    between atoms: C_29  and  C_40
REMARK    8  A    between atoms: C_31  and  C_33
REMARK    9  A    between atoms: C_33  and  O_35
REMARK   10  A    between atoms: C_33  and  C_36
REMARK   11  A    between atoms: C_36  and  O_37
REMARK   12  A    between atoms: O_37  and  C_38
REMARK                            x       y       z     vdW  Elec       q    Type
REMARK                         _______ _______ _______ _____ _____    ______ ____
ROOT
ATOM      1  C   LIG A   1      -3.265  -0.267   1.086  0.00  0.00    +0.057 C 
ATOM      2  C   LIG A   1      -2.011   0.211   0.429  0.00  0.00    +0.124 C 
ATOM      3  C   LIG A   1      -0.590  -0.158   0.826  0.00  0.00    +0.036 C 
ATOM      4  C   LIG A   1      -1.165  -0.583  -0.568  0.00  0.00    +0.066 C 
ATOM      5  C   LIG A   1      -1.087  -2.131  -0.609  0.00  0.00    +0.022 C 
ATOM      6  C   LIG A   1      -2.356  -2.620  -1.337  0.00  0.00    +0.216 C 
ATOM      7  O   LIG A   1      -2.432  -2.059  -2.670  0.00  0.00    -0.454 OA
ATOM      8  C   LIG A   1      -2.031  -0.802  -2.973  0.00  0.00    +0.337 C 
ATOM      9  C   LIG A   1      -1.191   0.009  -1.963  0.00  0.00    +0.234 C 
ATOM     10  O   LIG A   1      -2.207  -0.360  -4.110  0.00  0.00    -0.248 OA
ATOM     11  C   LIG A   1      -0.986  -2.576   0.864  0.00  0.00    +0.012 C 
ATOM     12  C   LIG A   1      -0.267  -1.435   1.585  0.00  0.00    +0.013 C 
ATOM     13  C   LIG A   1       0.217  -2.592  -1.309  0.00  0.00    +0.016 C 
ATOM     14  C   LIG A   1      -0.049   1.167   1.405  0.00  0.00    +0.042 C 
ATOM     15  C   LIG A   1      -0.987   2.209   0.868  0.00  0.00    +0.109 C 
ATOM     16  O   LIG A   1      -2.089   1.666   0.234  0.00  0.00    -0.488 OA
ATOM     17  C   LIG A   1      -0.774   3.521   0.982  0.00  0.00    +0.088 C 
ATOM     18  C   LIG A   1       0.441   3.946   1.714  0.00  0.00    +0.165 C 
ATOM     19  C   LIG A   1       1.725   3.074   1.659  0.00  0.00    +0.034 C 
ATOM     20  C   LIG A   1       2.726   3.952   0.870  0.00  0.00    +0.019 C 
ATOM     21  C   LIG A   1       1.444   1.595   1.099  0.00  0.00    +0.056 C 
ATOM     22  C   LIG A   1       2.345   2.958   3.081  0.00  0.00    +0.019 C 
ATOM     23  O   LIG A   1       0.393   5.013   2.328  0.00  0.00    -0.292 OA
ATOM     24  C   LIG A   1      -0.302   1.118   2.948  0.00  0.00    +0.020 C 
ENDROOT
BRANCH   6  25
ATOM     25  C   LIG A   1      -2.516  -4.115  -1.391  0.00  0.00    +0.031 A 
ATOM     26  C   LIG A   1      -3.194  -4.949  -0.448  0.00  0.00    +0.048 A 
ATOM     27  C   LIG A   1      -3.116  -6.235  -0.928  0.00  0.00    +0.195 A 
ATOM     28  O   LIG A   1      -2.440  -6.258  -2.103  0.00  0.00    -0.471 OA
ATOM     29  C   LIG A   1      -2.091  -4.978  -2.384  0.00  0.00    +0.202 A 
ENDBRANCH   6  25
BRANCH   9  30
ATOM     30  O   LIG A   1       0.133   0.090  -2.513  0.00  0.00    -0.380 OA
ATOM     31  H   LIG A   1       0.006   0.248  -3.472  0.00  0.00    +0.210 HD
ENDBRANCH   9  30
BRANCH  21  32
ATOM     32  C   LIG A   1       1.816   1.393  -0.397  0.00  0.00    +0.227 C 
BRANCH  32  33
ATOM     33  O   LIG A   1       1.050   2.279  -1.205  0.00  0.00    -0.380 OA
ATOM     34  H   LIG A   1       1.030   1.856  -2.086  0.00  0.00    +0.210 HD
ENDBRANCH  32  33
BRANCH  32  35
ATOM     35  C   LIG A   1       3.298   1.435  -0.721  0.00  0.00    +0.336 C 
ATOM     36  O   LIG A   1       4.197   1.226   0.086  0.00  0.00    -0.248 OA
BRANCH  35  37
ATOM     37  O   LIG A   1       3.466   1.671  -2.056  0.00  0.00    -0.466 OA
ATOM     38  C   LIG A   1       4.808   1.872  -2.524  0.00  0.00    +0.280 C 
ENDBRANCH  35  37
ENDBRANCH  32  35
ENDBRANCH  21  32
TORSDOF 6
