@<TRIPOS>MOLECULE
NuBBE_1923
 39 40 0 0 0
SMALL
GASTEIGER

@<TRIPOS>ATOM
      1 C           0.3117    3.7071    1.0019 C.3     1  LIG1       -0.0624
      2 C          -0.4774    2.4297    0.6739 C.3     1  LIG1       -0.0431
      3 H          -1.1010    2.6481   -0.2034 H       1  LIG1        0.0298
      4 C           0.4648    1.2255    0.3202 C.3     1  LIG1       -0.0284
      5 H           1.1160    1.0475    1.1886 H       1  LIG1        0.0312
      6 C          -0.3144   -0.0896   -0.0059 C.3     1  LIG1        0.0017
      7 H          -1.2157    0.1959   -0.5689 H       1  LIG1        0.0391
      8 C           0.4388   -1.1234   -0.8760 C.2     1  LIG1       -0.0632
      9 C          -0.3468   -2.4239   -1.0568 C.3     1  LIG1       -0.0273
     10 C          -0.8590   -3.0039    0.2778 C.3     1  LIG1       -0.0283
     11 C          -1.5197   -1.9118    1.0939 C.2     1  LIG1       -0.0757
     12 C          -3.0095   -1.7979    0.9297 C.3     1  LIG1       -0.0438
     13 C          -0.7562   -0.8128    1.2859 C.2     1  LIG1       -0.0776
     14 C           1.6657   -0.8839   -1.3895 C.2     1  LIG1       -0.0728
     15 C           2.4977   -1.8572   -2.1833 C.3     1  LIG1       -0.0435
     16 C           2.3391    0.4524   -1.2061 C.3     1  LIG1       -0.0314
     17 C           1.3753    1.5836   -0.8669 C.3     1  LIG1       -0.0455
     18 C          -1.4242    2.1485    1.8459 C.3     1  LIG1       -0.0624
     19 H          -0.3557    4.5039    1.3489 H       1  LIG1        0.0232
     20 H           0.8272    4.1004    0.1211 H       1  LIG1        0.0232
     21 H           1.0534    3.5231    1.7862 H       1  LIG1        0.0232
     22 H           0.2217   -3.2035   -1.5670 H       1  LIG1        0.0313
     23 H          -1.2059   -2.2040   -1.7052 H       1  LIG1        0.0313
     24 H          -0.0264   -3.4337    0.8493 H       1  LIG1        0.0313
     25 H          -1.5612   -3.8225    0.0816 H       1  LIG1        0.0313
     26 H          -3.5065   -2.5683    1.5279 H       1  LIG1        0.0274
     27 H          -3.3049   -1.9263   -0.1167 H       1  LIG1        0.0274
     28 H          -3.3805   -0.8247    1.2680 H       1  LIG1        0.0274
     29 H           0.1801   -1.0095    1.8251 H       1  LIG1        0.0578
     30 H           2.0799   -2.8623   -2.2434 H       1  LIG1        0.0274
     31 H           3.4897   -1.9554   -1.7283 H       1  LIG1        0.0274
     32 H           2.6255   -1.4920   -3.2079 H       1  LIG1        0.0274
     33 H           2.8678    0.7301   -2.1266 H       1  LIG1        0.0310
     34 H           3.0972    0.3595   -0.4184 H       1  LIG1        0.0310
     35 H           0.7623    1.8245   -1.7455 H       1  LIG1        0.0271
     36 H           1.9802    2.4691   -0.6481 H       1  LIG1        0.0271
     37 H          -1.9749    3.0521    2.1313 H       1  LIG1        0.0232
     38 H          -0.8751    1.8009    2.7271 H       1  LIG1        0.0232
     39 H          -2.1791    1.4045    1.5794 H       1  LIG1        0.0232
@<TRIPOS>BOND
     1     1     2    1
     2     2     3    1
     3     4     6    1
     4     6     8    1
     5     8     9    1
     6     9    10    1
     7    10    11    1
     8    11    13    2
     9     6    13    1
    10     8    14    2
    11    14    16    1
    12    16    17    1
    13     4    17    1
    14     2    18    1
    15     6     7    1
    16    11    12    1
    17    14    15    1
    18     4     5    1
    19     4     2    1
    20     1    19    1
    21     1    20    1
    22     1    21    1
    23     9    22    1
    24     9    23    1
    25    10    24    1
    26    10    25    1
    27    12    26    1
    28    12    27    1
    29    12    28    1
    30    13    29    1
    31    15    30    1
    32    15    31    1
    33    15    32    1
    34    16    33    1
    35    16    34    1
    36    17    35    1
    37    17    36    1
    38    18    37    1
    39    18    38    1
    40    18    39    1
