@<TRIPOS>MOLECULE
NuBBE_2083
 43 45 0 0 0
SMALL
GASTEIGER

@<TRIPOS>ATOM
      1 O           0.8928   -1.2849    1.4572 O.3     1  LIG1       -0.5064
      2 C           0.8538   -1.8391    0.2074 C.ar    1  LIG1        0.1235
      3 C           0.2795   -1.2004   -0.8949 C.ar    1  LIG1       -0.0055
      4 C          -0.3603    0.1632   -0.8257 C.3     1  LIG1       -0.0239
      5 C           0.6655    1.2652   -1.1016 C.3     1  LIG1       -0.0448
      6 C           0.0588    2.6690   -1.0231 C.3     1  LIG1       -0.0238
      7 C          -0.5505    3.0118    0.3168 C.ar    1  LIG1       -0.0022
      8 C          -1.9185    3.3263    0.3905 C.ar    1  LIG1       -0.0095
      9 C          -2.4539    3.6323    1.6221 C.ar    1  LIG1        0.1667
     10 O          -3.7507    3.9556    1.8688 O.3     1  LIG1       -0.4526
     11 C          -3.7113    4.1800    3.2927 C.3     1  LIG1        0.2332
     12 O          -2.4052    3.9657    3.8710 O.3     1  LIG1       -0.4525
     13 C          -1.6863    3.6366    2.7651 C.ar    1  LIG1        0.1697
     14 C          -0.3448    3.3360    2.7399 C.ar    1  LIG1        0.0256
     15 C           0.2198    3.0280    1.5027 C.ar    1  LIG1        0.1237
     16 O           1.5504    2.7261    1.4258 O.3     1  LIG1       -0.5064
     17 C           0.3395   -1.8459   -2.1397 C.ar    1  LIG1       -0.0487
     18 C           0.9394   -3.1065   -2.2837 C.ar    1  LIG1       -0.0083
     19 C           0.9810   -3.7548   -3.6389 C.3     1  LIG1       -0.0362
     20 C           1.4793   -3.7429   -1.1554 C.ar    1  LIG1        0.1265
     21 O           2.0768   -4.9596   -1.3645 O.3     1  LIG1       -0.4947
     22 C           2.0258   -5.8670   -0.2681 C.3     1  LIG1        0.0788
     23 C           1.4420   -3.0981    0.0832 C.ar    1  LIG1        0.0221
     24 H           0.6190   -0.3552    1.4052 H       1  LIG1        0.2921
     25 H          -0.8418    0.2923    0.1498 H       1  LIG1        0.0314
     26 H          -1.1759    0.2240   -1.5575 H       1  LIG1        0.0314
     27 H           1.0913    1.1306   -2.1044 H       1  LIG1        0.0272
     28 H           1.5103    1.1674   -0.4111 H       1  LIG1        0.0272
     29 H          -0.7003    2.7650   -1.8123 H       1  LIG1        0.0314
     30 H           0.8261    3.4176   -1.2565 H       1  LIG1        0.0314
     31 H          -2.5515    3.3296   -0.4922 H       1  LIG1        0.0659
     32 H          -4.4222    3.5032    3.7766 H       1  LIG1        0.1166
     33 H          -4.0142    5.2148    3.4927 H       1  LIG1        0.1166
     34 H           0.2335    3.3462    3.6566 H       1  LIG1        0.0692
     35 H           1.9506    2.8039    2.3091 H       1  LIG1        0.2921
     36 H          -0.0835   -1.3539   -3.0142 H       1  LIG1        0.0625
     37 H           0.5150   -3.1195   -4.4003 H       1  LIG1        0.0279
     38 H           0.4352   -4.7033   -3.6222 H       1  LIG1        0.0279
     39 H           2.0164   -3.9317   -3.9461 H       1  LIG1        0.0279
     40 H           2.4898   -6.8042   -0.5906 H       1  LIG1        0.0660
     41 H           0.9885   -6.0816    0.0102 H       1  LIG1        0.0660
     42 H           2.5980   -5.5076    0.5921 H       1  LIG1        0.0660
     43 H           1.8925   -3.5344    0.9673 H       1  LIG1        0.0691
@<TRIPOS>BOND
     1     1     2    1
     2     2     3   ar
     3     3     4    1
     4     4     5    1
     5     5     6    1
     6     6     7    1
     7     7     8   ar
     8     8     9   ar
     9     9    10    1
    10    10    11    1
    11    11    12    1
    12     9    13   ar
    13    12    13    1
    14    13    14   ar
    15    14    15   ar
    16     7    15   ar
    17    15    16    1
    18     3    17   ar
    19    17    18   ar
    20    18    19    1
    21    18    20   ar
    22    20    21    1
    23    21    22    1
    24    20    23   ar
    25     2    23   ar
    26     1    24    1
    27     4    25    1
    28     4    26    1
    29     5    27    1
    30     5    28    1
    31     6    29    1
    32     6    30    1
    33     8    31    1
    34    11    32    1
    35    11    33    1
    36    14    34    1
    37    16    35    1
    38    17    36    1
    39    19    37    1
    40    19    38    1
    41    19    39    1
    42    22    40    1
    43    22    41    1
    44    22    42    1
    45    23    43    1
