REMARK  Name = NuBBE_2152
REMARK  13 active torsions:
REMARK  status: ('A' for Active; 'I' for Inactive)
REMARK    1  A    between atoms: C_1  and  O_2
REMARK    2  A    between atoms: O_2  and  C_3
REMARK    3  A    between atoms: C_10  and  C_11
REMARK    4  A    between atoms: C_13  and  C_15
REMARK    5  A    between atoms: C_16  and  C_17
REMARK    6  A    between atoms: C_17  and  C_18
REMARK    7  A    between atoms: C_23  and  O_25
REMARK    8  A    between atoms: O_25  and  C_26
REMARK    9  A    between atoms: C_27  and  O_29
REMARK   10  A    between atoms: O_29  and  C_30
REMARK   11  A    between atoms: C_30  and  C_31
REMARK   12  A    between atoms: C_33  and  O_34
REMARK   13  A    between atoms: O_34  and  C_35
REMARK                            x       y       z     vdW  Elec       q    Type
REMARK                         _______ _______ _______ _____ _____    ______ ____
ROOT
ATOM      1  C   LIG A   1       0.397  -1.288  -1.003  0.00  0.00    +0.066 C 
ATOM      2  C   LIG A   1       1.839  -0.639  -0.832  0.00  0.00    +0.010 C 
ATOM      3  C   LIG A   1       2.805  -0.951  -1.970  0.00  0.00    +0.009 C 
ATOM      4  C   LIG A   1       1.581   0.865  -0.517  0.00  0.00    +0.041 C 
ATOM      5  C   LIG A   1       0.174   0.550  -0.146  0.00  0.00    +0.176 C 
ATOM      6  O   LIG A   1      -0.273   0.666   0.992  0.00  0.00    -0.294 OA
ATOM      7  C   LIG A   1       1.420   1.878  -1.685  0.00  0.00    +0.050 C 
ATOM      8  C   LIG A   1      -0.039   2.438  -1.837  0.00  0.00    +0.163 C 
ATOM      9  C   LIG A   1      -1.158   1.342  -1.581  0.00  0.00    +0.244 C 
ATOM     10  C   LIG A   1      -0.603  -0.120  -1.447  0.00  0.00    +0.173 C 
ENDROOT
BRANCH   1  18
ATOM     11  C   LIG A   1       0.315  -3.805   1.991  0.00  0.00    +0.166 A 
ATOM     12  C   LIG A   1      -1.045  -3.844   2.225  0.00  0.00    +0.207 A 
ATOM     13  O   LIG A   1      -1.712  -4.587   3.152  0.00  0.00    -0.449 OA
ATOM     14  C   LIG A   1      -3.073  -4.190   2.918  0.00  0.00    +0.467 C 
ATOM     15  O   LIG A   1      -3.216  -3.274   1.818  0.00  0.00    -0.453 OA
ATOM     16  C   LIG A   1      -1.913  -3.102   1.456  0.00  0.00    +0.170 A 
ATOM     17  C   LIG A   1      -1.487  -2.285   0.423  0.00  0.00    +0.053 A 
ATOM     18  C   LIG A   1      -0.111  -2.194   0.151  0.00  0.00    -0.034 A 
ATOM     19  C   LIG A   1       0.769  -2.995   0.929  0.00  0.00    +0.053 A 
BRANCH  11  21
ATOM     20  C   LIG A   1       0.995  -4.833   4.015  0.00  0.00    +0.277 C 
ATOM     21  O   LIG A   1       1.281  -4.509   2.656  0.00  0.00    -0.491 OA
ENDBRANCH  11  21
ENDBRANCH   1  18
BRANCH   8  22
ATOM     22  O   LIG A   1      -0.307   3.542  -0.963  0.00  0.00    -0.376 OA
ATOM     23  C   LIG A   1       0.381   4.744  -1.256  0.00  0.00    +0.194 C 
ENDBRANCH   8  22
BRANCH  10  24
ATOM     24  O   LIG A   1      -0.201  -0.241  -2.863  0.00  0.00    -0.365 OA
ATOM     25  C   LIG A   1      -1.276  -0.357  -3.809  0.00  0.00    +0.195 C 
ENDBRANCH  10  24
BRANCH   4  26
ATOM     26  C   LIG A   1       2.535   1.306   0.621  0.00  0.00    +0.041 C 
BRANCH  26  27
ATOM     27  C   LIG A   1       2.428   2.699   1.173  0.00  0.00    -0.034 C 
ATOM     28  C   LIG A   1       2.734   3.039   2.432  0.00  0.00    +0.004 C 
ENDBRANCH  26  27
ENDBRANCH   4  26
BRANCH   9  29
ATOM     29  O   LIG A   1      -2.089   1.706  -0.530  0.00  0.00    -0.456 OA
BRANCH  29  30
ATOM     30  C   LIG A   1      -3.105   2.558  -0.901  0.00  0.00    +0.304 C 
ATOM     31  C   LIG A   1      -3.573   3.273   0.329  0.00  0.00    +0.136 C 
ATOM     32  O   LIG A   1      -3.539   2.708  -2.005  0.00  0.00    -0.251 OA
ENDBRANCH  29  30
ENDBRANCH   9  29
TORSDOF 8
