REMARK  Name = NuBBE_328
REMARK  4 active torsions:
REMARK  status: ('A' for Active; 'I' for Inactive)
REMARK    1  A    between atoms: C_21  and  C_22
REMARK    2  A    between atoms: C_22  and  O_23
REMARK    3  A    between atoms: O_23  and  C_24
REMARK    4  A    between atoms: C_28  and  C_30
REMARK                            x       y       z     vdW  Elec       q    Type
REMARK                         _______ _______ _______ _____ _____    ______ ____
ROOT
ATOM      1  H   LIG A   1       3.327   3.263   1.559  0.00  0.00    +0.155 HD
ATOM      2  N   LIG A   1       2.905   2.348   1.511  0.00  0.00    -0.284 N 
ATOM      3  C   LIG A   1       3.573   1.167   1.229  0.00  0.00    +0.038 A 
ATOM      4  C   LIG A   1       4.923   0.999   1.004  0.00  0.00    +0.023 A 
ATOM      5  C   LIG A   1       5.374  -0.294   0.731  0.00  0.00    +0.002 A 
ATOM      6  C   LIG A   1       4.474  -1.373   0.683  0.00  0.00    +0.000 A 
ATOM      7  C   LIG A   1       3.111  -1.179   0.923  0.00  0.00    +0.006 A 
ATOM      8  C   LIG A   1       2.670   0.105   1.200  0.00  0.00    -0.010 A 
ATOM      9  C   LIG A   1       1.292   0.618   1.567  0.00  0.00    +0.090 C 
ATOM     10  C   LIG A   1       0.102   0.274   0.660  0.00  0.00    +0.077 C 
ATOM     11  C   LIG A   1       0.331   0.206  -0.846  0.00  0.00    +0.029 C 
ATOM     12  C   LIG A   1      -0.886  -0.403  -1.589  0.00  0.00    +0.038 C 
ATOM     13  C   LIG A   1      -1.212  -1.774  -0.938  0.00  0.00    +0.051 C 
ATOM     14  C   LIG A   1      -1.462  -1.608   0.582  0.00  0.00    +0.092 C 
ATOM     15  N   LIG A   1      -0.269  -1.046   1.198  0.00  0.00    -0.298 NA
ATOM     16  C   LIG A   1      -0.367  -0.826   2.638  0.00  0.00    +0.086 C 
ATOM     17  C   LIG A   1       0.854   0.050   2.939  0.00  0.00    +0.038 C 
ATOM     18  C   LIG A   1      -2.172   0.394  -1.670  0.00  0.00    +0.074 C 
ATOM     19  C   LIG A   1      -3.362  -0.231  -1.726  0.00  0.00    +0.198 C 
ATOM     20  O   LIG A   1      -3.583  -1.581  -1.673  0.00  0.00    -0.496 OA
ATOM     21  C   LIG A   1      -2.429  -2.430  -1.613  0.00  0.00    +0.174 C 
ATOM     22  C   LIG A   1      -2.126  -2.946  -3.019  0.00  0.00    +0.052 C 
ATOM     23  C   LIG A   1       1.539   2.137   1.667  0.00  0.00    +0.229 C 
ATOM     24  O   LIG A   1       0.712   3.006   1.893  0.00  0.00    -0.274 OA
ENDROOT
BRANCH  18  25
ATOM     25  C   LIG A   1      -2.154   1.880  -1.688  0.00  0.00    +0.338 C 
ATOM     26  O   LIG A   1      -1.207   2.547  -2.065  0.00  0.00    -0.245 OA
BRANCH  25  27
ATOM     27  O   LIG A   1      -3.306   2.367  -1.154  0.00  0.00    -0.465 OA
ATOM     28  C   LIG A   1      -3.350   3.784  -0.995  0.00  0.00    +0.280 C 
ENDBRANCH  25  27
ENDBRANCH  18  25
TORSDOF 2
