REMARK  Name = NuBBE_323
REMARK  7 active torsions:
REMARK  status: ('A' for Active; 'I' for Inactive)
REMARK    1  A    between atoms: C_2  and  O_3
REMARK    2  A    between atoms: C_2  and  C_11
REMARK    3  A    between atoms: O_3  and  C_4
REMARK    4  A    between atoms: C_4  and  C_5
REMARK    5  A    between atoms: C_6  and  S_7
REMARK    6  A    between atoms: S_7  and  C_8
REMARK    7  A    between atoms: C_12  and  C_13
REMARK                            x       y       z     vdW  Elec       q    Type
REMARK                         _______ _______ _______ _____ _____    ______ ____
ROOT
ATOM      1  O   LIG A   1      -1.321  -1.138   0.271  0.00  0.00    -0.246 OA
ATOM      2  C   LIG A   1      -0.104  -1.124   0.160  0.00  0.00    +0.332 C 
ENDROOT
BRANCH   2   3
ATOM      3  C   LIG A   1       0.630  -0.352  -0.847  0.00  0.00    +0.092 C 
ATOM      4  C   LIG A   1       0.010   0.056  -1.963  0.00  0.00    +0.015 C 
BRANCH   4   5
ATOM      5  C   LIG A   1       0.691   0.815  -3.018  0.00  0.00    -0.025 A 
ATOM      6  C   LIG A   1       2.054   0.630  -3.288  0.00  0.00    +0.008 A 
ATOM      7  C   LIG A   1       2.688   1.363  -4.290  0.00  0.00    +0.001 A 
ATOM      8  C   LIG A   1       1.961   2.277  -5.047  0.00  0.00    +0.000 A 
ATOM      9  C   LIG A   1       0.598   2.451  -4.808  0.00  0.00    +0.001 A 
ATOM     10  C   LIG A   1      -0.036   1.719  -3.801  0.00  0.00    +0.008 A 
ENDBRANCH   4   5
ENDBRANCH   2   3
BRANCH   2  11
ATOM     11  O   LIG A   1       0.785  -1.809   0.914  0.00  0.00    -0.457 OA
BRANCH  11  12
ATOM     12  C   LIG A   1       0.193  -2.642   1.913  0.00  0.00    +0.261 C 
BRANCH  12  13
ATOM     13  C   LIG A   1      -0.118  -1.804   3.110  0.00  0.00    +0.032 C 
ATOM     14  C   LIG A   1      -1.372  -1.670   3.566  0.00  0.00    +0.133 C 
BRANCH  14  15
ATOM     15  S   LIG A   1      -1.735  -0.596   4.875  0.00  0.00    -0.013 S 
ATOM     16  C   LIG A   1      -2.079   0.916   4.007  0.00  0.00    +0.199 C 
ATOM     17  O   LIG A   1      -2.972  -1.037   5.486  0.00  0.00    -0.170 OA
ATOM     18  O   LIG A   1      -0.550  -0.378   5.681  0.00  0.00    -0.170 OA
ENDBRANCH  14  15
ENDBRANCH  12  13
ENDBRANCH  11  12
ENDBRANCH   2  11
TORSDOF 6
