@<TRIPOS>MOLECULE
NuBBE_216
 30 34 0 0 0
SMALL
GASTEIGER

@<TRIPOS>ATOM
      1 O          -3.7082   -0.5421   -0.0005 O.2     1  LIG1       -0.2850
      2 C          -2.4816   -0.4616    0.0087 C.2     1  LIG1        0.2124
      3 C          -1.6178   -1.6744    0.0001 C.ar    1  LIG1        0.0317
      4 C          -0.1567   -1.6198    0.0037 C.ar    1  LIG1       -0.0027
      5 C           0.4166   -2.9039    0.0005 C.ar    1  LIG1       -0.0532
      6 C          -0.3841   -4.1016    0.0001 C.ar    1  LIG1       -0.0611
      7 C          -1.7781   -4.0812   -0.0008 C.ar    1  LIG1       -0.0610
      8 C          -2.3979   -2.8567   -0.0018 C.ar    1  LIG1       -0.0503
      9 C           0.5800   -0.2305    0.0147 C.ar    1  LIG1        0.0381
     10 C          -0.4499    0.8559    0.0217 C.ar    1  LIG1        0.0227
     11 C          -1.8529    0.8319    0.0147 C.ar    1  LIG1        0.1193
     12 N          -2.7270    1.9095   -0.0017 N.ar    1  LIG1       -0.2511
     13 C          -2.1546    3.1473   -0.0039 C.ar    1  LIG1        0.0290
     14 C          -0.8789    3.3276   -0.0031 C.ar    1  LIG1       -0.0357
     15 C          -0.0916    2.2216    0.0431 C.ar    1  LIG1       -0.0100
     16 C           1.1910    2.5635    0.0101 C.ar    1  LIG1       -0.0083
     17 C           2.1468    1.6370    0.0119 C.ar    1  LIG1        0.1674
     18 C           1.9721    0.2706   -0.0014 C.ar    1  LIG1        0.1746
     19 O           3.3077   -0.1606   -0.0540 O.3     1  LIG1       -0.4520
     20 C           4.1523    1.1163   -0.0220 C.3     1  LIG1        0.2333
     21 O           3.3435    2.2457   -0.0115 O.3     1  LIG1       -0.4526
     22 H           1.4933   -3.0426    0.0003 H       1  LIG1        0.0624
     23 H           0.0900   -5.0832    0.0027 H       1  LIG1        0.0618
     24 H          -2.3829   -4.9887   -0.0004 H       1  LIG1        0.0618
     25 H          -3.4907   -2.8134   -0.0021 H       1  LIG1        0.0625
     26 H          -2.8316    4.0160   -0.0020 H       1  LIG1        0.0830
     27 H          -0.3972    4.3014   -0.0015 H       1  LIG1        0.0639
     28 H           1.5227    3.5788   -0.0017 H       1  LIG1        0.0661
     29 H           4.7916    1.2808   -0.9050 H       1  LIG1        0.1166
     30 H           4.7740    1.2565    0.8814 H       1  LIG1        0.1166
@<TRIPOS>BOND
     1     1     2    2
     2     2     3    1
     3     3     4   ar
     4     4     5   ar
     5     5     6   ar
     6     6     7   ar
     7     7     8   ar
     8     3     8   ar
     9     4     9    1
    10     9    10   ar
    11    10    11   ar
    12     2    11    1
    13    11    12   ar
    14    12    13   ar
    15    13    14   ar
    16    10    15   ar
    17    14    15   ar
    18    15    16   ar
    19    16    17   ar
    20    17    18   ar
    21     9    18   ar
    22    18    19    1
    23    19    20    1
    24    20    21    1
    25    17    21    1
    26     5    22    1
    27     6    23    1
    28     7    24    1
    29     8    25    1
    30    13    26    1
    31    14    27    1
    32    16    28    1
    33    20    29    1
    34    20    30    1
