REMARK  Name = NuBBE_2296
REMARK  9 active torsions:
REMARK  status: ('A' for Active; 'I' for Inactive)
REMARK    1  A    between atoms: C_2  and  C_3
REMARK    2  A    between atoms: C_3  and  C_4
REMARK    3  A    between atoms: C_6  and  O_7
REMARK    4  A    between atoms: O_7  and  C_8
REMARK    5  A    between atoms: C_10  and  O_11
REMARK    6  A    between atoms: O_11  and  C_12
REMARK    7  A    between atoms: C_14  and  O_15
REMARK    8  A    between atoms: C_17  and  C_19
REMARK    9  A    between atoms: C_20  and  C_22
REMARK                            x       y       z     vdW  Elec       q    Type
REMARK                         _______ _______ _______ _____ _____    ______ ____
ROOT
ATOM      1  C   LIG A   1      -1.338   1.063  -1.110  0.00  0.00    +0.028 C 
ATOM      2  C   LIG A   1      -0.739   0.128  -2.163  0.00  0.00    +0.032 C 
ATOM      3  C   LIG A   1       0.581  -0.067  -2.321  0.00  0.00    +0.162 C 
ATOM      4  C   LIG A   1       1.529   0.667  -1.377  0.00  0.00    +0.232 C 
ATOM      5  C   LIG A   1       0.867   1.506  -0.246  0.00  0.00    +0.168 C 
ATOM      6  O   LIG A   1       2.736   0.564  -1.502  0.00  0.00    -0.286 OA
ATOM      7  C   LIG A   1      -0.349   2.220  -0.884  0.00  0.00    +0.165 C 
ATOM      8  C   LIG A   1      -1.273   0.298   0.257  0.00  0.00    +0.009 C 
ATOM      9  C   LIG A   1      -2.351   0.622   1.294  0.00  0.00    +0.009 C 
ATOM     10  C   LIG A   1       0.153   0.636   0.851  0.00  0.00    +0.065 C 
ENDROOT
BRANCH  10  11
ATOM     11  C   LIG A   1       0.858  -0.601   1.417  0.00  0.00    -0.037 A 
ATOM     12  C   LIG A   1       1.196  -0.664   2.787  0.00  0.00    +0.053 A 
ATOM     13  C   LIG A   1       1.786  -1.819   3.279  0.00  0.00    +0.167 A 
ATOM     14  O   LIG A   1       2.198  -2.030   4.561  0.00  0.00    -0.453 OA
ATOM     15  C   LIG A   1       2.771  -3.354   4.450  0.00  0.00    +0.466 C 
ATOM     16  O   LIG A   1       2.590  -3.946   3.150  0.00  0.00    -0.453 OA
ATOM     17  C   LIG A   1       2.026  -2.909   2.479  0.00  0.00    +0.166 A 
ATOM     18  C   LIG A   1       1.717  -2.896   1.144  0.00  0.00    +0.050 A 
ATOM     19  C   LIG A   1       1.141  -1.735   0.619  0.00  0.00    +0.008 A 
ENDBRANCH  10  11
BRANCH   3  20
ATOM     20  O   LIG A   1       1.164  -0.961  -3.201  0.00  0.00    -0.492 OA
ATOM     21  C   LIG A   1       0.417  -1.273  -4.373  0.00  0.00    +0.277 C 
ENDBRANCH   3  20
BRANCH   5  22
ATOM     22  O   LIG A   1       1.621   2.590   0.315  0.00  0.00    -0.365 OA
ATOM     23  C   LIG A   1       2.858   2.262   0.924  0.00  0.00    +0.195 C 
ENDBRANCH   5  22
BRANCH   7  24
ATOM     24  O   LIG A   1      -0.033   2.933  -2.082  0.00  0.00    -0.388 OA
ATOM     25  H   LIG A   1       0.762   3.470  -1.889  0.00  0.00    +0.210 HD
ENDBRANCH   7  24
BRANCH   1  26
ATOM     26  C   LIG A   1      -2.708   1.611  -1.588  0.00  0.00    +0.040 C 
BRANCH  26  28
ATOM     27  C   LIG A   1      -4.992   0.597  -1.212  0.00  0.00    +0.004 C 
ATOM     28  C   LIG A   1      -3.796   0.586  -1.813  0.00  0.00    -0.034 C 
ENDBRANCH  26  28
ENDBRANCH   1  26
TORSDOF 6
