REMARK  Name = NuBBE_74
REMARK  8 active torsions:
REMARK  status: ('A' for Active; 'I' for Inactive)
REMARK    1  A    between atoms: C_1  and  C_2
REMARK    2  A    between atoms: C_4  and  C_5
REMARK    3  A    between atoms: C_4  and  C_10
REMARK    4  A    between atoms: C_14  and  C_34
REMARK    5  A    between atoms: C_20  and  C_33
REMARK    6  A    between atoms: C_23  and  C_32
REMARK    7  A    between atoms: C_27  and  C_28
REMARK    8  A    between atoms: C_27  and  C_31
REMARK                            x       y       z     vdW  Elec       q    Type
REMARK                         _______ _______ _______ _____ _____    ______ ____
ROOT
ATOM      1  C   LIG A   1       0.562  -3.422   1.070  0.00  0.00    +0.012 C 
ATOM      2  C   LIG A   1       1.319  -2.553   0.004  0.00  0.00    -0.024 C 
ATOM      3  C   LIG A   1       0.517  -2.087  -1.257  0.00  0.00    +0.008 C 
ATOM      4  C   LIG A   1      -0.673  -3.015  -1.626  0.00  0.00    +0.027 C 
ATOM      5  C   LIG A   1      -1.293  -2.646  -2.998  0.00  0.00    +0.019 C 
ATOM      6  C   LIG A   1      -0.084  -4.448  -1.776  0.00  0.00    +0.139 C 
ATOM      7  C   LIG A   1       1.372  -4.757  -1.307  0.00  0.00    +0.075 C 
ATOM      8  C   LIG A   1       2.233  -3.624  -0.666  0.00  0.00    +0.015 C 
ATOM      9  O   LIG A   1      -0.757  -5.356  -2.247  0.00  0.00    -0.297 OA
ATOM     10  C   LIG A   1      -1.885  -2.957  -0.667  0.00  0.00    +0.019 C 
ATOM     11  C   LIG A   1       0.234  -0.610  -1.297  0.00  0.00    +0.005 C 
ATOM     12  C   LIG A   1       1.508   0.226  -1.228  0.00  0.00    +0.008 C 
ATOM     13  C   LIG A   1       2.312   0.131   0.085  0.00  0.00    -0.019 C 
ATOM     14  C   LIG A   1       2.109  -1.357   0.805  0.00  0.00    +0.006 C 
ATOM     15  C   LIG A   1       1.469  -1.141   2.258  0.00  0.00    +0.031 C 
ATOM     16  C   LIG A   1       0.275  -0.210   2.179  0.00  0.00    -0.026 C 
ATOM     17  C   LIG A   1       0.437   0.952   1.524  0.00  0.00    -0.063 C 
ATOM     18  C   LIG A   1       1.899   1.316   1.150  0.00  0.00    -0.005 C 
ATOM     19  C   LIG A   1       1.984   2.849   0.827  0.00  0.00    +0.012 C 
ATOM     20  C   LIG A   1       0.781   3.621   0.318  0.00  0.00    +0.008 C 
ATOM     21  C   LIG A   1      -0.584   3.247   0.946  0.00  0.00    -0.025 C 
ATOM     22  C   LIG A   1      -0.711   1.728   0.788  0.00  0.00    +0.022 C 
ATOM     23  C   LIG A   1      -2.195   1.265   0.854  0.00  0.00    +0.014 C 
ATOM     24  C   LIG A   1      -3.034   1.825  -0.347  0.00  0.00    -0.034 C 
ATOM     25  C   LIG A   1      -4.550   1.718  -0.064  0.00  0.00    +0.011 C 
ATOM     26  C   LIG A   1      -2.681   3.294  -0.695  0.00  0.00    +0.007 C 
ATOM     27  C   LIG A   1      -1.674   4.041   0.172  0.00  0.00    +0.008 C 
ATOM     28  C   LIG A   1      -2.829   0.981  -1.630  0.00  0.00    +0.011 C 
ATOM     29  C   LIG A   1      -0.689   3.630   2.438  0.00  0.00    +0.012 C 
ATOM     30  C   LIG A   1       2.983   1.270   2.327  0.00  0.00    +0.016 C 
ATOM     31  C   LIG A   1       3.795   0.325  -0.349  0.00  0.00    +0.012 C 
ENDROOT
TORSDOF 0
