@<TRIPOS>MOLECULE
NuBBE_1160
 64 70 0 0 0
SMALL
GASTEIGER

@<TRIPOS>ATOM
      1 O          -2.1495   -1.3197   -1.5389 O.2     1  LIG1       -0.2967
      2 C          -1.2783   -0.4564   -1.6325 C.2     1  LIG1        0.1427
      3 C           0.0674   -0.5572   -0.9043 C.3     1  LIG1        0.0622
      4 C           0.2736   -1.9684   -0.2529 C.3     1  LIG1        0.1283
      5 O           1.2003   -2.7651   -1.0285 O.3     1  LIG1       -0.3512
      6 C          -0.1229   -3.2778   -0.9396 C.3     1  LIG1        0.1861
      7 H          -0.7193   -3.2545   -1.8422 H       1  LIG1        0.0743
      8 C          -0.2243   -4.5453   -0.1740 C.2     1  LIG1        0.3398
      9 O           0.3558   -4.5940    1.0603 O.3     1  LIG1       -0.4539
     10 C           1.1161   -3.4846    1.6127 C.3     1  LIG1        0.1391
     11 H           0.9797   -3.6010    2.6985 H       1  LIG1        0.0793
     12 C           2.6008   -3.6665    1.4112 C.ar    1  LIG1        0.0310
     13 C           3.2552   -4.3159    0.3805 C.ar    1  LIG1        0.0984
     14 O           4.5994   -4.2916    0.5580 O.2     1  LIG1       -0.4706
     15 C           4.8311   -3.6511    1.7287 C.ar    1  LIG1        0.0921
     16 C           3.6442   -3.2606    2.3009 C.ar    1  LIG1       -0.0172
     17 C           0.4793   -2.0937    1.2438 C.3     1  LIG1        0.0422
     18 C           1.3569   -0.9196    1.7034 C.3     1  LIG1       -0.0408
     19 C           0.6653    0.4205    1.5145 C.3     1  LIG1       -0.0478
     20 C           0.1410    0.6885    0.0832 C.3     1  LIG1       -0.0146
     21 C          -1.1123    1.6848    0.0602 C.3     1  LIG1        0.0412
     22 C          -0.7164    3.1011    0.5531 C.3     1  LIG1        0.0788
     23 H           0.3508    3.1543    0.7949 H       1  LIG1        0.0608
     24 C          -1.4913    3.5999    1.7631 C.3     1  LIG1        0.0718
     25 C          -2.9676    3.3974    1.5699 C.2     1  LIG1        0.3096
     26 O          -3.3221    2.1961    1.0481 O.3     1  LIG1       -0.4639
     27 C          -2.3029    1.1901    0.9219 C.3     1  LIG1        0.1011
     28 O          -3.8052    4.2200    1.9190 O.2     1  LIG1       -0.2508
     29 O          -0.9146    4.0336   -0.5253 O.3     1  LIG1       -0.3692
     30 C          -1.0089    3.3278   -1.7728 C.3     1  LIG1        0.0682
     31 C          -1.6305    1.9803   -1.3764 C.3     1  LIG1        0.0057
     32 H          -2.7088    2.1798   -1.2843 H       1  LIG1        0.0340
     33 C          -1.5503    0.8327   -2.3746 C.3     1  LIG1        0.0126
     34 C           0.3892    3.3083   -2.3937 C.3     1  LIG1       -0.0358
     35 C          -1.9407    4.1240   -2.6919 C.3     1  LIG1       -0.0358
     36 C          -0.9050   -2.0619    1.9444 C.3     1  LIG1       -0.0531
     37 O          -0.8282   -5.5026   -0.6403 O.2     1  LIG1       -0.2478
     38 C           1.1864   -0.3654   -1.9808 C.3     1  LIG1       -0.0498
     39 H           2.9201   -4.8229   -0.5147 H       1  LIG1        0.1033
     40 H           5.8695   -3.5645    2.0168 H       1  LIG1        0.1029
     41 H           3.5429   -2.7464    3.2466 H       1  LIG1        0.0653
     42 H           2.2994   -0.8995    1.1418 H       1  LIG1        0.0273
     43 H           1.6162   -1.0300    2.7635 H       1  LIG1        0.0273
     44 H           1.3804    1.2110    1.7805 H       1  LIG1        0.0269
     45 H          -0.1184    0.5081    2.2677 H       1  LIG1        0.0269
     46 H           0.9558    1.2969   -0.3302 H       1  LIG1        0.0318
     47 H          -1.3158    4.6731    1.9002 H       1  LIG1        0.0403
     48 H          -1.1882    3.0796    2.6776 H       1  LIG1        0.0403
     49 H          -2.7843    0.3191    0.4693 H       1  LIG1        0.0704
     50 H          -2.0277    0.9064    1.9392 H       1  LIG1        0.0704
     51 H          -0.8040    0.9739   -3.1569 H       1  LIG1        0.0346
     52 H          -2.5058    0.7301   -2.9041 H       1  LIG1        0.0346
     53 H           0.4092    2.7969   -3.3598 H       1  LIG1        0.0257
     54 H           1.1316    2.8570   -1.7333 H       1  LIG1        0.0257
     55 H           0.7438    4.3338   -2.5573 H       1  LIG1        0.0257
     56 H          -2.9219    4.2729   -2.2266 H       1  LIG1        0.0257
     57 H          -2.0825    3.6204   -3.6534 H       1  LIG1        0.0257
     58 H          -1.5418    5.1277   -2.8794 H       1  LIG1        0.0257
     59 H          -0.7938   -1.9558    3.0294 H       1  LIG1        0.0237
     60 H          -1.4831   -2.9742    1.7624 H       1  LIG1        0.0237
     61 H          -1.5303   -1.2484    1.5837 H       1  LIG1        0.0237
     62 H           1.0656   -1.0694   -2.8130 H       1  LIG1        0.0240
     63 H           2.1809   -0.5144   -1.5433 H       1  LIG1        0.0240
     64 H           1.1890    0.6319   -2.4243 H       1  LIG1        0.0240
@<TRIPOS>BOND
     1     1     2    2
     2     2     3    1
     3     3     4    1
     4     4     5    1
     5     5     6    1
     6     6     7    1
     7     4     6    1
     8     6     8    1
     9     8     9    1
    10     9    10    1
    11    12    13   ar
    12    13    14   ar
    13    14    15   ar
    14    15    16   ar
    15    12    16   ar
    16    10    17    1
    17    17    18    1
    18    18    19    1
    19    19    20    1
    20    20    21    1
    21    21    22    1
    22    22    23    1
    23    22    24    1
    24    24    25    1
    25    25    26    1
    26    26    27    1
    27    21    27    1
    28    25    28    2
    29    22    29    1
    30    29    30    1
    31    30    31    1
    32    31    32    1
    33    21    31    1
    34    31    33    1
    35     2    33    1
    36    30    34    1
    37    30    35    1
    38     4    17    1
    39    17    36    1
    40     8    37    2
    41    20     3    1
    42     3    38    1
    43    10    12    1
    44    10    11    1
    45    13    39    1
    46    15    40    1
    47    16    41    1
    48    18    42    1
    49    18    43    1
    50    19    44    1
    51    19    45    1
    52    20    46    1
    53    24    47    1
    54    24    48    1
    55    27    49    1
    56    27    50    1
    57    33    51    1
    58    33    52    1
    59    34    53    1
    60    34    54    1
    61    34    55    1
    62    35    56    1
    63    35    57    1
    64    35    58    1
    65    36    59    1
    66    36    60    1
    67    36    61    1
    68    38    62    1
    69    38    63    1
    70    38    64    1
