REMARK  Name = NuBBE_1574
REMARK  7 active torsions:
REMARK  status: ('A' for Active; 'I' for Inactive)
REMARK    1  A    between atoms: C_1  and  C_2
REMARK    2  A    between atoms: C_4  and  C_19
REMARK    3  A    between atoms: C_9  and  C_11
REMARK    4  A    between atoms: C_21  and  O_22
REMARK    5  A    between atoms: O_22  and  C_23
REMARK    6  A    between atoms: C_24  and  O_27
REMARK    7  A    between atoms: O_27  and  C_28
REMARK                            x       y       z     vdW  Elec       q    Type
REMARK                         _______ _______ _______ _____ _____    ______ ____
ROOT
ATOM      1  C   LIG A   1      -0.611   1.049   3.697  0.00  0.00    +0.009 C 
ATOM      2  C   LIG A   1      -0.715   1.174   2.163  0.00  0.00    +0.001 C 
ATOM      3  C   LIG A   1      -0.187  -0.126   1.490  0.00  0.00    +0.053 C 
ATOM      4  C   LIG A   1       1.319  -0.149   1.277  0.00  0.00    -0.033 A 
ATOM      5  C   LIG A   1       2.109   1.028   1.365  0.00  0.00    -0.040 A 
ATOM      6  C   LIG A   1       1.529   2.350   1.803  0.00  0.00    +0.039 C 
ATOM      7  C   LIG A   1       0.002   2.465   1.701  0.00  0.00    -0.006 C 
ATOM      8  C   LIG A   1      -0.423   2.938   0.308  0.00  0.00    +0.008 C 
ATOM      9  C   LIG A   1       3.492   0.956   1.117  0.00  0.00    +0.053 A 
ATOM     10  C   LIG A   1       4.048  -0.261   0.793  0.00  0.00    +0.167 A 
ATOM     11  C   LIG A   1       3.286  -1.403   0.726  0.00  0.00    +0.167 A 
ATOM     12  C   LIG A   1       1.936  -1.379   0.963  0.00  0.00    +0.054 A 
ATOM     13  O   LIG A   1       4.020  -2.498   0.403  0.00  0.00    -0.453 OA
ATOM     14  C   LIG A   1       5.334  -1.913   0.256  0.00  0.00    +0.466 C 
ATOM     15  O   LIG A   1       5.358  -0.493   0.517  0.00  0.00    -0.453 OA
ENDROOT
BRANCH   3  16
ATOM     16  C   LIG A   1      -0.997  -0.501   0.243  0.00  0.00    -0.036 A 
ATOM     17  C   LIG A   1      -0.604  -0.146  -1.055  0.00  0.00    +0.053 A 
ATOM     18  C   LIG A   1      -1.362  -0.496  -2.186  0.00  0.00    +0.162 A 
ATOM     19  C   LIG A   1      -2.554  -1.218  -2.022  0.00  0.00    +0.162 A 
ATOM     20  C   LIG A   1      -2.941  -1.601  -0.732  0.00  0.00    +0.050 A 
ATOM     21  C   LIG A   1      -2.176  -1.242   0.385  0.00  0.00    +0.008 A 
BRANCH  18  22
ATOM     22  O   LIG A   1      -0.815  -0.028  -3.354  0.00  0.00    -0.491 OA
ATOM     23  C   LIG A   1      -1.235  -0.636  -4.568  0.00  0.00    +0.277 C 
ENDBRANCH  18  22
BRANCH  19  24
ATOM     24  O   LIG A   1      -3.260  -1.573  -3.139  0.00  0.00    -0.491 OA
ATOM     25  C   LIG A   1      -4.660  -1.761  -3.005  0.00  0.00    +0.277 C 
ENDBRANCH  19  24
ENDBRANCH   3  16
TORSDOF 3
