REMARK  Name = NuBBE_1766
REMARK  3 active torsions:
REMARK  status: ('A' for Active; 'I' for Inactive)
REMARK    1  A    between atoms: O_1  and  C_2
REMARK    2  A    between atoms: O_1  and  C_3
REMARK    3  A    between atoms: C_22  and  O_24
REMARK                            x       y       z     vdW  Elec       q    Type
REMARK                         _______ _______ _______ _____ _____    ______ ____
ROOT
ATOM      1  C   LIG A   1      -1.509  -0.848  -1.397  0.00  0.00    +0.184 C 
ATOM      2  C   LIG A   1      -1.174  -0.108  -0.096  0.00  0.00    +0.197 C 
ATOM      3  C   LIG A   1       0.176  -0.606   0.440  0.00  0.00    +0.235 C 
ATOM      4  C   LIG A   1       0.567   0.203   1.661  0.00  0.00    +0.004 A 
ATOM      5  C   LIG A   1       0.023   1.492   1.836  0.00  0.00    +0.030 A 
ATOM      6  C   LIG A   1      -0.994   2.055   0.882  0.00  0.00    +0.200 C 
ATOM      7  O   LIG A   1      -1.128   1.312  -0.337  0.00  0.00    -0.365 OA
ATOM      8  C   LIG A   1       0.430   2.207   2.949  0.00  0.00    +0.172 A 
ATOM      9  C   LIG A   1       1.342   1.701   3.847  0.00  0.00    +0.167 A 
ATOM     10  C   LIG A   1       1.901   0.450   3.693  0.00  0.00    +0.050 A 
ATOM     11  C   LIG A   1       1.510  -0.303   2.584  0.00  0.00    +0.011 A 
ATOM     12  O   LIG A   1       1.607   2.563   4.864  0.00  0.00    -0.453 OA
ATOM     13  C   LIG A   1       0.779   3.683   4.494  0.00  0.00    +0.466 C 
ATOM     14  O   LIG A   1       0.004   3.452   3.299  0.00  0.00    -0.452 OA
ATOM     15  O   LIG A   1       1.253  -0.440  -0.490  0.00  0.00    -0.481 OA
ATOM     16  C   LIG A   1       0.994  -0.875  -1.758  0.00  0.00    +0.131 A 
ATOM     17  C   LIG A   1      -0.294  -1.093  -2.252  0.00  0.00    +0.026 A 
ATOM     18  C   LIG A   1      -0.446  -1.543  -3.575  0.00  0.00    +0.013 A 
ATOM     19  C   LIG A   1       0.668  -1.748  -4.392  0.00  0.00    +0.046 A 
ATOM     20  C   LIG A   1       1.938  -1.501  -3.884  0.00  0.00    +0.120 A 
ATOM     21  C   LIG A   1       2.108  -1.064  -2.577  0.00  0.00    +0.091 A 
ENDROOT
BRANCH   1  22
ATOM     22  O   LIG A   1      -2.062  -2.137  -1.085  0.00  0.00    -0.372 OA
ATOM     23  C   LIG A   1      -3.481  -2.155  -1.179  0.00  0.00    +0.195 C 
ENDBRANCH   1  22
BRANCH  20  24
ATOM     24  O   LIG A   1       3.054  -1.681  -4.647  0.00  0.00    -0.507 OA
ATOM     25  H   LIG A   1       2.781  -1.977  -5.531  0.00  0.00    +0.292 HD
ENDBRANCH  20  24
TORSDOF 2
