@<TRIPOS>MOLECULE
NuBBE_2386
 39 41 0 0 0
SMALL
GASTEIGER

@<TRIPOS>ATOM
      1 C           0.1134   -2.0595   -0.0779 C.3     1  LIG1       -0.0238
      2 C          -0.3297   -0.6154    0.1819 C.3     1  LIG1       -0.0450
      3 C          -1.8352   -0.5602    0.4785 C.3     1  LIG1       -0.0274
      4 C          -2.3276    0.8449    0.7228 C.ar    1  LIG1       -0.0471
      5 C          -2.7606    1.6362   -0.3474 C.ar    1  LIG1       -0.0551
      6 C          -3.2143    2.9417   -0.1336 C.ar    1  LIG1       -0.0197
      7 C          -3.2365    3.4775    1.1536 C.ar    1  LIG1        0.1201
      8 C          -2.8022    2.6926    2.2241 C.ar    1  LIG1       -0.0197
      9 C          -2.3493    1.3862    2.0132 C.ar    1  LIG1       -0.0551
     10 O          -3.6511    4.7385    1.4874 O.3     1  LIG1       -0.4951
     11 C          -4.1152    5.5554    0.4187 C.3     1  LIG1        0.0788
     12 C           1.5942   -2.2254   -0.3425 C.ar    1  LIG1       -0.0022
     13 C           2.0884   -2.1347   -1.6583 C.ar    1  LIG1       -0.0095
     14 C           3.4347   -2.3656   -1.8705 C.ar    1  LIG1        0.1667
     15 C           4.2922   -2.6630   -0.8421 C.ar    1  LIG1        0.1697
     16 C           3.8581   -2.7423    0.4650 C.ar    1  LIG1        0.0256
     17 C           2.4980   -2.5202    0.7016 C.ar    1  LIG1        0.1237
     18 O           2.0134   -2.6126    1.9795 O.3     1  LIG1       -0.5064
     19 O           5.5669   -2.8725   -1.2664 O.3     1  LIG1       -0.4525
     20 C           5.4053   -2.7131   -2.6911 C.3     1  LIG1        0.2332
     21 O           4.0651   -2.3507   -3.0791 O.3     1  LIG1       -0.4526
     22 H          -0.4420   -2.4649   -0.9332 H       1  LIG1        0.0314
     23 H          -0.1742   -2.6892    0.7734 H       1  LIG1        0.0314
     24 H          -0.0995    0.0096   -0.6904 H       1  LIG1        0.0272
     25 H           0.2301   -0.1926    1.0255 H       1  LIG1        0.0272
     26 H          -2.0753   -1.1832    1.3499 H       1  LIG1        0.0313
     27 H          -2.3986   -0.9929   -0.3589 H       1  LIG1        0.0313
     28 H          -2.7502    1.2408   -1.3604 H       1  LIG1        0.0621
     29 H          -3.5407    3.5112   -0.9967 H       1  LIG1        0.0654
     30 H          -2.8156    3.1014    3.2316 H       1  LIG1        0.0654
     31 H          -2.0162    0.7965    2.8642 H       1  LIG1        0.0621
     32 H          -4.3846    6.5322    0.8310 H       1  LIG1        0.0660
     33 H          -5.0130    5.1268   -0.0397 H       1  LIG1        0.0660
     34 H          -3.3295    5.7167   -0.3272 H       1  LIG1        0.0660
     35 H           1.4353   -1.9184   -2.4951 H       1  LIG1        0.0659
     36 H           4.5566   -2.9829    1.2557 H       1  LIG1        0.0692
     37 H           2.7428   -2.8514    2.5736 H       1  LIG1        0.2921
     38 H           5.6689   -3.6600   -3.1805 H       1  LIG1        0.1166
     39 H           6.0978   -1.9378   -3.0399 H       1  LIG1        0.1166
@<TRIPOS>BOND
     1     1     2    1
     2     2     3    1
     3     3     4    1
     4     4     5   ar
     5     5     6   ar
     6     6     7   ar
     7     7     8   ar
     8     8     9   ar
     9     4     9   ar
    10     7    10    1
    11    10    11    1
    12     1    12    1
    13    12    13   ar
    14    13    14   ar
    15    14    15   ar
    16    15    16   ar
    17    16    17   ar
    18    12    17   ar
    19    17    18    1
    20    15    19    1
    21    19    20    1
    22    20    21    1
    23    14    21    1
    24     1    22    1
    25     1    23    1
    26     2    24    1
    27     2    25    1
    28     3    26    1
    29     3    27    1
    30     5    28    1
    31     6    29    1
    32     8    30    1
    33     9    31    1
    34    11    32    1
    35    11    33    1
    36    11    34    1
    37    13    35    1
    38    16    36    1
    39    18    37    1
    40    20    38    1
    41    20    39    1
