@<TRIPOS>MOLECULE
NuBBE_2201
 58 59 0 0 0
SMALL
GASTEIGER

@<TRIPOS>ATOM
      1 C           0.0368    1.3795    2.0411 C.3     1  LIG1       -0.0586
      2 C          -0.5328    0.6767    0.7785 C.3     1  LIG1       -0.0188
      3 C           0.6616    0.5791   -0.2948 C.3     1  LIG1        0.0232
      4 H           1.5351    0.1753    0.2238 H       1  LIG1        0.0383
      5 C           1.1838    1.9327   -0.8158 C.2     1  LIG1        0.1377
      6 C           2.2980    1.8831   -1.8224 C.3     1  LIG1        0.0149
      7 C           1.9151    1.0482   -3.0473 C.3     1  LIG1       -0.0076
      8 C           3.0914    0.9019   -4.0126 C.2     1  LIG1       -0.0848
      9 C           4.3303    1.3942   -3.8545 C.2     1  LIG1       -0.1021
     10 C           0.7422    1.7160   -3.8012 C.3     1  LIG1       -0.0557
     11 C           1.5015   -0.3561   -2.5576 C.3     1  LIG1       -0.0431
     12 C           0.3697   -0.3300   -1.5190 C.3     1  LIG1       -0.0422
     13 O           0.8371    3.0332   -0.3846 O.2     1  LIG1       -0.2971
     14 C          -1.1306   -0.7851    1.1826 C.3     1  LIG1       -0.0198
     15 C          -0.3499   -1.5587    2.3147 C.3     1  LIG1        0.0487
     16 C           1.0510   -2.0581    2.0028 C.2     1  LIG1        0.3071
     17 O           1.5860   -2.7107    3.0707 O.3     1  LIG1       -0.4679
     18 C           2.8989   -3.2360    2.8168 C.3     1  LIG1        0.0817
     19 O           1.6204   -1.9410    0.9248 O.2     1  LIG1       -0.2509
     20 H          -1.0128   -1.4049    0.2919 H       1  LIG1        0.0317
     21 C          -2.7114   -0.8600    1.4585 C.3     1  LIG1       -0.0310
     22 C          -3.0805   -0.7213    2.9544 C.3     1  LIG1       -0.0595
     23 C          -3.2575   -2.2343    0.9806 C.3     1  LIG1       -0.0595
     24 C          -3.5168    0.1909    0.6701 C.3     1  LIG1       -0.0476
     25 C          -2.9623    1.5784    0.8595 C.3     1  LIG1       -0.0520
     26 C          -1.6132    1.6337    0.1850 C.3     1  LIG1       -0.0467
     27 H          -0.7210    1.4829    2.8216 H       1  LIG1        0.0235
     28 H           0.3913    2.3919    1.8249 H       1  LIG1        0.0235
     29 H           0.8965    0.8438    2.4543 H       1  LIG1        0.0235
     30 H           3.1689    1.4688   -1.2987 H       1  LIG1        0.0350
     31 H           2.5432    2.9125   -2.1155 H       1  LIG1        0.0350
     32 H           2.8951    0.3298   -4.9198 H       1  LIG1        0.0572
     33 H           4.6308    1.9745   -2.9880 H       1  LIG1        0.0532
     34 H           5.0988    1.2237   -4.6021 H       1  LIG1        0.0532
     35 H           1.0180    2.7104   -4.1705 H       1  LIG1        0.0238
     36 H          -0.1394    1.8500   -3.1648 H       1  LIG1        0.0238
     37 H           0.4240    1.1149   -4.6614 H       1  LIG1        0.0238
     38 H           2.3689   -0.8619   -2.1117 H       1  LIG1        0.0274
     39 H           1.1897   -0.9800   -3.4060 H       1  LIG1        0.0274
     40 H           0.2343   -1.3708   -1.2113 H       1  LIG1        0.0272
     41 H          -0.5645   -0.0362   -2.0087 H       1  LIG1        0.0272
     42 H          -0.3081   -0.9629    3.2336 H       1  LIG1        0.0381
     43 H          -0.8980   -2.4792    2.5491 H       1  LIG1        0.0381
     44 H           3.6091   -2.4158    2.6697 H       1  LIG1        0.0661
     45 H           2.8891   -3.8955    1.9423 H       1  LIG1        0.0661
     46 H           3.2248   -3.8236    3.6802 H       1  LIG1        0.0661
     47 H          -2.6487    0.1769    3.4026 H       1  LIG1        0.0235
     48 H          -2.7536   -1.5851    3.5418 H       1  LIG1        0.0235
     49 H          -4.1689   -0.6608    3.0815 H       1  LIG1        0.0235
     50 H          -2.7716   -3.0745    1.4835 H       1  LIG1        0.0235
     51 H          -3.1110   -2.3616   -0.0991 H       1  LIG1        0.0235
     52 H          -4.3355   -2.3156    1.1691 H       1  LIG1        0.0235
     53 H          -4.5701    0.1832    0.9779 H       1  LIG1        0.0271
     54 H          -3.5164   -0.0530   -0.4012 H       1  LIG1        0.0271
     55 H          -2.8914    1.8570    1.9154 H       1  LIG1        0.0266
     56 H          -3.6298    2.3107    0.3908 H       1  LIG1        0.0266
     57 H          -1.2943    2.6779    0.2596 H       1  LIG1        0.0271
     58 H          -1.7510    1.4408   -0.8851 H       1  LIG1        0.0271
@<TRIPOS>BOND
     1     1     2    1
     2     3     5    1
     3     5     6    1
     4     6     7    1
     5     7     8    1
     6     8     9    2
     7     7    10    1
     8     7    11    1
     9    11    12    1
    10     3    12    1
    11     5    13    2
    12     2    14    1
    13    15    16    1
    14    16    17    1
    15    17    18    1
    16    16    19    2
    17    14    21    1
    18    21    22    1
    19    21    23    1
    20    21    24    1
    21    24    25    1
    22    25    26    1
    23     2    26    1
    24    14    20    1
    25    14    15    1
    26     3     4    1
    27     3     2    1
    28     1    27    1
    29     1    28    1
    30     1    29    1
    31     6    30    1
    32     6    31    1
    33     8    32    1
    34     9    33    1
    35     9    34    1
    36    10    35    1
    37    10    36    1
    38    10    37    1
    39    11    38    1
    40    11    39    1
    41    12    40    1
    42    12    41    1
    43    15    42    1
    44    15    43    1
    45    18    44    1
    46    18    45    1
    47    18    46    1
    48    22    47    1
    49    22    48    1
    50    22    49    1
    51    23    50    1
    52    23    51    1
    53    23    52    1
    54    24    53    1
    55    24    54    1
    56    25    55    1
    57    25    56    1
    58    26    57    1
    59    26    58    1
