REMARK  Name = NuBBE_1983
REMARK  10 active torsions:
REMARK  status: ('A' for Active; 'I' for Inactive)
REMARK    1  A    between atoms: C_1  and  C_2
REMARK    2  A    between atoms: C_1  and  C_13
REMARK    3  A    between atoms: C_2  and  C_3
REMARK    4  A    between atoms: C_3  and  C_4
REMARK    5  A    between atoms: C_6  and  O_7
REMARK    6  A    between atoms: O_7  and  C_8
REMARK    7  A    between atoms: C_10  and  O_12
REMARK    8  A    between atoms: C_15  and  O_16
REMARK    9  A    between atoms: C_17  and  O_20
REMARK   10  A    between atoms: O_20  and  C_21
REMARK                            x       y       z     vdW  Elec       q    Type
REMARK                         _______ _______ _______ _____ _____    ______ ____
ROOT
ATOM      1  C   LIG A   1       1.399  -0.348   1.563  0.00  0.00    +0.009 C 
ENDROOT
BRANCH   1   2
ATOM      2  C   LIG A   1       1.481  -1.876   1.458  0.00  0.00    +0.035 C 
BRANCH   2   3
ATOM      3  C   LIG A   1       0.865  -2.420   0.193  0.00  0.00    -0.044 A 
ATOM      4  C   LIG A   1       1.629  -2.528  -0.975  0.00  0.00    +0.052 A 
ATOM      5  C   LIG A   1       1.050  -2.983  -2.168  0.00  0.00    +0.159 A 
ATOM      6  C   LIG A   1      -0.306  -3.322  -2.216  0.00  0.00    +0.161 A 
ATOM      7  C   LIG A   1      -1.062  -3.216  -1.044  0.00  0.00    +0.049 A 
ATOM      8  C   LIG A   1      -0.486  -2.779   0.150  0.00  0.00    +0.007 A 
BRANCH   5   9
ATOM      9  O   LIG A   1       1.852  -3.076  -3.273  0.00  0.00    -0.503 OA
ATOM     10  H   LIG A   1       2.763  -2.852  -3.025  0.00  0.00    +0.292 HD
ENDBRANCH   5   9
BRANCH   6  11
ATOM     11  O   LIG A   1      -1.039  -3.759  -3.285  0.00  0.00    -0.491 OA
ATOM     12  C   LIG A   1      -0.379  -3.905  -4.533  0.00  0.00    +0.277 C 
ENDBRANCH   6  11
ENDBRANCH   2   3
ENDBRANCH   1   2
BRANCH   1  13
ATOM     13  C   LIG A   1      -0.041   0.180   1.625  0.00  0.00    +0.035 C 
BRANCH  13  14
ATOM     14  C   LIG A   1      -0.117   1.683   1.739  0.00  0.00    -0.041 A 
ATOM     15  C   LIG A   1      -0.766   2.437   0.747  0.00  0.00    +0.049 A 
ATOM     16  C   LIG A   1      -0.865   3.826   0.863  0.00  0.00    +0.124 A 
ATOM     17  C   LIG A   1      -0.289   4.472   1.958  0.00  0.00    +0.091 A 
ATOM     18  C   LIG A   1       0.354   3.724   2.939  0.00  0.00    +0.121 A 
ATOM     19  C   LIG A   1       0.438   2.342   2.841  0.00  0.00    +0.049 A 
BRANCH  16  20
ATOM     20  O   LIG A   1      -1.454   4.650  -0.058  0.00  0.00    -0.495 OA
ATOM     21  C   LIG A   1      -2.561   4.092  -0.761  0.00  0.00    +0.277 C 
ENDBRANCH  16  20
BRANCH  18  22
ATOM     22  O   LIG A   1       0.921   4.317   4.027  0.00  0.00    -0.507 OA
ATOM     23  H   LIG A   1       0.796   5.276   3.954  0.00  0.00    +0.292 HD
ENDBRANCH  18  22
ENDBRANCH  13  14
ENDBRANCH   1  13
TORSDOF 8
