@<TRIPOS>MOLECULE
NuBBE_1698
 104 108 0 0 0
SMALL
GASTEIGER

@<TRIPOS>ATOM
      1 C          -1.7549   -0.8845    0.5635 C.3     1  LIG1        0.1080
      2 O          -3.0000   -1.6318    0.4406 O.3     1  LIG1       -0.4639
      3 C          -3.5007   -2.2724    1.5410 C.2     1  LIG1        0.3040
      4 O          -2.8892   -2.5211    2.5707 O.2     1  LIG1       -0.2512
      5 C          -4.9497   -2.6049    1.3316 C.3     1  LIG1        0.0332
      6 C          -0.5652   -1.4454   -0.3563 C.3     1  LIG1        0.1207
      7 C           0.8642   -0.5626   -0.4286 C.3     1  LIG1        0.1549
      8 C           2.0629   -1.4599    0.0300 C.3     1  LIG1        0.1446
      9 O           3.3638   -0.9453   -0.2882 O.3     1  LIG1       -0.4580
     10 C           4.2036   -1.7757   -0.9794 C.2     1  LIG1        0.3043
     11 O           4.0126   -2.9563   -1.2326 O.2     1  LIG1       -0.2512
     12 C           5.3722   -1.0059   -1.5022 C.3     1  LIG1        0.0332
     13 C           1.7910   -1.4425    1.5503 C.3     1  LIG1        0.0715
     14 C           0.5780   -2.3911    1.7573 C.3     1  LIG1        0.1496
     15 C          -0.1795   -2.7992    0.3858 C.3     1  LIG1        0.1553
     16 O          -1.2658   -3.6763    0.7623 O.3     1  LIG1       -0.4569
     17 C          -0.9634   -5.0052    0.8307 C.2     1  LIG1        0.3043
     18 O          -0.1442   -5.5663    0.1195 O.2     1  LIG1       -0.2512
     19 C          -1.6622   -5.6775    1.9843 C.3     1  LIG1        0.0332
     20 O           0.9110   -3.5667    2.5534 O.3     1  LIG1       -0.4573
     21 C           1.7165   -4.5039    2.0084 C.2     1  LIG1        0.3043
     22 O           2.4470   -4.2982    1.0405 O.2     1  LIG1       -0.2512
     23 C           1.5013   -5.8549    2.6252 C.3     1  LIG1        0.0332
     24 C           1.5439    0.0903    1.7505 C.3     1  LIG1        0.1114
     25 O           0.7805    0.4546    0.5747 O.3     1  LIG1       -0.3557
     26 C           2.9148    0.8466    1.7727 C.3     1  LIG1       -0.0321
     27 C           0.7171    0.7591    2.8753 C.3     1  LIG1        0.1219
     28 O           0.7118    2.1766    2.4676 O.3     1  LIG1       -0.4582
     29 C           0.2459    3.1338    3.2982 C.2     1  LIG1        0.3410
     30 O          -0.2208    2.9728    4.3780 O.2     1  LIG1       -0.2449
     31 C           0.6899    4.4464    2.7298 C.ar    1  LIG1        0.0805
     32 C           0.3213    5.0355    1.5136 C.ar    1  LIG1        0.0588
     33 C          -0.6767    4.5520    0.4511 C.3     1  LIG1        0.0119
     34 C           0.0468    4.3368   -0.9239 C.3     1  LIG1        0.0616
     35 C          -0.5169    3.2685   -1.8665 C.2     1  LIG1        0.3110
     36 O          -0.9025    3.4620   -3.0103 O.2     1  LIG1       -0.2505
     37 O          -0.3194    2.0338   -1.3418 O.3     1  LIG1       -0.4542
     38 C          -0.1383    0.9120   -2.2531 C.3     1  LIG1        0.1742
     39 C           1.1466    0.1829   -1.7906 C.3     1  LIG1        0.1367
     40 C           2.2695    1.2564   -1.7346 C.3     1  LIG1       -0.0295
     41 O           1.5633   -0.7704   -2.7754 O.3     1  LIG1       -0.3820
     42 C          -1.4096    0.0271   -2.2454 C.3     1  LIG1        0.1799
     43 C          -1.0961   -1.4827   -1.8733 C.3     1  LIG1        0.1584
     44 O          -2.1904   -2.4130   -2.0109 O.3     1  LIG1       -0.4567
     45 C          -2.4247   -2.8826   -3.2763 C.2     1  LIG1        0.3043
     46 O          -2.2580   -2.2589   -4.3115 O.2     1  LIG1       -0.2512
     47 C          -2.8393   -4.3267   -3.2370 C.3     1  LIG1        0.0332
     48 O          -2.1366    0.3321   -3.4542 O.3     1  LIG1       -0.4539
     49 C          -3.0675    1.3320   -3.2942 C.2     1  LIG1        0.3044
     50 O          -3.5267    1.7094   -2.2198 O.2     1  LIG1       -0.2512
     51 C          -3.4626    1.9602   -4.5917 C.3     1  LIG1        0.0332
     52 C           0.1505    5.6431   -1.7426 C.3     1  LIG1       -0.0517
     53 C          -1.6363    3.4422    0.8735 C.3     1  LIG1       -0.0562
     54 N           0.8566    6.2493    1.1634 N.ar    1  LIG1       -0.2588
     55 C           1.7508    6.8598    1.9679 C.ar    1  LIG1        0.0279
     56 C           2.1638    6.3350    3.1664 C.ar    1  LIG1       -0.0428
     57 C           1.6106    5.1175    3.5586 C.ar    1  LIG1       -0.0446
     58 H          -1.4920   -0.8219    1.6134 H       1  LIG1        0.0706
     59 H          -2.0341    0.1415    0.3353 H       1  LIG1        0.0706
     60 H          -5.4292   -1.7773    0.8020 H       1  LIG1        0.0342
     61 H          -5.4428   -2.6941    2.3056 H       1  LIG1        0.0342
     62 H          -5.0694   -3.5357    0.7735 H       1  LIG1        0.0342
     63 H           2.0056   -2.4355   -0.4339 H       1  LIG1        0.0769
     64 H           5.7172   -0.2814   -0.7611 H       1  LIG1        0.0342
     65 H           5.0789   -0.4986   -2.4249 H       1  LIG1        0.0342
     66 H           6.1917   -1.6974   -1.7157 H       1  LIG1        0.0342
     67 H           2.6502   -1.7646    2.1468 H       1  LIG1        0.0404
     68 H          -0.1268   -1.8925    2.4254 H       1  LIG1        0.0777
     69 H           0.4507   -3.3816   -0.2857 H       1  LIG1        0.0781
     70 H          -2.7204   -5.7835    1.7640 H       1  LIG1        0.0342
     71 H          -1.5004   -5.1197    2.9138 H       1  LIG1        0.0342
     72 H          -1.2398   -6.6775    2.1479 H       1  LIG1        0.0342
     73 H           2.4564   -6.3267    2.8401 H       1  LIG1        0.0342
     74 H           0.9662   -6.5080    1.9327 H       1  LIG1        0.0342
     75 H           0.9011   -5.7793    3.5372 H       1  LIG1        0.0342
     76 H           3.7739    0.1820    1.6507 H       1  LIG1        0.0259
     77 H           3.1016    1.3126    2.7487 H       1  LIG1        0.0259
     78 H           2.9724    1.6335    1.0184 H       1  LIG1        0.0259
     79 H           1.1821    0.6553    3.8598 H       1  LIG1        0.0727
     80 H          -0.3221    0.4299    2.9021 H       1  LIG1        0.0727
     81 H          -1.3446    5.4169    0.3117 H       1  LIG1        0.0369
     82 H           1.0841    4.0275   -0.7321 H       1  LIG1        0.0417
     83 H           0.0440    1.2850   -3.2714 H       1  LIG1        0.0803
     84 H           2.1316    1.9747   -0.9253 H       1  LIG1        0.0259
     85 H           2.2986    1.8258   -2.6720 H       1  LIG1        0.0259
     86 H           3.2711    0.8401   -1.6506 H       1  LIG1        0.0259
     87 H           1.8571   -0.2963   -3.5759 H       1  LIG1        0.2104
     88 H          -2.0423    0.3897   -1.4521 H       1  LIG1        0.0811
     89 H          -0.3168   -1.8845   -2.5250 H       1  LIG1        0.0782
     90 H          -2.6024   -4.7916   -4.2011 H       1  LIG1        0.0342
     91 H          -3.9077   -4.4225   -3.0409 H       1  LIG1        0.0342
     92 H          -2.2577   -4.8596   -2.4788 H       1  LIG1        0.0342
     93 H          -3.7296    3.0071   -4.4004 H       1  LIG1        0.0342
     94 H          -4.3229    1.4371   -5.0096 H       1  LIG1        0.0342
     95 H          -2.6248    1.9650   -5.2920 H       1  LIG1        0.0342
     96 H          -0.8424    6.0597   -1.9452 H       1  LIG1        0.0238
     97 H           0.6335    5.4630   -2.7110 H       1  LIG1        0.0238
     98 H           0.7469    6.4089   -1.2430 H       1  LIG1        0.0238
     99 H          -1.1503    2.4711    0.9611 H       1  LIG1        0.0236
    100 H          -2.4439    3.3382    0.1406 H       1  LIG1        0.0236
    101 H          -2.1078    3.6758    1.8341 H       1  LIG1        0.0236
    102 H           2.1319    7.8102    1.6010 H       1  LIG1        0.0829
    103 H           2.8861    6.8551    3.7844 H       1  LIG1        0.0633
    104 H           1.9269    4.6784    4.5013 H       1  LIG1        0.0627
@<TRIPOS>BOND
     1     1     2    1
     2     2     3    1
     3     3     4    2
     4     3     5    1
     5     1     6    1
     6     6     7    1
     7     7     8    1
     8     8     9    1
     9     9    10    1
    10    10    11    2
    11    10    12    1
    12     8    13    1
    13    13    14    1
    14    14    15    1
    15     6    15    1
    16    15    16    1
    17    16    17    1
    18    17    18    2
    19    17    19    1
    20    14    20    1
    21    20    21    1
    22    21    22    2
    23    21    23    1
    24    13    24    1
    25    24    25    1
    26     7    25    1
    27    24    26    1
    28    24    27    1
    29    27    28    1
    30    28    29    1
    31    29    30    2
    32    29    31    1
    33    31    32   ar
    34    32    33    1
    35    33    34    1
    36    34    35    1
    37    35    36    2
    38    35    37    1
    39    37    38    1
    40    38    39    1
    41     7    39    1
    42    39    40    1
    43    39    41    1
    44    38    42    1
    45    42    43    1
    46     6    43    1
    47    43    44    1
    48    44    45    1
    49    45    46    2
    50    45    47    1
    51    42    48    1
    52    48    49    1
    53    49    50    2
    54    49    51    1
    55    34    52    1
    56    33    53    1
    57    32    54   ar
    58    54    55   ar
    59    55    56   ar
    60    56    57   ar
    61    31    57   ar
    62     1    58    1
    63     1    59    1
    64     5    60    1
    65     5    61    1
    66     5    62    1
    67     8    63    1
    68    12    64    1
    69    12    65    1
    70    12    66    1
    71    13    67    1
    72    14    68    1
    73    15    69    1
    74    19    70    1
    75    19    71    1
    76    19    72    1
    77    23    73    1
    78    23    74    1
    79    23    75    1
    80    26    76    1
    81    26    77    1
    82    26    78    1
    83    27    79    1
    84    27    80    1
    85    33    81    1
    86    34    82    1
    87    38    83    1
    88    40    84    1
    89    40    85    1
    90    40    86    1
    91    41    87    1
    92    42    88    1
    93    43    89    1
    94    47    90    1
    95    47    91    1
    96    47    92    1
    97    51    93    1
    98    51    94    1
    99    51    95    1
   100    52    96    1
   101    52    97    1
   102    52    98    1
   103    53    99    1
   104    53   100    1
   105    53   101    1
   106    55   102    1
   107    56   103    1
   108    57   104    1
