REMARK  Name = NuBBE_1659
REMARK  12 active torsions:
REMARK  status: ('A' for Active; 'I' for Inactive)
REMARK    1  A    between atoms: C_1  and  C_2
REMARK    2  A    between atoms: C_4  and  C_22
REMARK    3  A    between atoms: C_7  and  C_12
REMARK    4  A    between atoms: C_9  and  C_11
REMARK    5  A    between atoms: C_14  and  O_15
REMARK    6  A    between atoms: O_15  and  C_16
REMARK    7  A    between atoms: C_17  and  O_20
REMARK    8  A    between atoms: O_20  and  C_21
REMARK    9  A    between atoms: C_24  and  O_25
REMARK   10  A    between atoms: O_25  and  C_26
REMARK   11  A    between atoms: C_27  and  O_30
REMARK   12  A    between atoms: O_30  and  C_31
REMARK                            x       y       z     vdW  Elec       q    Type
REMARK                         _______ _______ _______ _____ _____    ______ ____
ROOT
ATOM      1  C   LIG A   1      -2.103  -0.512   0.960  0.00  0.00    +0.011 C 
ATOM      2  C   LIG A   1      -1.433   0.212   2.130  0.00  0.00    +0.025 C 
ATOM      3  C   LIG A   1      -0.471   1.365   1.781  0.00  0.00    +0.152 C 
ATOM      4  O   LIG A   1       0.864   0.835   1.827  0.00  0.00    -0.364 OA
ATOM      5  C   LIG A   1       0.875  -0.486   2.395  0.00  0.00    +0.152 C 
ATOM      6  C   LIG A   1      -0.543  -0.757   2.915  0.00  0.00    +0.025 C 
ATOM      7  C   LIG A   1      -0.628  -0.466   4.418  0.00  0.00    +0.011 C 
ENDROOT
BRANCH   5   8
ATOM      8  C   LIG A   1       1.415  -1.497   1.394  0.00  0.00    -0.015 A 
ATOM      9  C   LIG A   1       1.847  -1.105   0.126  0.00  0.00    +0.055 A 
ATOM     10  C   LIG A   1       2.362  -1.988  -0.831  0.00  0.00    +0.162 A 
ATOM     11  C   LIG A   1       2.501  -3.344  -0.497  0.00  0.00    +0.162 A 
ATOM     12  C   LIG A   1       2.123  -3.748   0.793  0.00  0.00    +0.050 A 
ATOM     13  C   LIG A   1       1.585  -2.845   1.726  0.00  0.00    +0.010 A 
BRANCH  10  14
ATOM     14  O   LIG A   1       2.691  -1.335  -1.985  0.00  0.00    -0.491 OA
ATOM     15  C   LIG A   1       2.949  -2.083  -3.159  0.00  0.00    +0.277 C 
ENDBRANCH  10  14
BRANCH  11  16
ATOM     16  O   LIG A   1       3.018  -4.189  -1.439  0.00  0.00    -0.491 OA
ATOM     17  C   LIG A   1       3.153  -5.564  -1.100  0.00  0.00    +0.277 C 
ENDBRANCH  11  16
ENDBRANCH   5   8
BRANCH   3  18
ATOM     18  C   LIG A   1      -0.720   2.148   0.503  0.00  0.00    -0.015 A 
ATOM     19  C   LIG A   1      -1.937   2.814   0.304  0.00  0.00    +0.055 A 
ATOM     20  C   LIG A   1      -2.203   3.501  -0.889  0.00  0.00    +0.162 A 
ATOM     21  C   LIG A   1      -1.218   3.602  -1.884  0.00  0.00    +0.162 A 
ATOM     22  C   LIG A   1       0.021   3.006  -1.670  0.00  0.00    +0.050 A 
ATOM     23  C   LIG A   1       0.261   2.291  -0.490  0.00  0.00    +0.010 A 
BRANCH  20  24
ATOM     24  O   LIG A   1      -3.406   4.130  -1.139  0.00  0.00    -0.491 OA
ATOM     25  C   LIG A   1      -4.545   3.540  -0.521  0.00  0.00    +0.277 C 
ENDBRANCH  20  24
BRANCH  21  26
ATOM     26  O   LIG A   1      -1.527   4.337  -3.001  0.00  0.00    -0.491 OA
ATOM     27  C   LIG A   1      -0.853   3.962  -4.197  0.00  0.00    +0.277 C 
ENDBRANCH  21  26
ENDBRANCH   3  18
TORSDOF 6
