REMARK  Name = NuBBE_2461
REMARK  12 active torsions:
REMARK  status: ('A' for Active; 'I' for Inactive)
REMARK    1  A    between atoms: C_1  and  O_2
REMARK    2  A    between atoms: O_2  and  C_3
REMARK    3  A    between atoms: C_4  and  O_5
REMARK    4  A    between atoms: C_8  and  C_10
REMARK    5  A    between atoms: C_13  and  O_14
REMARK    6  A    between atoms: O_14  and  C_15
REMARK    7  A    between atoms: C_16  and  O_17
REMARK    8  A    between atoms: O_17  and  C_18
REMARK    9  A    between atoms: C_20  and  C_22
REMARK   10  A    between atoms: C_22  and  O_23
REMARK   11  A    between atoms: C_24  and  C_26
REMARK   12  A    between atoms: C_26  and  O_27
REMARK                            x       y       z     vdW  Elec       q    Type
REMARK                         _______ _______ _______ _____ _____    ______ ____
ROOT
ATOM      1  C   LIG A   1      -2.554   2.585   0.632  0.00  0.00    +0.162 A 
ATOM      2  C   LIG A   1      -2.871   1.282   1.011  0.00  0.00    +0.159 A 
ATOM      3  C   LIG A   1      -2.272   0.191   0.400  0.00  0.00    +0.053 A 
ATOM      4  C   LIG A   1      -1.288   0.382  -0.590  0.00  0.00    -0.033 A 
ATOM      5  C   LIG A   1      -0.538  -0.838  -1.119  0.00  0.00    +0.055 C 
ATOM      6  C   LIG A   1       0.273  -0.562  -2.418  0.00  0.00    +0.032 C 
ATOM      7  C   LIG A   1       0.993   0.816  -2.424  0.00  0.00    +0.025 C 
ATOM      8  C   LIG A   1       0.039   1.968  -2.080  0.00  0.00    +0.041 C 
ATOM      9  C   LIG A   1      -0.950   1.691  -0.976  0.00  0.00    -0.040 A 
ATOM     10  C   LIG A   1      -1.597   2.785  -0.362  0.00  0.00    +0.053 A 
ENDROOT
BRANCH   5  11
ATOM     11  C   LIG A   1       0.290  -1.537  -0.036  0.00  0.00    -0.036 A 
ATOM     12  C   LIG A   1       0.541  -2.903  -0.113  0.00  0.00    +0.008 A 
ATOM     13  C   LIG A   1       1.235  -3.559   0.909  0.00  0.00    +0.050 A 
ATOM     14  C   LIG A   1       1.683  -2.855   2.039  0.00  0.00    +0.162 A 
ATOM     15  C   LIG A   1       1.460  -1.475   2.123  0.00  0.00    +0.162 A 
ATOM     16  C   LIG A   1       0.773  -0.836   1.084  0.00  0.00    +0.053 A 
BRANCH  14  17
ATOM     17  O   LIG A   1       2.386  -3.451   3.059  0.00  0.00    -0.491 OA
ATOM     18  C   LIG A   1       2.086  -4.819   3.312  0.00  0.00    +0.277 C 
ENDBRANCH  14  17
BRANCH  15  19
ATOM     19  O   LIG A   1       1.913  -0.806   3.237  0.00  0.00    -0.491 OA
ATOM     20  C   LIG A   1       1.569   0.574   3.340  0.00  0.00    +0.277 C 
ENDBRANCH  15  19
ENDBRANCH   5  11
BRANCH   1  22
ATOM     21  C   LIG A   1      -3.392   4.790   0.602  0.00  0.00    +0.277 C 
ATOM     22  O   LIG A   1      -3.208   3.575   1.320  0.00  0.00    -0.491 OA
ENDBRANCH   1  22
BRANCH   2  23
ATOM     23  O   LIG A   1      -3.779   1.052   2.007  0.00  0.00    -0.503 OA
ATOM     24  H   LIG A   1      -4.033   1.939   2.328  0.00  0.00    +0.292 HD
ENDBRANCH   2  23
BRANCH   6  25
ATOM     25  C   LIG A   1      -0.678  -0.705  -3.627  0.00  0.00    +0.160 C 
BRANCH  25  26
ATOM     26  O   LIG A   1      -0.007  -0.478  -4.860  0.00  0.00    -0.395 OA
ATOM     27  H   LIG A   1       0.679  -1.163  -4.951  0.00  0.00    +0.209 HD
ENDBRANCH  25  26
ENDBRANCH   6  25
BRANCH   7  28
ATOM     28  C   LIG A   1       2.262   0.862  -1.563  0.00  0.00    +0.160 C 
BRANCH  28  29
ATOM     29  O   LIG A   1       3.188  -0.115  -2.024  0.00  0.00    -0.395 OA
ATOM     30  H   LIG A   1       3.940  -0.110  -1.405  0.00  0.00    +0.209 HD
ENDBRANCH  28  29
ENDBRANCH   7  28
TORSDOF 9
