REMARK  Name = NuBBE_2303
REMARK  3 active torsions:
REMARK  status: ('A' for Active; 'I' for Inactive)
REMARK    1  A    between atoms: C_1  and  O_27
REMARK    2  A    between atoms: C_15  and  C_17
REMARK    3  A    between atoms: O_27  and  C_28
REMARK                            x       y       z     vdW  Elec       q    Type
REMARK                         _______ _______ _______ _____ _____    ______ ____
ROOT
ATOM      1  C   LIG A   1      -3.449  -0.747  -0.257  0.00  0.00    +0.142 A 
ATOM      2  C   LIG A   1      -4.163   0.123   0.570  0.00  0.00    +0.047 A 
ATOM      3  C   LIG A   1      -3.530   1.219   1.173  0.00  0.00    +0.004 A 
ATOM      4  C   LIG A   1      -2.169   1.459   0.965  0.00  0.00    +0.006 A 
ATOM      5  C   LIG A   1      -1.462   0.603   0.130  0.00  0.00    -0.013 A 
ATOM      6  C   LIG A   1       0.021   0.637  -0.267  0.00  0.00    +0.036 C 
ATOM      7  C   LIG A   1       0.986   1.027   0.852  0.00  0.00    +0.075 C 
ATOM      8  C   LIG A   1       2.038  -0.018   1.270  0.00  0.00    -0.013 C 
ATOM      9  C   LIG A   1       1.268  -1.292   1.663  0.00  0.00    +0.010 C 
ATOM     10  C   LIG A   1       0.282  -1.779   0.576  0.00  0.00    +0.028 C 
ATOM     11  C   LIG A   1       0.171  -0.854  -0.713  0.00  0.00    +0.053 C 
ATOM     12  N   LIG A   1      -1.184  -1.138  -1.360  0.00  0.00    -0.261 N 
ATOM     13  C   LIG A   1      -2.115  -0.459  -0.521  0.00  0.00    +0.083 A 
ATOM     14  C   LIG A   1      -1.372  -1.128  -2.751  0.00  0.00    +0.217 C 
ATOM     15  O   LIG A   1      -0.448  -1.069  -3.562  0.00  0.00    -0.276 OA
ATOM     16  C   LIG A   1      -2.777  -1.217  -3.299  0.00  0.00    +0.110 C 
ATOM     17  C   LIG A   1       1.398  -1.175  -1.599  0.00  0.00    +0.027 C 
ATOM     18  C   LIG A   1       2.719  -1.398  -0.877  0.00  0.00    +0.003 C 
ATOM     19  C   LIG A   1       3.095  -0.355   0.166  0.00  0.00    +0.008 C 
ATOM     20  C   LIG A   1       2.816   0.595   2.487  0.00  0.00    +0.009 C 
ATOM     21  C   LIG A   1       2.664   2.125   2.642  0.00  0.00    +0.016 C 
ATOM     22  C   LIG A   1       2.479   2.912   1.333  0.00  0.00    +0.085 C 
ATOM     23  N   LIG A   1       1.707   2.186   0.346  0.00  0.00    -0.298 NA
ATOM     24  C   LIG A   1       0.829   2.915  -0.542  0.00  0.00    +0.086 C 
ATOM     25  C   LIG A   1       0.196   1.759  -1.321  0.00  0.00    +0.030 C 
ENDROOT
BRANCH   1  26
ATOM     26  O   LIG A   1      -4.125  -1.840  -0.718  0.00  0.00    -0.493 OA
ATOM     27  C   LIG A   1      -3.500  -3.065  -0.329  0.00  0.00    +0.277 C 
ENDBRANCH   1  26
TORSDOF 1
