@<TRIPOS>MOLECULE
NuBBE_464
 94 98 0 0 0
SMALL
GASTEIGER

@<TRIPOS>ATOM
      1 O           3.1035   -0.7028   -0.7653 O.3     1  LIG1       -0.3843
      2 C           2.2175    0.4311   -0.7909 C.3     1  LIG1        0.1324
      3 H           2.9026    1.2778   -0.7868 H       1  LIG1        0.0669
      4 C           1.4021    0.4877   -2.1138 C.3     1  LIG1        0.1633
      5 H           2.0906    0.6700   -2.9508 H       1  LIG1        0.0792
      6 O           0.7737   -0.8151   -2.3290 O.3     1  LIG1       -0.4554
      7 C           1.5765   -1.7981   -2.8267 C.2     1  LIG1        0.3110
      8 C           0.8909   -3.1579   -2.8061 C.3     1  LIG1        0.0616
      9 C           0.8017   -3.8667   -1.4177 C.3     1  LIG1        0.0119
     10 C          -0.4242   -4.7692   -1.3709 C.ar    1  LIG1        0.0588
     11 N          -0.1919   -5.9649   -1.9924 N.ar    1  LIG1       -0.2588
     12 C          -1.1539   -6.9080   -1.9873 C.ar    1  LIG1        0.0279
     13 C          -2.3871   -6.7285   -1.4012 C.ar    1  LIG1       -0.0428
     14 C          -2.6392   -5.5128   -0.7789 C.ar    1  LIG1       -0.0446
     15 C          -1.6591   -4.5080   -0.7599 C.ar    1  LIG1        0.0805
     16 C           0.9549   -3.0221   -0.1687 C.3     1  LIG1       -0.0562
     17 C           1.6545   -4.0572   -3.8057 C.3     1  LIG1       -0.0517
     18 O           2.7070   -1.5924   -3.2576 O.2     1  LIG1       -0.2505
     19 C           0.3468    1.6693   -2.1166 C.3     1  LIG1        0.1356
     20 C          -0.5195    1.5193   -3.3924 C.3     1  LIG1       -0.0296
     21 O           1.0285    2.9197   -2.2405 O.3     1  LIG1       -0.3821
     22 C          -0.4745    1.6382   -0.7778 C.3     1  LIG1        0.1548
     23 O          -1.0377    0.2880   -0.8582 O.3     1  LIG1       -0.3558
     24 C          -2.4333    0.2430   -0.5653 C.3     1  LIG1        0.1104
     25 C          -3.2585    0.1883   -1.8713 C.3     1  LIG1       -0.0321
     26 C          -2.6584   -1.0904    0.1911 C.3     1  LIG1        0.1219
     27 O          -2.2899   -2.2367   -0.6396 O.3     1  LIG1       -0.4582
     28 C          -2.0049   -3.3489    0.0852 C.2     1  LIG1        0.3410
     29 O          -2.1341   -3.4769    1.2945 O.2     1  LIG1       -0.2449
     30 C          -1.7314    2.5424   -0.6704 C.3     1  LIG1        0.1435
     31 H          -2.1973    2.7458   -1.6353 H       1  LIG1        0.0769
     32 O          -1.6122    3.7622    0.0823 O.3     1  LIG1       -0.4580
     33 C          -1.8397    4.9522   -0.5338 C.2     1  LIG1        0.3043
     34 C          -2.3185    5.9582    0.4748 C.3     1  LIG1        0.0332
     35 O          -1.7508    5.1307   -1.7402 O.2     1  LIG1       -0.2512
     36 C          -2.6272    1.5870    0.1489 C.3     1  LIG1        0.0604
     37 H          -3.6813    1.8918    0.1294 H       1  LIG1        0.0393
     38 C          -2.1395    1.6317    1.6071 C.3     1  LIG1        0.1019
     39 H          -2.5976    2.5360    2.0329 H       1  LIG1        0.0635
     40 O          -2.7445    0.5778    2.3510 O.3     1  LIG1       -0.3876
     41 C          -0.5722    1.8180    1.8284 C.3     1  LIG1        0.1443
     42 H          -0.5044    2.8915    2.0436 H       1  LIG1        0.0769
     43 O          -0.1662    1.1832    3.0575 O.3     1  LIG1       -0.4580
     44 C          -0.6724    1.7697    4.1863 C.2     1  LIG1        0.3043
     45 C          -0.5725    0.8923    5.3949 C.3     1  LIG1        0.0332
     46 O          -1.2236    2.8659    4.2203 O.2     1  LIG1       -0.2512
     47 C           0.4261    1.7045    0.5650 C.3     1  LIG1        0.1186
     48 C           1.4105    2.9831    0.6255 C.3     1  LIG1        0.1079
     49 O           2.2638    3.0987    1.8135 O.3     1  LIG1       -0.4639
     50 C           3.6262    3.1803    1.6414 C.2     1  LIG1        0.3040
     51 C           4.3584    3.5138    2.9226 C.3     1  LIG1        0.0332
     52 O           4.2188    3.0245    0.5796 O.2     1  LIG1       -0.2512
     53 C           1.3375    0.4429    0.5173 C.3     1  LIG1        0.1474
     54 H           0.7206   -0.4448    0.5486 H       1  LIG1        0.0770
     55 O           2.2455    0.3899    1.6161 O.3     1  LIG1       -0.4579
     56 C           2.1844   -0.6831    2.4720 C.2     1  LIG1        0.3043
     57 C           3.5394   -0.8773    3.0582 C.3     1  LIG1        0.0332
     58 O           1.2089   -1.3678    2.6804 O.2     1  LIG1       -0.2512
     59 H           3.5575   -0.7423   -1.6345 H       1  LIG1        0.2101
     60 H          -0.1135   -3.0043   -3.2230 H       1  LIG1        0.0417
     61 H           1.6655   -4.5480   -1.3549 H       1  LIG1        0.0369
     62 H          -0.8858   -7.8418   -2.4724 H       1  LIG1        0.0829
     63 H          -3.1247   -7.5215   -1.4053 H       1  LIG1        0.0633
     64 H          -3.5877   -5.3571   -0.2692 H       1  LIG1        0.0627
     65 H           0.2376   -2.2082   -0.1617 H       1  LIG1        0.0236
     66 H           1.9626   -2.6150   -0.0966 H       1  LIG1        0.0236
     67 H           0.8054   -3.6155    0.7410 H       1  LIG1        0.0236
     68 H           2.6647   -4.2804   -3.4372 H       1  LIG1        0.0238
     69 H           1.7697   -3.5636   -4.7771 H       1  LIG1        0.0238
     70 H           1.1442   -5.0077   -3.9790 H       1  LIG1        0.0238
     71 H           0.0973    1.6233   -4.2929 H       1  LIG1        0.0259
     72 H          -1.2748    2.3075   -3.4704 H       1  LIG1        0.0259
     73 H          -1.0264    0.5526   -3.4566 H       1  LIG1        0.0259
     74 H           0.4098    3.5951   -2.5802 H       1  LIG1        0.2104
     75 H          -2.9240   -0.6256   -2.5236 H       1  LIG1        0.0259
     76 H          -3.1781    1.0985   -2.4710 H       1  LIG1        0.0259
     77 H          -4.3237    0.0458   -1.6567 H       1  LIG1        0.0259
     78 H          -3.7118   -1.2010    0.4745 H       1  LIG1        0.0727
     79 H          -2.0123   -1.1206    1.0703 H       1  LIG1        0.0727
     80 H          -2.1826    6.9763    0.1005 H       1  LIG1        0.0342
     81 H          -1.7512    5.8616    1.4053 H       1  LIG1        0.0342
     82 H          -3.3816    5.7923    0.6798 H       1  LIG1        0.0342
     83 H          -3.0623    0.9386    3.1981 H       1  LIG1        0.2100
     84 H           0.1544    1.3071    6.0959 H       1  LIG1        0.0342
     85 H          -0.2944   -0.1280    5.1255 H       1  LIG1        0.0342
     86 H          -1.5599    0.8522    5.8704 H       1  LIG1        0.0342
     87 H           0.8122    3.8971    0.6232 H       1  LIG1        0.0706
     88 H           2.0431    3.0563   -0.2564 H       1  LIG1        0.0706
     89 H           4.8944    4.4673    2.8302 H       1  LIG1        0.0342
     90 H           5.0858    2.7255    3.1424 H       1  LIG1        0.0342
     91 H           3.6704    3.5937    3.7663 H       1  LIG1        0.0342
     92 H           3.5923   -1.8310    3.5706 H       1  LIG1        0.0342
     93 H           3.7740   -0.0693    3.7586 H       1  LIG1        0.0342
     94 H           4.2808   -0.8866    2.2492 H       1  LIG1        0.0342
@<TRIPOS>BOND
     1     2     4    1
     2     4     5    1
     3     4     6    1
     4     6     7    1
     5     7     8    1
     6     8     9    1
     7     9    10    1
     8    10    11   ar
     9    11    12   ar
    10    12    13   ar
    11    13    14   ar
    12    14    15   ar
    13    10    15   ar
    14     9    16    1
    15     8    17    1
    16     7    18    2
    17     4    19    1
    18    19    20    1
    19    19    21    1
    20    19    22    1
    21    22    23    1
    22    23    24    1
    23    24    25    1
    24    24    26    1
    25    26    27    1
    26    27    28    1
    27    15    28    1
    28    28    29    2
    29    22    30    1
    30    32    33    1
    31    33    34    1
    32    33    35    2
    33    30    36    1
    34    36    37    1
    35    24    36    1
    36    36    38    1
    37    38    41    1
    38    41    42    1
    39    41    43    1
    40    43    44    1
    41    44    45    1
    42    44    46    2
    43    41    47    1
    44    47    48    1
    45    48    49    1
    46    49    50    1
    47    50    51    1
    48    50    52    2
    49    22    47    1
    50    47    53    1
    51    53    54    1
    52     2    53    1
    53    53    55    1
    54    55    56    1
    55    56    57    1
    56    56    58    2
    57     2     3    1
    58     2     1    1
    59    30    32    1
    60    30    31    1
    61    38    40    1
    62    38    39    1
    63     1    59    1
    64     8    60    1
    65     9    61    1
    66    12    62    1
    67    13    63    1
    68    14    64    1
    69    16    65    1
    70    16    66    1
    71    16    67    1
    72    17    68    1
    73    17    69    1
    74    17    70    1
    75    20    71    1
    76    20    72    1
    77    20    73    1
    78    21    74    1
    79    25    75    1
    80    25    76    1
    81    25    77    1
    82    26    78    1
    83    26    79    1
    84    34    80    1
    85    34    81    1
    86    34    82    1
    87    40    83    1
    88    45    84    1
    89    45    85    1
    90    45    86    1
    91    48    87    1
    92    48    88    1
    93    51    89    1
    94    51    90    1
    95    51    91    1
    96    57    92    1
    97    57    93    1
    98    57    94    1
