REMARK  Name = NuBBE_1270
REMARK  7 active torsions:
REMARK  status: ('A' for Active; 'I' for Inactive)
REMARK    1  A    between atoms: C_6  and  O_7
REMARK    2  A    between atoms: C_11  and  C_12
REMARK    3  A    between atoms: C_11  and  C_13
REMARK    4  A    between atoms: C_16  and  C_17
REMARK    5  A    between atoms: C_17  and  C_18
REMARK    6  A    between atoms: C_17  and  C_20
REMARK    7  A    between atoms: C_17  and  C_21
REMARK                            x       y       z     vdW  Elec       q    Type
REMARK                         _______ _______ _______ _____ _____    ______ ____
ROOT
ATOM      1  O   LIG A   1      -4.638   2.682   0.035  0.00  0.00    -0.245 OA
ATOM      2  C   LIG A   1      -3.419   2.642   0.076  0.00  0.00    +0.337 A 
ATOM      3  C   LIG A   1      -2.629   3.880   0.151  0.00  0.00    +0.093 A 
ATOM      4  C   LIG A   1      -1.297   3.868   0.159  0.00  0.00    +0.022 A 
ATOM      5  C   LIG A   1      -0.563   2.608   0.072  0.00  0.00    +0.060 A 
ATOM      6  C   LIG A   1       0.832   2.564   0.036  0.00  0.00    +0.138 A 
ATOM      7  C   LIG A   1       1.510   1.341   0.010  0.00  0.00    +0.059 A 
ATOM      8  C   LIG A   1       2.971   1.303  -0.004  0.00  0.00    +0.015 C 
ATOM      9  C   LIG A   1       3.588   0.122  -0.070  0.00  0.00    +0.020 C 
ATOM     10  C   LIG A   1       2.844  -1.179  -0.129  0.00  0.00    +0.123 C 
ATOM     11  C   LIG A   1       3.176  -1.909  -1.435  0.00  0.00    +0.060 C 
ATOM     12  C   LIG A   1       3.226  -2.056   1.068  0.00  0.00    +0.060 C 
ATOM     13  O   LIG A   1       1.417  -1.063  -0.087  0.00  0.00    -0.481 OA
ATOM     14  C   LIG A   1       0.775   0.138  -0.017  0.00  0.00    +0.140 A 
ATOM     15  C   LIG A   1      -0.645   0.116   0.008  0.00  0.00    +0.047 A 
ATOM     16  C   LIG A   1      -1.274   1.393   0.052  0.00  0.00    +0.150 A 
ATOM     17  O   LIG A   1      -2.697   1.451   0.061  0.00  0.00    -0.422 OA
ENDROOT
BRANCH  15  18
ATOM     18  C   LIG A   1      -1.487  -1.204  -0.002  0.00  0.00    +0.015 C 
ATOM     19  C   LIG A   1      -2.305  -1.293  -1.316  0.00  0.00    +0.020 C 
ATOM     20  C   LIG A   1      -0.685  -2.537   0.030  0.00  0.00    +0.020 C 
BRANCH  18  21
ATOM     21  C   LIG A   1      -2.356  -1.284   1.263  0.00  0.00    -0.023 C 
ATOM     22  C   LIG A   1      -3.685  -1.453   1.332  0.00  0.00    +0.005 C 
ENDBRANCH  18  21
ENDBRANCH  15  18
BRANCH   6  23
ATOM     23  O   LIG A   1       1.575   3.721   0.010  0.00  0.00    -0.505 OA
ATOM     24  H   LIG A   1       1.147   4.335  -0.610  0.00  0.00    +0.292 HD
ENDBRANCH   6  23
TORSDOF 3
