@<TRIPOS>MOLECULE
NuBBE_1286
 33 35 0 0 0
SMALL
GASTEIGER

@<TRIPOS>ATOM
      1 C          -3.1901   -1.4411   -0.6550 C.3     1  LIG1       -0.0215
      2 C          -1.7895   -1.9125   -0.1738 C.3     1  LIG1        0.1235
      3 O          -0.6362   -1.2687   -0.8711 O.3     1  LIG1       -0.4808
      4 C          -1.7084   -3.4038   -0.5395 C.3     1  LIG1       -0.0215
      5 C          -1.7889   -1.7468    1.3590 C.2     1  LIG1       -0.0407
      6 C          -0.6588   -1.3411    1.9611 C.2     1  LIG1       -0.0461
      7 C           0.0451   -0.3044    1.2152 C.ar    1  LIG1        0.0816
      8 C           0.2791   -0.5605   -0.0818 C.ar    1  LIG1        0.1431
      9 C           1.4129    0.2487   -0.5993 C.ar    1  LIG1        0.0410
     10 C           2.6480   -0.3066   -0.9774 C.ar    1  LIG1       -0.0491
     11 C           3.8025    0.4995   -1.0619 C.ar    1  LIG1       -0.0610
     12 C           3.7291    1.8724   -0.8374 C.ar    1  LIG1       -0.0598
     13 C           2.5132    2.4423   -0.4753 C.ar    1  LIG1       -0.0374
     14 C           1.3924    1.6215   -0.2728 C.ar    1  LIG1        0.0552
     15 N           0.3035    2.0667    0.5193 N.ar    1  LIG1       -0.3105
     16 C          -0.1328    3.4484    0.5072 C.3     1  LIG1        0.0153
     17 C          -0.3974    1.1445    1.2925 C.ar    1  LIG1        0.2622
     18 O          -1.3718    1.4619    2.0016 O.2     1  LIG1       -0.2669
     19 H          -3.9511   -2.1900   -0.3713 H       1  LIG1        0.0271
     20 H          -3.2511   -1.2975   -1.7349 H       1  LIG1        0.0271
     21 H          -3.5176   -0.5073   -0.1802 H       1  LIG1        0.0271
     22 H          -2.3774   -4.0151    0.0780 H       1  LIG1        0.0271
     23 H          -0.6892   -3.7885   -0.4444 H       1  LIG1        0.0271
     24 H          -2.0039   -3.5523   -1.5866 H       1  LIG1        0.0271
     25 H          -2.6176   -1.0970    1.6694 H       1  LIG1        0.0611
     26 H           0.0776   -2.1385    2.1350 H       1  LIG1        0.0624
     27 H           2.7661   -1.3818   -1.0868 H       1  LIG1        0.0625
     28 H           4.7794    0.0518   -1.2432 H       1  LIG1        0.0618
     29 H           4.6264    2.4896   -0.8581 H       1  LIG1        0.0618
     30 H           2.5168    3.4919   -0.2012 H       1  LIG1        0.0638
     31 H           0.6263    4.1452    0.1512 H       1  LIG1        0.0457
     32 H          -0.4320    3.7452    1.5150 H       1  LIG1        0.0457
     33 H          -1.0047    3.5239   -0.1525 H       1  LIG1        0.0457
@<TRIPOS>BOND
     1     1     2    1
     2     2     3    1
     3     2     4    1
     4     2     5    1
     5     5     6    2
     6     6     7    1
     7     7     8   ar
     8     3     8    1
     9     8     9   ar
    10     9    10   ar
    11    10    11   ar
    12    11    12   ar
    13    12    13   ar
    14    13    14   ar
    15     9    14   ar
    16    14    15   ar
    17    15    16    1
    18    15    17   ar
    19     7    17   ar
    20    17    18    2
    21     1    19    1
    22     1    20    1
    23     1    21    1
    24     4    22    1
    25     4    23    1
    26     4    24    1
    27     5    25    1
    28     6    26    1
    29    10    27    1
    30    11    28    1
    31    12    29    1
    32    13    30    1
    33    16    31    1
    34    16    32    1
    35    16    33    1
