@<TRIPOS>MOLECULE
NuBBE_178
 39 41 0 0 0
SMALL
GASTEIGER

@<TRIPOS>ATOM
      1 O          -4.3881   -1.1400    0.5087 O.2     1  LIG1       -0.2870
      2 C          -3.1706   -1.0052    0.4740 C.ar    1  LIG1        0.1931
      3 C          -2.5575    0.3286    0.4469 C.ar    1  LIG1        0.0287
      4 C          -1.2220    0.4367    0.4247 C.ar    1  LIG1        0.1393
      5 C          -0.5403    1.7451    0.3322 C.ar    1  LIG1        0.0211
      6 C          -1.0743    2.9196    0.8656 C.ar    1  LIG1       -0.0474
      7 C          -0.3895    4.1284    0.7263 C.ar    1  LIG1       -0.0156
      8 C           0.8432    4.1972    0.0601 C.ar    1  LIG1        0.1615
      9 O           1.3453    5.4722    0.0340 O.3     1  LIG1       -0.4915
     10 C           2.6070    5.6900   -0.5779 C.3     1  LIG1        0.0790
     11 C           1.3979    3.0245   -0.4780 C.ar    1  LIG1        0.1622
     12 O           2.5896    3.0985   -1.1495 O.3     1  LIG1       -0.4914
     13 C           3.1492    1.8938   -1.6595 C.3     1  LIG1        0.0790
     14 C           0.6997    1.8182   -0.3233 C.ar    1  LIG1       -0.0056
     15 O          -0.3569   -0.6508    0.4211 O.2     1  LIG1       -0.4545
     16 C          -2.2549   -2.1521    0.4414 C.ar    1  LIG1        0.0642
     17 C          -0.8872   -1.9130    0.4075 C.ar    1  LIG1        0.1427
     18 C           0.0055   -2.9834    0.3589 C.ar    1  LIG1        0.0231
     19 C          -0.4713   -4.2980    0.3555 C.ar    1  LIG1        0.1236
     20 O           0.5003   -5.2594    0.3132 O.3     1  LIG1       -0.4950
     21 C           0.0605   -6.6124    0.3412 C.3     1  LIG1        0.0788
     22 C          -1.8494   -4.5302    0.3951 C.ar    1  LIG1       -0.0190
     23 C          -2.7437   -3.4568    0.4365 C.ar    1  LIG1       -0.0439
     24 H          -3.2396    1.1682    0.4165 H       1  LIG1        0.0693
     25 H          -2.0217    2.9211    1.3987 H       1  LIG1        0.0626
     26 H          -0.8237    5.0361    1.1418 H       1  LIG1        0.0655
     27 H           2.8594    6.7472   -0.4530 H       1  LIG1        0.0660
     28 H           2.5603    5.4932   -1.6538 H       1  LIG1        0.0660
     29 H           3.3954    5.1125   -0.0847 H       1  LIG1        0.0660
     30 H           4.0669    2.1498   -2.1961 H       1  LIG1        0.0660
     31 H           2.4753    1.4124   -2.3764 H       1  LIG1        0.0660
     32 H           3.4158    1.2127   -0.8441 H       1  LIG1        0.0660
     33 H           1.1058    0.8982   -0.7322 H       1  LIG1        0.0662
     34 H           1.0762   -2.7977    0.3264 H       1  LIG1        0.0691
     35 H           0.9463   -7.2543    0.3340 H       1  LIG1        0.0660
     36 H          -0.5321   -6.8499   -0.5485 H       1  LIG1        0.0660
     37 H          -0.4986   -6.8272    1.2581 H       1  LIG1        0.0660
     38 H          -2.2626   -5.5336    0.3948 H       1  LIG1        0.0654
     39 H          -3.8157   -3.6405    0.4638 H       1  LIG1        0.0627
@<TRIPOS>BOND
     1     1     2    2
     2     2     3   ar
     3     3     4   ar
     4     4     5    1
     5     5     6   ar
     6     6     7   ar
     7     7     8   ar
     8     8     9    1
     9     9    10    1
    10     8    11   ar
    11    11    12    1
    12    12    13    1
    13    11    14   ar
    14     5    14   ar
    15     4    15   ar
    16     2    16   ar
    17    16    17   ar
    18    15    17   ar
    19    17    18   ar
    20    18    19   ar
    21    19    20    1
    22    20    21    1
    23    19    22   ar
    24    22    23   ar
    25    16    23   ar
    26     3    24    1
    27     6    25    1
    28     7    26    1
    29    10    27    1
    30    10    28    1
    31    10    29    1
    32    13    30    1
    33    13    31    1
    34    13    32    1
    35    14    33    1
    36    18    34    1
    37    21    35    1
    38    21    36    1
    39    21    37    1
    40    22    38    1
    41    23    39    1
