@<TRIPOS>MOLECULE
NuBBE_556
 45 46 0 0 0
SMALL
GASTEIGER

@<TRIPOS>ATOM
      1 O          -2.1636   -3.1169    0.5962 O.3     1  LIG1       -0.3877
      2 C          -1.4617   -1.9280    0.9537 C.3     1  LIG1        0.0760
      3 H          -1.9046   -1.5526    1.8849 H       1  LIG1        0.0638
      4 C          -1.6765   -0.8652   -0.1356 C.3     1  LIG1        0.0032
      5 C          -1.2258   -1.2661   -1.5559 C.3     1  LIG1        0.0613
      6 H          -0.1598   -1.5172   -1.5556 H       1  LIG1        0.0597
      7 O          -1.9345   -2.4256   -2.0027 O.3     1  LIG1       -0.3914
      8 C          -1.4712   -0.1525   -2.5957 C.3     1  LIG1       -0.0084
      9 C          -0.6769    1.1029   -2.3438 C.2     1  LIG1       -0.0821
     10 C          -1.1410    2.1536   -1.6448 C.2     1  LIG1       -0.0475
     11 C          -0.3214    3.3685   -1.2806 C.3     1  LIG1        0.1250
     12 H           0.7114    3.0439   -1.0976 H       1  LIG1        0.0782
     13 O          -0.7972    3.8767   -0.0081 O.3     1  LIG1       -0.4538
     14 C          -1.8694    4.7004    0.0428 C.2     1  LIG1        0.3322
     15 C          -2.2968    5.3336   -1.2183 C.2     1  LIG1        0.0187
     16 C          -1.5542    5.2570   -2.3306 C.2     1  LIG1       -0.0735
     17 C          -0.2901    4.4645   -2.3467 C.3     1  LIG1        0.0067
     18 O          -2.4632    4.9453    1.0938 O.2     1  LIG1       -0.2456
     19 C          -0.0256   -2.3095    1.1620 C.2     1  LIG1       -0.0553
     20 C           0.6454   -2.1473    2.3136 C.2     1  LIG1       -0.0561
     21 C           2.0489   -2.5448    2.4476 C.ar    1  LIG1       -0.0252
     22 C           2.3829   -3.8326    2.8809 C.ar    1  LIG1       -0.0546
     23 C           3.7232   -4.2073    3.0106 C.ar    1  LIG1       -0.0612
     24 C           4.7359   -3.3001    2.7018 C.ar    1  LIG1       -0.0617
     25 C           4.4097   -2.0174    2.2640 C.ar    1  LIG1       -0.0612
     26 C           3.0701   -1.6398    2.1374 C.ar    1  LIG1       -0.0546
     27 H          -2.1482   -3.6871    1.3870 H       1  LIG1        0.2102
     28 H          -1.1667    0.0509    0.1801 H       1  LIG1        0.0318
     29 H          -2.7529   -0.6493   -0.1769 H       1  LIG1        0.0318
     30 H          -2.0613   -3.0042   -1.2199 H       1  LIG1        0.2098
     31 H          -2.5450    0.0672   -2.6635 H       1  LIG1        0.0332
     32 H          -1.2036   -0.5330   -3.5912 H       1  LIG1        0.0332
     33 H           0.3293    1.1232   -2.7570 H       1  LIG1        0.0571
     34 H          -2.1500    2.1072   -1.2382 H       1  LIG1        0.0605
     35 H          -3.2107    5.9141   -1.1755 H       1  LIG1        0.0686
     36 H          -1.8580    5.7750   -3.2341 H       1  LIG1        0.0575
     37 H           0.5403    5.1536   -2.1476 H       1  LIG1        0.0346
     38 H          -0.1239    4.0313   -3.3395 H       1  LIG1        0.0346
     39 H           0.4829   -2.7605    0.3117 H       1  LIG1        0.0598
     40 H           0.1846   -1.7140    3.1967 H       1  LIG1        0.0621
     41 H           1.6043   -4.5520    3.1215 H       1  LIG1        0.0623
     42 H           3.9775   -5.2075    3.3522 H       1  LIG1        0.0618
     43 H           5.7782   -3.5929    2.8016 H       1  LIG1        0.0618
     44 H           5.1989   -1.3102    2.0217 H       1  LIG1        0.0618
     45 H           2.8302   -0.6353    1.7977 H       1  LIG1        0.0623
@<TRIPOS>BOND
     1     2     4    1
     2     4     5    1
     3     5     6    1
     4     5     7    1
     5     5     8    1
     6     8     9    1
     7     9    10    2
     8    10    11    1
     9    11    12    1
    10    11    13    1
    11    13    14    1
    12    14    15    1
    13    15    16    2
    14    16    17    1
    15    11    17    1
    16    14    18    2
    17     2    19    1
    18    19    20    2
    19    20    21    1
    20    21    22   ar
    21    22    23   ar
    22    23    24   ar
    23    24    25   ar
    24    25    26   ar
    25    21    26   ar
    26     2     3    1
    27     2     1    1
    28     1    27    1
    29     4    28    1
    30     4    29    1
    31     7    30    1
    32     8    31    1
    33     8    32    1
    34     9    33    1
    35    10    34    1
    36    15    35    1
    37    16    36    1
    38    17    37    1
    39    17    38    1
    40    19    39    1
    41    20    40    1
    42    22    41    1
    43    23    42    1
    44    24    43    1
    45    25    44    1
    46    26    45    1
