@<TRIPOS>MOLECULE
NuBBE_2347
 49 52 0 0 0
SMALL
GASTEIGER

@<TRIPOS>ATOM
      1 C           0.7269   -1.6502    5.5990 C.3     1  LIG1        0.0790
      2 O           0.8651   -1.0044    4.3364 O.3     1  LIG1       -0.4913
      3 C          -0.3018   -0.7154    3.6874 C.ar    1  LIG1        0.1657
      4 C          -1.5236   -0.4270    4.2627 C.ar    1  LIG1        0.2075
      5 O          -1.8166   -0.3423    5.5902 O.3     1  LIG1       -0.4489
      6 C          -3.2145   -0.0076    5.5576 C.3     1  LIG1        0.2334
      7 O          -3.7396    0.1126    4.2227 O.3     1  LIG1       -0.4525
      8 C          -2.6283   -0.1592    3.4831 C.ar    1  LIG1        0.1703
      9 C          -2.5847   -0.1678    2.1009 C.ar    1  LIG1       -0.0092
     10 C          -1.3548   -0.4171    1.4712 C.ar    1  LIG1        0.0004
     11 C          -1.2740   -0.4760   -0.0475 C.3     1  LIG1        0.1320
     12 H          -1.8980   -1.3322   -0.3487 H       1  LIG1        0.0790
     13 O           0.0657   -0.8267   -0.4950 O.3     1  LIG1       -0.4829
     14 C           0.1853   -0.2633   -1.7411 C.ar    1  LIG1        0.1321
     15 C           1.2493   -0.4971   -2.6097 C.ar    1  LIG1        0.0433
     16 C           2.3186   -1.5029   -2.2459 C.3     1  LIG1       -0.0027
     17 C           3.1154   -1.1306   -1.0239 C.2     1  LIG1       -0.0866
     18 C           4.4314   -0.9302   -0.9834 C.2     1  LIG1       -0.1023
     19 C           1.2264    0.2112   -3.8334 C.ar    1  LIG1        0.1655
     20 O           2.2611    0.0393   -4.7163 O.3     1  LIG1       -0.5030
     21 C           0.1684    1.0910   -4.1611 C.ar    1  LIG1        0.1621
     22 O           0.0106    1.8540   -5.2888 O.3     1  LIG1       -0.4914
     23 C           1.0248    1.8203   -6.2802 C.3     1  LIG1        0.0790
     24 C          -0.8738    1.2854   -3.2443 C.ar    1  LIG1       -0.0093
     25 C          -0.8423    0.6155   -2.0350 C.ar    1  LIG1        0.0049
     26 C          -1.7363    0.7701   -0.8503 C.3     1  LIG1        0.0261
     27 H          -2.7933    0.6739   -1.1235 H       1  LIG1        0.0387
     28 C          -1.4843    2.1349   -0.2125 C.3     1  LIG1       -0.0546
     29 C          -0.2232   -0.6795    2.2854 C.ar    1  LIG1       -0.0094
     30 H           1.7235   -1.9695    5.9206 H       1  LIG1        0.0660
     31 H           0.1001   -2.5458    5.5221 H       1  LIG1        0.0660
     32 H           0.3529   -0.9654    6.3647 H       1  LIG1        0.0660
     33 H          -3.3621    0.9416    6.0862 H       1  LIG1        0.1166
     34 H          -3.7709   -0.7911    6.0844 H       1  LIG1        0.1166
     35 H          -3.4897    0.0195    1.5319 H       1  LIG1        0.0659
     36 H           3.0021   -1.6705   -3.0887 H       1  LIG1        0.0358
     37 H           1.8376   -2.4721   -2.0797 H       1  LIG1        0.0358
     38 H           2.5571   -1.0606   -0.0881 H       1  LIG1        0.0570
     39 H           5.0635   -1.0078   -1.8669 H       1  LIG1        0.0532
     40 H           4.9225   -0.6898   -0.0350 H       1  LIG1        0.0532
     41 H           3.0841    0.0232   -4.2003 H       1  LIG1        0.2923
     42 H           0.7431    2.5301   -7.0645 H       1  LIG1        0.0660
     43 H           1.0889    0.8318   -6.7450 H       1  LIG1        0.0660
     44 H           1.9876    2.1543   -5.8806 H       1  LIG1        0.0660
     45 H          -1.6727    1.9856   -3.4707 H       1  LIG1        0.0659
     46 H          -0.4476    2.2451    0.1249 H       1  LIG1        0.0237
     47 H          -2.1468    2.3083    0.6395 H       1  LIG1        0.0237
     48 H          -1.6755    2.9379   -0.9358 H       1  LIG1        0.0237
     49 H           0.7426   -0.8836    1.8251 H       1  LIG1        0.0659
@<TRIPOS>BOND
     1     1     2    1
     2     2     3    1
     3     3     4   ar
     4     4     5    1
     5     5     6    1
     6     6     7    1
     7     4     8   ar
     8     7     8    1
     9     8     9   ar
    10     9    10   ar
    11    11    13    1
    12    13    14    1
    13    14    15   ar
    14    15    16    1
    15    16    17    1
    16    17    18    2
    17    15    19   ar
    18    19    20    1
    19    19    21   ar
    20    21    22    1
    21    22    23    1
    22    21    24   ar
    23    24    25   ar
    24    14    25   ar
    25    25    26    1
    26    11    26    1
    27    10    29   ar
    28     3    29   ar
    29    11    12    1
    30    11    10    1
    31    26    28    1
    32    26    27    1
    33     1    30    1
    34     1    31    1
    35     1    32    1
    36     6    33    1
    37     6    34    1
    38     9    35    1
    39    16    36    1
    40    16    37    1
    41    17    38    1
    42    18    39    1
    43    18    40    1
    44    20    41    1
    45    23    42    1
    46    23    43    1
    47    23    44    1
    48    24    45    1
    49    28    46    1
    50    28    47    1
    51    28    48    1
    52    29    49    1
