@<TRIPOS>MOLECULE
NuBBE_966
 42 43 0 0 0
SMALL
GASTEIGER

@<TRIPOS>ATOM
      1 C          -0.0006   -1.5400   -1.8575 C.3     1  LIG1       -0.0590
      2 C           0.7176   -1.3913   -0.4935 C.3     1  LIG1       -0.0255
      3 C          -0.2435   -0.9149    0.6343 C.3     1  LIG1       -0.0144
      4 C          -1.3000   -1.9784    0.9166 C.2     1  LIG1       -0.0730
      5 C          -0.7150   -3.3170    1.3084 C.3     1  LIG1       -0.0317
      6 C           0.2764   -3.8192    0.2595 C.3     1  LIG1       -0.0489
      7 C           1.3296   -2.7636   -0.0933 C.3     1  LIG1       -0.0468
      8 C          -2.6291   -1.8019    0.8347 C.2     1  LIG1       -0.0992
      9 H           0.3467   -0.8443    1.5624 H       1  LIG1        0.0351
     10 C          -0.7683    0.5127    0.3792 C.3     1  LIG1       -0.0406
     11 C           0.3754    1.5444    0.2227 C.3     1  LIG1       -0.0121
     12 H           0.9180    1.5754    1.1787 H       1  LIG1        0.0328
     13 C           1.3749    1.0705   -0.8544 C.3     1  LIG1       -0.0471
     14 C           1.8623   -0.3619   -0.6293 C.3     1  LIG1       -0.0467
     15 C          -0.1607    2.9861   -0.0604 C.3     1  LIG1        0.0633
     16 C           0.9800    4.0069   -0.1849 C.3     1  LIG1       -0.0361
     17 O          -0.8741    2.9775   -1.3009 O.3     1  LIG1       -0.3888
     18 C          -1.1289    3.4640    1.0318 C.3     1  LIG1       -0.0361
     19 H          -0.8244   -2.2590   -1.8189 H       1  LIG1        0.0235
     20 H           0.6993   -1.8891   -2.6256 H       1  LIG1        0.0235
     21 H          -0.4240   -0.5967   -2.2133 H       1  LIG1        0.0235
     22 H          -1.4976   -4.0715    1.4521 H       1  LIG1        0.0310
     23 H          -0.2041   -3.2085    2.2735 H       1  LIG1        0.0310
     24 H          -0.2637   -4.1252   -0.6442 H       1  LIG1        0.0268
     25 H           0.7783   -4.7183    0.6362 H       1  LIG1        0.0268
     26 H           1.9670   -3.1456   -0.9006 H       1  LIG1        0.0271
     27 H           1.9843   -2.6310    0.7786 H       1  LIG1        0.0271
     28 H          -3.0743   -0.8556    0.5469 H       1  LIG1        0.0534
     29 H          -3.3204   -2.6118    1.0485 H       1  LIG1        0.0534
     30 H          -1.3929    0.8000    1.2332 H       1  LIG1        0.0275
     31 H          -1.4147    0.5339   -0.5059 H       1  LIG1        0.0275
     32 H           2.2586    1.7186   -0.8542 H       1  LIG1        0.0269
     33 H           0.9303    1.1577   -1.8520 H       1  LIG1        0.0269
     34 H           2.4763   -0.3735    0.2815 H       1  LIG1        0.0271
     35 H           2.5313   -0.6461   -1.4515 H       1  LIG1        0.0271
     36 H           0.5836    5.0226   -0.3024 H       1  LIG1        0.0257
     37 H           1.5870    3.8276   -1.0783 H       1  LIG1        0.0257
     38 H           1.6286    3.9938    0.6968 H       1  LIG1        0.0257
     39 H          -1.2041    3.8774   -1.4654 H       1  LIG1        0.2101
     40 H          -1.4248    4.5062    0.8619 H       1  LIG1        0.0257
     41 H          -0.6775    3.3959    2.0267 H       1  LIG1        0.0257
     42 H          -2.0629    2.8929    1.0224 H       1  LIG1        0.0257
@<TRIPOS>BOND
     1     1     2    1
     2     2     3    1
     3     3     4    1
     4     4     5    1
     5     5     6    1
     6     6     7    1
     7     2     7    1
     8     4     8    2
     9     3     9    1
    10     3    10    1
    11    10    11    1
    12    11    13    1
    13    13    14    1
    14     2    14    1
    15    15    16    1
    16    15    17    1
    17    15    18    1
    18    11    15    1
    19    11    12    1
    20     1    19    1
    21     1    20    1
    22     1    21    1
    23     5    22    1
    24     5    23    1
    25     6    24    1
    26     6    25    1
    27     7    26    1
    28     7    27    1
    29     8    28    1
    30     8    29    1
    31    10    30    1
    32    10    31    1
    33    13    32    1
    34    13    33    1
    35    14    34    1
    36    14    35    1
    37    16    36    1
    38    16    37    1
    39    16    38    1
    40    17    39    1
    41    18    40    1
    42    18    41    1
    43    18    42    1
