REMARK  Name = NuBBE_2482
REMARK  12 active torsions:
REMARK  status: ('A' for Active; 'I' for Inactive)
REMARK    1  A    between atoms: C_1  and  C_2
REMARK    2  A    between atoms: C_1  and  C_4
REMARK    3  A    between atoms: C_9  and  O_11
REMARK    4  A    between atoms: O_11  and  C_12
REMARK    5  A    between atoms: C_14  and  C_19
REMARK    6  A    between atoms: C_16  and  C_18
REMARK    7  A    between atoms: C_21  and  O_22
REMARK    8  A    between atoms: O_22  and  C_23
REMARK    9  A    between atoms: C_24  and  O_29
REMARK   10  A    between atoms: C_25  and  O_27
REMARK   11  A    between atoms: O_27  and  C_28
REMARK   12  A    between atoms: O_29  and  C_30
REMARK                            x       y       z     vdW  Elec       q    Type
REMARK                         _______ _______ _______ _____ _____    ______ ____
ROOT
ATOM      1  C   LIG A   1      -1.777   0.812  -1.358  0.00  0.00    +0.059 C 
ATOM      2  C   LIG A   1      -0.377   1.306  -1.519  0.00  0.00    +0.113 C 
ATOM      3  C   LIG A   1       0.014   2.576  -1.358  0.00  0.00    +0.096 C 
ATOM      4  C   LIG A   1      -0.973   3.591  -0.968  0.00  0.00    +0.223 C 
ATOM      5  O   LIG A   1      -0.643   4.779  -1.035  0.00  0.00    -0.284 OA
ATOM      6  C   LIG A   1      -2.312   3.101  -0.458  0.00  0.00    +0.164 C 
ATOM      7  C   LIG A   1      -2.651   1.822  -0.650  0.00  0.00    +0.038 C 
ATOM      8  O   LIG A   1       0.523   0.292  -1.712  0.00  0.00    -0.487 OA
ATOM      9  C   LIG A   1      -0.028  -0.870  -1.039  0.00  0.00    +0.207 C 
ATOM     10  C   LIG A   1      -1.480  -0.502  -0.586  0.00  0.00    +0.049 C 
ATOM     11  C   LIG A   1      -1.709  -0.398   0.929  0.00  0.00    +0.013 C 
ENDROOT
BRANCH   9  12
ATOM     12  C   LIG A   1       0.981  -1.379  -0.015  0.00  0.00    +0.000 A 
ATOM     13  C   LIG A   1       2.209  -0.730   0.172  0.00  0.00    +0.057 A 
ATOM     14  C   LIG A   1       3.140  -1.161   1.125  0.00  0.00    +0.166 A 
ATOM     15  C   LIG A   1       2.886  -2.318   1.889  0.00  0.00    +0.203 A 
ATOM     16  C   LIG A   1       1.678  -3.011   1.686  0.00  0.00    +0.166 A 
ATOM     17  C   LIG A   1       0.747  -2.538   0.736  0.00  0.00    +0.057 A 
BRANCH  14  18
ATOM     18  O   LIG A   1       4.345  -0.520   1.314  0.00  0.00    -0.491 OA
ATOM     19  C   LIG A   1       4.350   0.879   1.036  0.00  0.00    +0.277 C 
ENDBRANCH  14  18
BRANCH  16  20
ATOM     20  O   LIG A   1       1.388  -4.091   2.485  0.00  0.00    -0.491 OA
ATOM     21  C   LIG A   1       0.585  -5.103   1.881  0.00  0.00    +0.277 C 
ENDBRANCH  16  20
BRANCH  15  22
ATOM     22  O   LIG A   1       3.846  -2.607   2.826  0.00  0.00    -0.488 OA
ATOM     23  C   LIG A   1       4.072  -3.955   3.210  0.00  0.00    +0.277 C 
ENDBRANCH  15  22
ENDBRANCH   9  12
BRANCH   6  24
ATOM     24  O   LIG A   1      -3.233   3.925   0.197  0.00  0.00    -0.492 OA
ATOM     25  C   LIG A   1      -2.853   5.279   0.422  0.00  0.00    +0.277 C 
ENDBRANCH   6  24
BRANCH   1  26
ATOM     26  C   LIG A   1      -2.411   0.489  -2.759  0.00  0.00    +0.045 C 
BRANCH  26  27
ATOM     27  C   LIG A   1      -2.478   1.656  -3.720  0.00  0.00    -0.033 C 
ATOM     28  C   LIG A   1      -3.534   2.466  -3.868  0.00  0.00    +0.004 C 
ENDBRANCH  26  27
ENDBRANCH   1  26
TORSDOF 7
