@<TRIPOS>MOLECULE
NuBBE_1652
 78 81 0 0 0
SMALL
GASTEIGER

@<TRIPOS>ATOM
      1 C          -2.0240   -0.1849    1.6788 C.3     1  LIG1       -0.0588
      2 C          -0.9522   -0.6266    0.6430 C.3     1  LIG1       -0.0231
      3 C          -0.5723    0.5854   -0.3580 C.3     1  LIG1       -0.0230
      4 C           0.0429    0.0606   -1.6951 C.3     1  LIG1       -0.0588
      5 C           0.4788    1.6068    0.2188 C.3     1  LIG1       -0.0286
      6 H           1.4290    1.4965   -0.3233 H       1  LIG1        0.0312
      7 C          -0.0974    3.0340   -0.0621 C.3     1  LIG1       -0.0168
      8 H          -0.6446    3.3439    0.8428 H       1  LIG1        0.0348
      9 C          -1.1640    2.8245   -1.1340 C.3     1  LIG1       -0.0457
     10 C          -1.7765    1.4874   -0.7444 C.3     1  LIG1       -0.0463
     11 C           0.9292    4.1239   -0.3670 C.2     1  LIG1       -0.0730
     12 C           1.4157    4.8483    0.6594 C.2     1  LIG1       -0.0992
     13 C           1.4560    4.3332   -1.7895 C.3     1  LIG1       -0.0283
     14 C           0.6428    5.2968   -2.6880 C.3     1  LIG1       -0.0304
     15 C           1.2372    5.5078   -4.0688 C.2     1  LIG1       -0.0778
     16 C           0.9457    4.8399   -5.2124 C.2     1  LIG1       -0.0152
     17 C           1.6215    5.2764   -6.4710 C.2     1  LIG1        0.1457
     18 O           1.4585    4.7120   -7.5564 O.2     1  LIG1       -0.2961
     19 C          -0.0004    3.6915   -5.3698 C.3     1  LIG1       -0.0370
     20 C           0.8142    1.3956    1.6958 C.3     1  LIG1       -0.0489
     21 C           1.1937   -0.0445    2.0295 C.3     1  LIG1       -0.0489
     22 C           0.3713   -1.1484    1.3177 C.3     1  LIG1       -0.0294
     23 H           1.0098   -1.4311    0.4668 H       1  LIG1        0.0312
     24 C           0.2613   -2.5053    2.1523 C.3     1  LIG1       -0.0246
     25 C          -0.4780   -2.2863    3.4965 C.3     1  LIG1       -0.0590
     26 C          -0.4156   -3.5929    1.2376 C.3     1  LIG1       -0.0235
     27 H           0.2422   -3.6641    0.3544 H       1  LIG1        0.0315
     28 C          -1.7684   -3.0996    0.6831 C.3     1  LIG1       -0.0483
     29 C          -1.5934   -1.8155   -0.1368 C.3     1  LIG1       -0.0466
     30 C          -0.4420   -5.0548    1.8094 C.3     1  LIG1        0.0267
     31 C          -1.4107   -5.2861    2.9786 C.3     1  LIG1       -0.0528
     32 C          -0.8390   -6.0466    0.6864 C.3     1  LIG1       -0.0528
     33 C           0.9737   -5.4307    2.2815 C.2     1  LIG1        0.1392
     34 O           1.4276   -6.5700    2.1480 O.2     1  LIG1       -0.2968
     35 C           1.7553   -4.4099    3.0749 C.3     1  LIG1        0.0069
     36 C           1.7012   -3.0185    2.4565 C.3     1  LIG1       -0.0404
     37 H          -1.7358    0.6831    2.2689 H       1  LIG1        0.0235
     38 H          -2.2899   -0.9681    2.3848 H       1  LIG1        0.0235
     39 H          -2.9752    0.0509    1.1883 H       1  LIG1        0.0235
     40 H           0.8786   -0.6233   -1.5197 H       1  LIG1        0.0235
     41 H           0.4381    0.8758   -2.3119 H       1  LIG1        0.0235
     42 H          -0.7025   -0.4508   -2.3123 H       1  LIG1        0.0235
     43 H          -0.7474    2.7668   -2.1420 H       1  LIG1        0.0271
     44 H          -1.9094    3.6267   -1.1214 H       1  LIG1        0.0271
     45 H          -2.3799    1.0663   -1.5545 H       1  LIG1        0.0271
     46 H          -2.4455    1.6843    0.0963 H       1  LIG1        0.0271
     47 H           1.0810    4.6756    1.6805 H       1  LIG1        0.0534
     48 H           2.1726    5.6143    0.5265 H       1  LIG1        0.0534
     49 H           1.5403    3.3570   -2.2801 H       1  LIG1        0.0313
     50 H           2.4854    4.7141   -1.7269 H       1  LIG1        0.0313
     51 H           0.5931    6.2850   -2.2096 H       1  LIG1        0.0311
     52 H          -0.3962    4.9691   -2.7788 H       1  LIG1        0.0311
     53 H           1.9497    6.3323   -4.1199 H       1  LIG1        0.0576
     54 H           2.2801    6.1626   -6.3800 H       1  LIG1        0.1078
     55 H          -0.6742    3.5763   -4.5204 H       1  LIG1        0.0278
     56 H           0.5608    2.7585   -5.4924 H       1  LIG1        0.0278
     57 H          -0.6300    3.8248   -6.2589 H       1  LIG1        0.0278
     58 H          -0.0165    1.7110    2.3333 H       1  LIG1        0.0268
     59 H           1.6471    2.0485    1.9849 H       1  LIG1        0.0268
     60 H           1.1761   -0.1540    3.1181 H       1  LIG1        0.0268
     61 H           2.2476   -0.1874    1.7515 H       1  LIG1        0.0268
     62 H          -0.4539   -1.2447    3.8267 H       1  LIG1        0.0235
     63 H          -0.0403   -2.8556    4.3204 H       1  LIG1        0.0235
     64 H          -1.5296   -2.5768    3.4499 H       1  LIG1        0.0235
     65 H          -2.5057   -2.9594    1.4776 H       1  LIG1        0.0269
     66 H          -2.1977   -3.8451    0.0062 H       1  LIG1        0.0269
     67 H          -2.5640   -1.5159   -0.5517 H       1  LIG1        0.0271
     68 H          -0.9705   -2.0963   -0.9922 H       1  LIG1        0.0271
     69 H          -1.4939   -6.3561    3.2075 H       1  LIG1        0.0239
     70 H          -2.4186   -4.9265    2.7498 H       1  LIG1        0.0239
     71 H          -1.0761   -4.8171    3.9061 H       1  LIG1        0.0239
     72 H          -1.8795   -5.9178    0.3731 H       1  LIG1        0.0239
     73 H          -0.7429   -7.0885    1.0157 H       1  LIG1        0.0239
     74 H          -0.1959   -5.9281   -0.1929 H       1  LIG1        0.0239
     75 H           2.8020   -4.7351    3.1109 H       1  LIG1        0.0342
     76 H           1.3860   -4.4190    4.1041 H       1  LIG1        0.0342
     77 H           2.2795   -3.0404    1.5228 H       1  LIG1        0.0275
     78 H           2.2238   -2.3253    3.1262 H       1  LIG1        0.0275
@<TRIPOS>BOND
     1     1     2    1
     2     2     3    1
     3     3     4    1
     4     3     5    1
     5     5     6    1
     6     5     7    1
     7     7     8    1
     8     7     9    1
     9     9    10    1
    10     3    10    1
    11     7    11    1
    12    11    12    2
    13    11    13    1
    14    13    14    1
    15    14    15    1
    16    15    16    2
    17    16    17    1
    18    17    18    2
    19    16    19    1
    20     5    20    1
    21    20    21    1
    22    21    22    1
    23    22    23    1
    24     2    22    1
    25    22    24    1
    26    24    25    1
    27    24    26    1
    28    26    27    1
    29    26    28    1
    30    28    29    1
    31     2    29    1
    32    26    30    1
    33    30    31    1
    34    30    32    1
    35    30    33    1
    36    33    34    2
    37    33    35    1
    38    35    36    1
    39    24    36    1
    40     1    37    1
    41     1    38    1
    42     1    39    1
    43     4    40    1
    44     4    41    1
    45     4    42    1
    46     9    43    1
    47     9    44    1
    48    10    45    1
    49    10    46    1
    50    12    47    1
    51    12    48    1
    52    13    49    1
    53    13    50    1
    54    14    51    1
    55    14    52    1
    56    15    53    1
    57    17    54    1
    58    19    55    1
    59    19    56    1
    60    19    57    1
    61    20    58    1
    62    20    59    1
    63    21    60    1
    64    21    61    1
    65    25    62    1
    66    25    63    1
    67    25    64    1
    68    28    65    1
    69    28    66    1
    70    29    67    1
    71    29    68    1
    72    31    69    1
    73    31    70    1
    74    31    71    1
    75    32    72    1
    76    32    73    1
    77    32    74    1
    78    35    75    1
    79    35    76    1
    80    36    77    1
    81    36    78    1
