REMARK  Name = NuBBE_2214
REMARK  4 active torsions:
REMARK  status: ('A' for Active; 'I' for Inactive)
REMARK    1  A    between atoms: O_1  and  C_2
REMARK    2  A    between atoms: O_1  and  C_3
REMARK    3  A    between atoms: C_9  and  C_12
REMARK    4  A    between atoms: C_13  and  O_16
REMARK                            x       y       z     vdW  Elec       q    Type
REMARK                         _______ _______ _______ _____ _____    ______ ____
ROOT
ATOM      1  C   LIG A   1      -0.853  -1.111  -0.217  0.00  0.00    +0.124 A 
ATOM      2  C   LIG A   1      -0.142   0.095  -0.353  0.00  0.00    +0.015 A 
ATOM      3  C   LIG A   1       1.258   0.072  -0.475  0.00  0.00    +0.107 A 
ATOM      4  C   LIG A   1       2.015   1.335  -0.661  0.00  0.00    +0.343 C 
ATOM      5  O   LIG A   1       3.204   1.302  -0.963  0.00  0.00    -0.245 OA
ATOM      6  O   LIG A   1       1.347   2.503  -0.497  0.00  0.00    -0.458 OA
ATOM      7  C   LIG A   1       0.044   2.528   0.119  0.00  0.00    +0.178 C 
ATOM      8  C   LIG A   1      -0.846   1.422  -0.437  0.00  0.00    +0.084 C 
ATOM      9  C   LIG A   1       0.191   2.501   1.639  0.00  0.00    +0.052 C 
ATOM     10  C   LIG A   1       1.939  -1.151  -0.443  0.00  0.00    +0.131 A 
ATOM     11  C   LIG A   1       1.238  -2.340  -0.283  0.00  0.00    +0.050 A 
ATOM     12  C   LIG A   1      -0.154  -2.321  -0.172  0.00  0.00    +0.049 A 
ENDROOT
BRANCH   1  13
ATOM     13  O   LIG A   1      -2.215  -0.993  -0.136  0.00  0.00    -0.495 OA
ATOM     14  C   LIG A   1      -2.972  -2.193  -0.026  0.00  0.00    +0.277 C 
ENDBRANCH   1  13
BRANCH  10  15
ATOM     15  O   LIG A   1       3.298  -1.265  -0.568  0.00  0.00    -0.506 OA
ATOM     16  H   LIG A   1       3.670  -0.376  -0.766  0.00  0.00    +0.292 HD
ENDBRANCH  10  15
TORSDOF 2
