REMARK  Name = NuBBE_1325
REMARK  8 active torsions:
REMARK  status: ('A' for Active; 'I' for Inactive)
REMARK    1  A    between atoms: C_2  and  C_3
REMARK    2  A    between atoms: C_2  and  C_17
REMARK    3  A    between atoms: C_4  and  O_5
REMARK    4  A    between atoms: O_5  and  C_6
REMARK    5  A    between atoms: C_10  and  C_11
REMARK    6  A    between atoms: C_10  and  C_12
REMARK    7  A    between atoms: C_17  and  C_18
REMARK    8  A    between atoms: C_18  and  C_19
REMARK                            x       y       z     vdW  Elec       q    Type
REMARK                         _______ _______ _______ _____ _____    ______ ____
ROOT
ATOM      1  C   LIG A   1       0.320  -0.154  -1.217  0.00  0.00    +0.060 A 
ATOM      2  C   LIG A   1       0.530  -1.265  -0.374  0.00  0.00    +0.141 A 
ATOM      3  C   LIG A   1       1.196  -1.072   0.861  0.00  0.00    +0.059 A 
ATOM      4  C   LIG A   1       1.206  -2.078   1.924  0.00  0.00    +0.015 C 
ATOM      5  C   LIG A   1       2.055  -1.913   2.946  0.00  0.00    +0.020 C 
ATOM      6  C   LIG A   1       2.981  -0.721   3.038  0.00  0.00    +0.123 C 
ATOM      7  C   LIG A   1       4.384  -1.064   2.517  0.00  0.00    +0.060 C 
ATOM      8  C   LIG A   1       3.090  -0.279   4.505  0.00  0.00    +0.060 C 
ATOM      9  O   LIG A   1       2.492   0.424   2.301  0.00  0.00    -0.481 OA
ATOM     10  C   LIG A   1       1.803   0.163   1.143  0.00  0.00    +0.132 A 
ATOM     11  C   LIG A   1       1.682   1.224   0.251  0.00  0.00    +0.047 A 
ATOM     12  C   LIG A   1       0.933   1.069  -0.907  0.00  0.00    +0.019 A 
ENDROOT
BRANCH   1  14
ATOM     13  O   LIG A   1      -0.327   0.613  -3.352  0.00  0.00    -0.291 OA
ATOM     14  C   LIG A   1      -0.616  -0.115  -2.377  0.00  0.00    +0.174 C 
BRANCH  14  15
ATOM     15  C   LIG A   1      -1.910  -0.883  -2.344  0.00  0.00    +0.159 C 
BRANCH  15  16
ATOM     16  C   LIG A   1      -3.175  -0.086  -2.600  0.00  0.00    +0.171 C 
ATOM     17  O   LIG A   1      -4.107  -0.596  -3.234  0.00  0.00    -0.292 OA
BRANCH  16  18
ATOM     18  C   LIG A   1      -3.385   1.286  -2.037  0.00  0.00    +0.018 A 
ATOM     19  C   LIG A   1      -4.296   2.135  -2.690  0.00  0.00    +0.011 A 
ATOM     20  C   LIG A   1      -4.552   3.423  -2.208  0.00  0.00    +0.001 A 
ATOM     21  C   LIG A   1      -3.902   3.877  -1.065  0.00  0.00    +0.000 A 
ATOM     22  C   LIG A   1      -3.015   3.035  -0.394  0.00  0.00    +0.001 A 
ATOM     23  C   LIG A   1      -2.769   1.737  -0.866  0.00  0.00    +0.011 A 
ENDBRANCH  16  18
ENDBRANCH  15  16
ENDBRANCH  14  15
ENDBRANCH   1  14
BRANCH   2  24
ATOM     24  O   LIG A   1       0.036  -2.515  -0.653  0.00  0.00    -0.494 OA
ATOM     25  C   LIG A   1       0.630  -3.129  -1.807  0.00  0.00    +0.277 C 
ENDBRANCH   2  24
TORSDOF 5
