REMARK  Name = NuBBE_189
REMARK  7 active torsions:
REMARK  status: ('A' for Active; 'I' for Inactive)
REMARK    1  A    between atoms: O_1  and  C_2
REMARK    2  A    between atoms: C_4  and  O_28
REMARK    3  A    between atoms: C_6  and  C_7
REMARK    4  A    between atoms: C_6  and  C_27
REMARK    5  A    between atoms: C_10  and  C_12
REMARK    6  A    between atoms: C_17  and  C_18
REMARK    7  A    between atoms: C_17  and  O_19
REMARK                            x       y       z     vdW  Elec       q    Type
REMARK                         _______ _______ _______ _____ _____    ______ ____
ROOT
ATOM      1  C   LIG A   1      -1.251  -3.670  -0.883  0.00  0.00    +0.144 C 
ATOM      2  C   LIG A   1       0.157  -3.825  -0.188  0.00  0.00    +0.149 C 
ATOM      3  C   LIG A   1       0.288  -2.358   0.395  0.00  0.00    -0.003 C 
ATOM      4  C   LIG A   1      -1.205  -1.940   1.075  0.00  0.00    +0.014 C 
ATOM      5  C   LIG A   1       0.771  -1.547  -0.967  0.00  0.00    +0.003 C 
ATOM      6  C   LIG A   1      -0.477  -0.817  -1.402  0.00  0.00    -0.023 C 
ATOM      7  C   LIG A   1      -1.414  -2.259  -1.656  0.00  0.00    +0.041 C 
ATOM      8  C   LIG A   1      -0.673  -0.176  -2.786  0.00  0.00    +0.012 C 
ATOM      9  C   LIG A   1       2.058  -0.756  -1.024  0.00  0.00    +0.005 C 
ATOM     10  C   LIG A   1       2.045   0.310   0.006  0.00  0.00    +0.007 C 
ATOM     11  C   LIG A   1       0.690   1.017   0.027  0.00  0.00    -0.023 C 
ATOM     12  C   LIG A   1       0.744   1.817   1.820  0.00  0.00    +0.041 C 
ATOM     13  C   LIG A   1      -0.077   3.525   1.621  0.00  0.00    +0.067 C 
ATOM     14  C   LIG A   1      -1.375   3.665   2.432  0.00  0.00    +0.041 C 
ATOM     15  C   LIG A   1      -0.619   0.284  -0.152  0.00  0.00    +0.002 C 
ATOM     16  C   LIG A   1      -0.747   1.794   0.260  0.00  0.00    +0.005 C 
ATOM     17  C   LIG A   1       1.008   3.003   0.122  0.00  0.00    +0.006 C 
ATOM     18  C   LIG A   1      -0.049   3.826  -0.211  0.00  0.00    +0.021 C 
ATOM     19  C   LIG A   1       0.348   2.419  -1.349  0.00  0.00    +0.013 C 
ATOM     20  C   LIG A   1       1.093  -2.283   1.688  0.00  0.00    +0.014 C 
ENDROOT
BRANCH   1  21
ATOM     21  O   LIG A   1      -2.326  -4.485  -1.317  0.00  0.00    -0.389 OA
ATOM     22  H   LIG A   1      -2.464  -5.269  -0.770  0.00  0.00    +0.210 HD
ENDBRANCH   1  21
BRANCH  13  23
ATOM     23  O   LIG A   1       0.750   4.570   2.230  0.00  0.00    -0.389 OA
ATOM     24  H   LIG A   1       0.509   5.399   1.787  0.00  0.00    +0.210 HD
ENDBRANCH  13  23
BRANCH   2  25
ATOM     25  O   LIG A   1       1.287  -4.184  -0.986  0.00  0.00    -0.389 OA
ATOM     26  H   LIG A   1       1.054  -4.135  -1.928  0.00  0.00    +0.210 HD
ENDBRANCH   2  25
TORSDOF 3
