REMARK  Name = NuBBE_1881
REMARK  17 active torsions:
REMARK  status: ('A' for Active; 'I' for Inactive)
REMARK    1  A    between atoms: C_4  and  O_34
REMARK    2  A    between atoms: C_5  and  O_6
REMARK    3  A    between atoms: O_6  and  C_7
REMARK    4  A    between atoms: C_8  and  O_32
REMARK    5  A    between atoms: C_12  and  C_13
REMARK    6  A    between atoms: C_15  and  O_16
REMARK    7  A    between atoms: O_16  and  C_17
REMARK    8  A    between atoms: C_17  and  C_18
REMARK    9  A    between atoms: C_20  and  O_27
REMARK   10  A    between atoms: C_22  and  O_23
REMARK   11  A    between atoms: O_23  and  C_24
REMARK   12  A    between atoms: C_24  and  C_25
REMARK   13  A    between atoms: O_27  and  C_28
REMARK   14  A    between atoms: C_29  and  O_30
REMARK   15  A    between atoms: O_30  and  C_31
REMARK   16  A    between atoms: O_32  and  C_33
REMARK   17  A    between atoms: O_34  and  C_35
REMARK                            x       y       z     vdW  Elec       q    Type
REMARK                         _______ _______ _______ _____ _____    ______ ____
ROOT
ATOM      1  O   LIG A   1      -3.915  -1.272   0.268  0.00  0.00    -0.283 OA
ATOM      2  C   LIG A   1      -2.708  -1.117   0.167  0.00  0.00    +0.238 A 
ATOM      3  C   LIG A   1      -1.735  -2.213   0.381  0.00  0.00    +0.113 A 
ATOM      4  C   LIG A   1      -1.903  -3.548  -0.033  0.00  0.00    +0.180 A 
ATOM      5  C   LIG A   1      -0.856  -4.478   0.216  0.00  0.00    +0.204 A 
ATOM      6  C   LIG A   1       0.289  -4.058   0.939  0.00  0.00    +0.169 A 
ATOM      7  C   LIG A   1       0.438  -2.718   1.288  0.00  0.00    +0.096 A 
ATOM      8  C   LIG A   1      -0.551  -1.810   0.981  0.00  0.00    +0.147 A 
ATOM      9  O   LIG A   1      -0.263  -0.497   1.240  0.00  0.00    -0.451 OA
ATOM     10  C   LIG A   1      -0.856   0.412   0.382  0.00  0.00    +0.184 A 
ATOM     11  C   LIG A   1      -2.069   0.208  -0.169  0.00  0.00    +0.211 A 
ENDROOT
BRANCH  10  12
ATOM     12  C   LIG A   1       0.019   1.569   0.122  0.00  0.00    +0.067 A 
ATOM     13  C   LIG A   1       0.995   1.481  -0.891  0.00  0.00    +0.065 A 
ATOM     14  C   LIG A   1       1.888   2.542  -1.109  0.00  0.00    +0.174 A 
ATOM     15  C   LIG A   1       1.810   3.708  -0.338  0.00  0.00    +0.166 A 
ATOM     16  C   LIG A   1       0.877   3.776   0.694  0.00  0.00    +0.096 A 
ATOM     17  C   LIG A   1      -0.028   2.730   0.905  0.00  0.00    +0.146 A 
BRANCH  15  18
ATOM     18  O   LIG A   1       2.549   4.794  -0.722  0.00  0.00    -0.491 OA
ATOM     19  C   LIG A   1       3.111   5.563   0.335  0.00  0.00    +0.277 C 
ENDBRANCH  15  18
BRANCH  14  20
ATOM     20  O   LIG A   1       2.761   2.421  -2.211  0.00  0.00    -0.422 OA
BRANCH  20  21
ATOM     21  C   LIG A   1       4.013   3.042  -2.112  0.00  0.00    +0.309 C 
ATOM     22  C   LIG A   1       4.156   4.004  -3.263  0.00  0.00    +0.136 C 
ATOM     23  O   LIG A   1       4.842   2.847  -1.243  0.00  0.00    -0.251 OA
ENDBRANCH  20  21
ENDBRANCH  14  20
BRANCH  17  24
ATOM     24  O   LIG A   1      -0.981   2.780   1.952  0.00  0.00    -0.425 OA
BRANCH  24  25
ATOM     25  C   LIG A   1      -1.572   3.990   2.324  0.00  0.00    +0.309 C 
ATOM     26  C   LIG A   1      -2.517   3.740   3.455  0.00  0.00    +0.136 C 
ATOM     27  O   LIG A   1      -1.362   5.101   1.845  0.00  0.00    -0.251 OA
ENDBRANCH  24  25
ENDBRANCH  17  24
ENDBRANCH  10  12
BRANCH   5  28
ATOM     28  O   LIG A   1      -1.079  -5.793  -0.108  0.00  0.00    -0.488 OA
ATOM     29  C   LIG A   1      -0.032  -6.549  -0.715  0.00  0.00    +0.277 C 
ENDBRANCH   5  28
BRANCH  11  30
ATOM     30  O   LIG A   1      -2.666   1.139  -0.997  0.00  0.00    -0.488 OA
ATOM     31  C   LIG A   1      -3.549   0.581  -1.966  0.00  0.00    +0.277 C 
ENDBRANCH  11  30
BRANCH   6  32
ATOM     32  O   LIG A   1       1.252  -4.976   1.272  0.00  0.00    -0.491 OA
ATOM     33  C   LIG A   1       2.014  -4.698   2.443  0.00  0.00    +0.277 C 
ENDBRANCH   6  32
BRANCH   4  34
ATOM     34  O   LIG A   1      -3.103  -3.828  -0.637  0.00  0.00    -0.490 OA
ATOM     35  C   LIG A   1      -3.133  -4.821  -1.654  0.00  0.00    +0.277 C 
ENDBRANCH   4  34
TORSDOF 10
