REMARK  Name = NuBBE_1712
REMARK  1 active torsions:
REMARK  status: ('A' for Active; 'I' for Inactive)
REMARK    1  A    between atoms: C_7  and  O_8
REMARK                            x       y       z     vdW  Elec       q    Type
REMARK                         _______ _______ _______ _____ _____    ______ ____
ROOT
ATOM      1  O   LIG A   1      -2.604   0.245  -0.002  0.00  0.00    -0.286 OA
ATOM      2  C   LIG A   1      -1.380   0.241  -0.002  0.00  0.00    +0.200 A 
ATOM      3  C   LIG A   1      -0.611  -1.010  -0.001  0.00  0.00    +0.068 A 
ATOM      4  C   LIG A   1       0.781  -0.939  -0.002  0.00  0.00    +0.140 A 
ATOM      5  C   LIG A   1       1.532  -2.118  -0.001  0.00  0.00    +0.050 A 
ATOM      6  C   LIG A   1       0.889  -3.359   0.001  0.00  0.00    +0.049 A 
ATOM      7  C   LIG A   1      -0.503  -3.411   0.003  0.00  0.00    +0.118 A 
ATOM      8  C   LIG A   1      -1.262  -2.246   0.001  0.00  0.00    +0.060 A 
ATOM      9  O   LIG A   1       1.489   0.238  -0.003  0.00  0.00    -0.455 OA
ATOM     10  C   LIG A   1       0.784   1.418  -0.002  0.00  0.00    +0.139 A 
ATOM     11  C   LIG A   1       1.535   2.595  -0.002  0.00  0.00    +0.047 A 
ATOM     12  C   LIG A   1       0.892   3.835  -0.001  0.00  0.00    +0.004 A 
ATOM     13  C   LIG A   1      -0.502   3.903  -0.001  0.00  0.00    +0.001 A 
ATOM     14  C   LIG A   1      -1.256   2.730  -0.001  0.00  0.00    +0.015 A 
ATOM     15  C   LIG A   1      -0.607   1.492  -0.002  0.00  0.00    +0.065 A 
ENDROOT
BRANCH   7  16
ATOM     16  O   LIG A   1      -1.168  -4.600   0.006  0.00  0.00    -0.507 OA
ATOM     17  H   LIG A   1      -0.523  -5.326   0.011  0.00  0.00    +0.292 HD
ENDBRANCH   7  16
TORSDOF 1
