@<TRIPOS>MOLECULE
NuBBE_197
 67 72 0 0 0
SMALL
GASTEIGER

@<TRIPOS>ATOM
      1 O          -5.0688    2.6066   -2.3045 O.3     1  LIG1       -0.5058
      2 C          -5.2282    1.4445   -1.5988 C.ar    1  LIG1        0.1347
      3 C          -4.1677    0.7535   -1.0107 C.ar    1  LIG1        0.1055
      4 C          -2.7905    1.2365   -1.1405 C.ar    1  LIG1        0.1966
      5 C          -1.7435    0.4445   -0.4947 C.ar    1  LIG1        0.0288
      6 C          -2.0768   -0.6644    0.1823 C.ar    1  LIG1        0.1392
      7 C          -1.0446   -1.4606    0.8946 C.ar    1  LIG1        0.0182
      8 C           0.2864   -1.5546    0.4230 C.ar    1  LIG1       -0.0396
      9 C           1.2963   -2.2619    1.1151 C.ar    1  LIG1        0.0313
     10 C           2.6752   -2.3691    0.5445 C.ar    1  LIG1        0.0704
     11 C           3.2675   -3.6382    0.3183 C.ar    1  LIG1        0.1349
     12 O           2.4870   -4.7388    0.5782 O.3     1  LIG1       -0.4943
     13 C           3.1626   -5.9186    1.0029 C.3     1  LIG1        0.0788
     14 C           4.5679   -3.7551   -0.1840 C.ar    1  LIG1        0.0231
     15 C           5.3171   -2.6129   -0.4551 C.ar    1  LIG1        0.1347
     16 O           6.5847   -2.7598   -0.9376 O.3     1  LIG1       -0.5058
     17 C           4.7690   -1.3469   -0.2502 C.ar    1  LIG1        0.1061
     18 C           3.4522   -1.2267    0.2291 C.ar    1  LIG1        0.1541
     19 O           2.8633    0.0060    0.4209 O.2     1  LIG1       -0.4537
     20 C           3.5505    1.1468    0.0494 C.ar    1  LIG1        0.1393
     21 C           2.7795    2.3987    0.1767 C.ar    1  LIG1        0.0176
     22 C           1.7629    2.5363    1.1333 C.ar    1  LIG1       -0.0476
     23 C           1.0343    3.7308    1.2411 C.ar    1  LIG1       -0.0193
     24 C           1.3043    4.7986    0.3812 C.ar    1  LIG1        0.1201
     25 O           0.5417    5.9306    0.5157 O.3     1  LIG1       -0.4951
     26 C           0.8647    6.9769   -0.4051 C.3     1  LIG1        0.0788
     27 C           2.3156    4.6610   -0.5660 C.ar    1  LIG1       -0.0193
     28 C           3.0346    3.4772   -0.6765 C.ar    1  LIG1       -0.0476
     29 C           4.8147    1.1529   -0.3785 C.ar    1  LIG1        0.0288
     30 C           5.5446   -0.1136   -0.5242 C.ar    1  LIG1        0.1966
     31 O           6.7100   -0.0792   -0.8576 O.2     1  LIG1       -0.2869
     32 C           0.9188   -2.8663    2.3298 C.ar    1  LIG1        0.1248
     33 O           1.7945   -3.5297    3.1494 O.3     1  LIG1       -0.5062
     34 C          -0.3955   -2.8251    2.7925 C.ar    1  LIG1       -0.0189
     35 C          -1.3731   -2.1374    2.0749 C.ar    1  LIG1       -0.0476
     36 O          -3.3881   -1.1218    0.3207 O.2     1  LIG1       -0.4544
     37 O          -2.5355    2.2584   -1.7650 O.2     1  LIG1       -0.2869
     38 C          -4.4011   -0.4137   -0.2891 C.ar    1  LIG1        0.1462
     39 C          -5.7092   -0.8991   -0.1719 C.ar    1  LIG1        0.0233
     40 C          -6.7724   -0.2217   -0.7889 C.ar    1  LIG1        0.1271
     41 O          -8.0168   -0.7728   -0.6270 O.3     1  LIG1       -0.4949
     42 C          -8.9624   -0.4544   -1.6490 C.3     1  LIG1        0.0788
     43 C          -6.5262    0.9626   -1.4854 C.ar    1  LIG1        0.0225
     44 H          -4.1111    2.8343   -2.3055 H       1  LIG1        0.2922
     45 H          -0.7370    0.8292   -0.5912 H       1  LIG1        0.0693
     46 H           0.5520   -1.0714   -0.5162 H       1  LIG1        0.0632
     47 H           2.4129   -6.5995    1.4164 H       1  LIG1        0.0660
     48 H           3.8895   -5.7012    1.7935 H       1  LIG1        0.0660
     49 H           3.6400   -6.4203    0.1563 H       1  LIG1        0.0660
     50 H           4.9985   -4.7292   -0.3825 H       1  LIG1        0.0691
     51 H           6.8258   -3.6947   -1.0238 H       1  LIG1        0.2922
     52 H           1.5339    1.7169    1.8127 H       1  LIG1        0.0626
     53 H           0.2623    3.8129    2.0032 H       1  LIG1        0.0654
     54 H           0.1586    7.8005   -0.2809 H       1  LIG1        0.0660
     55 H           0.7794    6.6344   -1.4444 H       1  LIG1        0.0660
     56 H           1.8723    7.3620   -0.2050 H       1  LIG1        0.0660
     57 H           2.5780    5.4580   -1.2512 H       1  LIG1        0.0654
     58 H           3.7910    3.4302   -1.4552 H       1  LIG1        0.0626
     59 H           5.3760    2.0422   -0.6369 H       1  LIG1        0.0693
     60 H           2.6460   -3.5992    2.6917 H       1  LIG1        0.2922
     61 H          -0.6545   -3.3325    3.7185 H       1  LIG1        0.0654
     62 H          -2.3881   -2.1221    2.4662 H       1  LIG1        0.0626
     63 H          -5.9058   -1.8116    0.3863 H       1  LIG1        0.0691
     64 H          -9.9050   -0.9550   -1.4096 H       1  LIG1        0.0660
     65 H          -8.6162   -0.8258   -2.6199 H       1  LIG1        0.0660
     66 H          -9.1783    0.6177   -1.6955 H       1  LIG1        0.0660
     67 H          -7.3196    1.5446   -1.9404 H       1  LIG1        0.0691
@<TRIPOS>BOND
     1     1     2    1
     2     2     3   ar
     3     3     4   ar
     4     4     5   ar
     5     5     6   ar
     6     6     7    1
     7     7     8   ar
     8     8     9   ar
     9     9    10    1
    10    10    11   ar
    11    11    12    1
    12    12    13    1
    13    11    14   ar
    14    14    15   ar
    15    15    16    1
    16    15    17   ar
    17    17    18   ar
    18    10    18   ar
    19    18    19   ar
    20    19    20   ar
    21    20    21    1
    22    21    22   ar
    23    22    23   ar
    24    23    24   ar
    25    24    25    1
    26    25    26    1
    27    24    27   ar
    28    27    28   ar
    29    21    28   ar
    30    20    29   ar
    31    29    30   ar
    32    17    30   ar
    33    30    31    2
    34     9    32   ar
    35    32    33    1
    36    32    34   ar
    37    34    35   ar
    38     7    35   ar
    39     6    36   ar
    40     4    37    2
    41     3    38   ar
    42    36    38   ar
    43    38    39   ar
    44    39    40   ar
    45    40    41    1
    46    41    42    1
    47    40    43   ar
    48     2    43   ar
    49     1    44    1
    50     5    45    1
    51     8    46    1
    52    13    47    1
    53    13    48    1
    54    13    49    1
    55    14    50    1
    56    16    51    1
    57    22    52    1
    58    23    53    1
    59    26    54    1
    60    26    55    1
    61    26    56    1
    62    27    57    1
    63    28    58    1
    64    29    59    1
    65    33    60    1
    66    34    61    1
    67    35    62    1
    68    39    63    1
    69    42    64    1
    70    42    65    1
    71    42    66    1
    72    43    67    1
