@<TRIPOS>MOLECULE
NuBBE_2159
 72 75 0 0 0
SMALL
GASTEIGER

@<TRIPOS>ATOM
      1 O           2.2818    4.5743    5.3067 O.3     1  LIG1       -0.3915
      2 C           0.9597    4.9549    4.9119 C.3     1  LIG1        0.0590
      3 H           0.6970    5.8207    5.5300 H       1  LIG1        0.0596
      4 C          -0.0205    3.8083    5.2142 C.3     1  LIG1       -0.0051
      5 C           0.9873    5.3844    3.4388 C.3     1  LIG1       -0.0258
      6 C           0.9954    4.2021    2.4511 C.3     1  LIG1       -0.0413
      7 C          -0.1192    3.1480    2.7268 C.3     1  LIG1       -0.0078
      8 C          -1.5025    3.8296    2.5643 C.3     1  LIG1       -0.0556
      9 C           0.1073    2.7139    4.1721 C.2     1  LIG1       -0.0648
     10 C           0.5374    1.4869    4.5118 C.2     1  LIG1       -0.0839
     11 C           0.8840    0.4136    3.5301 C.3     1  LIG1       -0.0311
     12 C           1.0973    0.9296    2.0935 C.3     1  LIG1       -0.0307
     13 H           2.0613    1.4591    2.1001 H       1  LIG1        0.0309
     14 C           0.0075    1.9561    1.6900 C.3     1  LIG1       -0.0285
     15 H           0.3110    2.4145    0.7387 H       1  LIG1        0.0312
     16 C          -1.3090    1.2097    1.3890 C.3     1  LIG1       -0.0486
     17 C          -1.1332    0.1870    0.2660 C.3     1  LIG1       -0.0468
     18 C          -0.0764   -0.8929    0.5616 C.3     1  LIG1       -0.0256
     19 C          -0.6201   -1.9189    1.5790 C.3     1  LIG1       -0.0590
     20 C           1.2401   -0.2435    1.0847 C.3     1  LIG1       -0.0320
     21 H           1.8694   -1.0213    1.5418 H       1  LIG1        0.0309
     22 C           1.9595    0.2061   -0.1923 C.3     1  LIG1       -0.0492
     23 C           1.5732   -0.7885   -1.2759 C.3     1  LIG1       -0.0489
     24 C           0.4008   -1.6374   -0.7358 C.3     1  LIG1       -0.0294
     25 H           0.8331   -2.5999   -0.4204 H       1  LIG1        0.0312
     26 C          -0.6407   -1.9362   -1.8598 C.3     1  LIG1       -0.0224
     27 H          -1.0478   -0.9836   -2.2239 H       1  LIG1        0.0343
     28 C          -1.8202   -2.8054   -1.4160 C.3     1  LIG1       -0.0587
     29 C           0.0159   -2.6551   -3.0240 C.2     1  LIG1       -0.0848
     30 C          -0.2314   -2.3798   -4.3188 C.2     1  LIG1       -0.0874
     31 C           0.3598   -3.1672   -5.4553 C.3     1  LIG1       -0.0324
     32 C          -0.7106   -3.8493   -6.3323 C.3     1  LIG1       -0.0433
     33 C          -0.0477   -4.6305   -7.4705 C.3     1  LIG1       -0.0624
     34 C          -1.6150   -4.7874   -5.5274 C.3     1  LIG1       -0.0624
     35 H           2.4786    3.7249    4.8739 H       1  LIG1        0.2098
     36 H          -1.0506    4.1798    5.2330 H       1  LIG1        0.0335
     37 H           0.1860    3.4119    6.2162 H       1  LIG1        0.0335
     38 H           1.8769    5.9977    3.2488 H       1  LIG1        0.0290
     39 H           0.1218    6.0233    3.2312 H       1  LIG1        0.0290
     40 H           1.9839    3.7263    2.4954 H       1  LIG1        0.0274
     41 H           0.8935    4.5985    1.4328 H       1  LIG1        0.0274
     42 H          -1.6130    4.7440    3.1530 H       1  LIG1        0.0238
     43 H          -2.3156    3.1688    2.8857 H       1  LIG1        0.0238
     44 H          -1.6735    4.1144    1.5195 H       1  LIG1        0.0238
     45 H           0.7012    1.2396    5.5590 H       1  LIG1        0.0572
     46 H           0.1048   -0.3449    3.5922 H       1  LIG1        0.0310
     47 H           1.8111   -0.0718    3.8619 H       1  LIG1        0.0310
     48 H          -2.0765    1.9084    1.0404 H       1  LIG1        0.0268
     49 H          -1.7058    0.7354    2.2925 H       1  LIG1        0.0268
     50 H          -0.8663    0.7354   -0.6466 H       1  LIG1        0.0271
     51 H          -2.1080   -0.2714    0.0700 H       1  LIG1        0.0271
     52 H          -1.1541   -1.4483    2.4066 H       1  LIG1        0.0235
     53 H           0.1886   -2.5256    2.0021 H       1  LIG1        0.0235
     54 H          -1.3295   -2.6154    1.1307 H       1  LIG1        0.0235
     55 H           3.0452    0.2358   -0.0477 H       1  LIG1        0.0268
     56 H           1.6559    1.2104   -0.5047 H       1  LIG1        0.0268
     57 H           2.4223   -1.4374   -1.5216 H       1  LIG1        0.0268
     58 H           1.3104   -0.2441   -2.1901 H       1  LIG1        0.0268
     59 H          -2.4683   -3.0517   -2.2662 H       1  LIG1        0.0235
     60 H          -2.4565   -2.2923   -0.6920 H       1  LIG1        0.0235
     61 H          -1.4807   -3.7491   -0.9755 H       1  LIG1        0.0235
     62 H           0.6923   -3.4686   -2.7730 H       1  LIG1        0.0572
     63 H          -0.9249   -1.5850   -4.5792 H       1  LIG1        0.0569
     64 H           1.0592   -3.9224   -5.0747 H       1  LIG1        0.0310
     65 H           0.9510   -2.4789   -6.0725 H       1  LIG1        0.0310
     66 H          -1.3430   -3.0727   -6.7817 H       1  LIG1        0.0298
     67 H           0.6256   -5.4039   -7.0844 H       1  LIG1        0.0232
     68 H           0.5343   -3.9643   -8.1155 H       1  LIG1        0.0232
     69 H          -0.8016   -5.1233   -8.0942 H       1  LIG1        0.0232
     70 H          -1.0363   -5.5872   -5.0535 H       1  LIG1        0.0232
     71 H          -2.3656   -5.2504   -6.1770 H       1  LIG1        0.0232
     72 H          -2.1573   -4.2480   -4.7446 H       1  LIG1        0.0232
@<TRIPOS>BOND
     1     2     4    1
     2     2     5    1
     3     5     6    1
     4     6     7    1
     5     7     8    1
     6     7     9    1
     7     4     9    1
     8     9    10    2
     9    10    11    1
    10    11    12    1
    11    12    13    1
    12    12    14    1
    13    14    15    1
    14     7    14    1
    15    14    16    1
    16    16    17    1
    17    17    18    1
    18    18    19    1
    19    18    20    1
    20    20    21    1
    21    12    20    1
    22    20    22    1
    23    22    23    1
    24    23    24    1
    25    24    25    1
    26    18    24    1
    27    26    28    1
    28    26    29    1
    29    29    30    2
    30    30    31    1
    31    31    32    1
    32    32    33    1
    33    32    34    1
    34     2     3    1
    35     2     1    1
    36    26    27    1
    37    26    24    1
    38     1    35    1
    39     4    36    1
    40     4    37    1
    41     5    38    1
    42     5    39    1
    43     6    40    1
    44     6    41    1
    45     8    42    1
    46     8    43    1
    47     8    44    1
    48    10    45    1
    49    11    46    1
    50    11    47    1
    51    16    48    1
    52    16    49    1
    53    17    50    1
    54    17    51    1
    55    19    52    1
    56    19    53    1
    57    19    54    1
    58    22    55    1
    59    22    56    1
    60    23    57    1
    61    23    58    1
    62    28    59    1
    63    28    60    1
    64    28    61    1
    65    29    62    1
    66    30    63    1
    67    31    64    1
    68    31    65    1
    69    32    66    1
    70    33    67    1
    71    33    68    1
    72    33    69    1
    73    34    70    1
    74    34    71    1
    75    34    72    1
