@<TRIPOS>MOLECULE
NuBBE_434
 83 86 0 0 0
SMALL
GASTEIGER

@<TRIPOS>ATOM
      1 C           4.7691   -0.9152    2.8973 C.3     1  LIG1       -0.0438
      2 C           3.8357    0.2638    2.8725 C.2     1  LIG1       -0.0763
      3 C           3.9756    1.3525    1.8125 C.3     1  LIG1       -0.0168
      4 H           3.7691    2.2944    2.3467 H       1  LIG1        0.0348
      5 C           5.3691    1.5097    1.1891 C.3     1  LIG1       -0.0457
      6 C           5.3219    0.6653   -0.0831 C.3     1  LIG1       -0.0468
      7 C           3.9109    0.8973   -0.6782 C.3     1  LIG1       -0.0284
      8 C           4.0143    2.0577   -1.7005 C.3     1  LIG1       -0.0593
      9 C           3.3969   -0.3339   -1.4480 C.3     1  LIG1       -0.0468
     10 C           1.8725   -0.5349   -1.4018 C.3     1  LIG1       -0.0464
     11 C           1.3070   -0.5933    0.0514 C.3     1  LIG1       -0.0233
     12 C           2.0677   -1.7451    0.7744 C.3     1  LIG1       -0.0588
     13 C          -0.2966   -0.9234    0.1654 C.3     1  LIG1       -0.0231
     14 C          -0.6468   -2.1884   -0.6764 C.3     1  LIG1       -0.0463
     15 C          -2.0990   -2.3431   -1.1383 C.3     1  LIG1       -0.0455
     16 C          -3.1543   -1.5982   -0.2990 C.3     1  LIG1       -0.0147
     17 H          -4.0794   -1.7250   -0.8727 H       1  LIG1        0.0351
     18 C          -2.8048   -0.0240   -0.3177 C.3     1  LIG1       -0.0217
     19 C          -3.5003    0.7636    0.8199 C.3     1  LIG1       -0.0587
     20 C          -3.3811    0.6310   -1.6537 C.3     1  LIG1       -0.0367
     21 C          -4.9153    0.6031   -1.8228 C.3     1  LIG1        0.0454
     22 C          -5.3540    1.2179   -3.1281 C.2     1  LIG1        0.3068
     23 O          -5.0512    2.5471   -3.1431 O.3     1  LIG1       -0.4679
     24 C          -5.1316    3.1371   -4.4384 C.3     1  LIG1        0.0817
     25 O          -5.8779    0.5985   -4.0312 O.2     1  LIG1       -0.2509
     26 C          -3.5024   -2.3514    1.0174 C.2     1  LIG1       -0.0761
     27 C          -2.8545   -3.6883    1.3153 C.3     1  LIG1       -0.0438
     28 C          -4.4537   -1.9655    1.8889 C.2     1  LIG1       -0.0994
     29 C          -1.2021    0.2476   -0.3432 C.3     1  LIG1       -0.0292
     30 H          -0.9321    0.3760   -1.4021 H       1  LIG1        0.0312
     31 C          -0.8112    1.5638    0.3476 C.3     1  LIG1       -0.0489
     32 C           0.6563    1.8957    0.1662 C.3     1  LIG1       -0.0491
     33 C           1.6127    0.8016    0.7022 C.3     1  LIG1       -0.0313
     34 H           1.3987    0.7423    1.7692 H       1  LIG1        0.0309
     35 C           3.0567    1.3468    0.5463 C.3     1  LIG1       -0.0258
     36 H           2.9259    2.4308    0.3952 H       1  LIG1        0.0315
     37 C          -0.6052   -1.1859    1.6757 C.3     1  LIG1       -0.0588
     38 C           2.9448    0.3944    3.8748 C.2     1  LIG1       -0.0994
     39 H           4.9213   -1.3455    1.9091 H       1  LIG1        0.0274
     40 H           4.3782   -1.7252    3.5235 H       1  LIG1        0.0274
     41 H           5.7418   -0.6189    3.3009 H       1  LIG1        0.0274
     42 H           6.1885    1.2282    1.8557 H       1  LIG1        0.0271
     43 H           5.5263    2.5623    0.9171 H       1  LIG1        0.0271
     44 H           5.4791   -0.3873    0.1637 H       1  LIG1        0.0271
     45 H           6.1285    0.9445   -0.7690 H       1  LIG1        0.0271
     46 H           4.7092    1.8034   -2.5104 H       1  LIG1        0.0235
     47 H           4.3877    2.9775   -1.2374 H       1  LIG1        0.0235
     48 H           3.0414    2.2762   -2.1520 H       1  LIG1        0.0235
     49 H           3.8903   -1.2466   -1.0950 H       1  LIG1        0.0271
     50 H           3.7012   -0.2791   -2.5022 H       1  LIG1        0.0271
     51 H           1.6881   -1.4690   -1.9394 H       1  LIG1        0.0271
     52 H           1.3823    0.2508   -1.9855 H       1  LIG1        0.0271
     53 H           1.8673   -2.7094    0.2934 H       1  LIG1        0.0235
     54 H           1.8050   -1.8367    1.8303 H       1  LIG1        0.0235
     55 H           3.1461   -1.6179    0.7562 H       1  LIG1        0.0235
     56 H          -0.3204   -3.0939   -0.1538 H       1  LIG1        0.0271
     57 H          -0.0740   -2.2051   -1.6049 H       1  LIG1        0.0271
     58 H          -2.1602   -1.9893   -2.1763 H       1  LIG1        0.0271
     59 H          -2.3377   -3.4116   -1.2169 H       1  LIG1        0.0271
     60 H          -3.1280    0.4972    1.8101 H       1  LIG1        0.0235
     61 H          -4.5804    0.6084    0.8121 H       1  LIG1        0.0235
     62 H          -3.3768    1.8464    0.7058 H       1  LIG1        0.0235
     63 H          -2.9161    0.1681   -2.5336 H       1  LIG1        0.0276
     64 H          -3.0632    1.6839   -1.6855 H       1  LIG1        0.0276
     65 H          -5.4318    1.1439   -1.0254 H       1  LIG1        0.0378
     66 H          -5.2985   -0.4205   -1.8216 H       1  LIG1        0.0378
     67 H          -6.0190    2.8180   -4.9936 H       1  LIG1        0.0661
     68 H          -4.2227    2.8750   -4.9875 H       1  LIG1        0.0661
     69 H          -5.1680    4.2233   -4.3213 H       1  LIG1        0.0661
     70 H          -3.0333   -4.0117    2.3469 H       1  LIG1        0.0274
     71 H          -1.7733   -3.6655    1.2113 H       1  LIG1        0.0274
     72 H          -3.2523   -4.4597    0.6494 H       1  LIG1        0.0274
     73 H          -4.6647   -2.5476    2.7828 H       1  LIG1        0.0534
     74 H          -5.0752   -1.0921    1.7628 H       1  LIG1        0.0534
     75 H          -1.0281    1.5257    1.4221 H       1  LIG1        0.0268
     76 H          -1.3915    2.3963   -0.0656 H       1  LIG1        0.0268
     77 H           0.8452    2.8368    0.7003 H       1  LIG1        0.0268
     78 H           0.8528    2.1016   -0.8918 H       1  LIG1        0.0268
     79 H          -0.3349   -2.2024    1.9769 H       1  LIG1        0.0235
     80 H          -1.6466   -1.0419    1.9381 H       1  LIG1        0.0235
     81 H          -0.0698   -0.5110    2.3466 H       1  LIG1        0.0235
     82 H           2.8586   -0.3501    4.6615 H       1  LIG1        0.0534
     83 H           2.2764    1.2477    3.9426 H       1  LIG1        0.0534
@<TRIPOS>BOND
     1     1     2    1
     2     2     3    1
     3     3     4    1
     4     3     5    1
     5     5     6    1
     6     6     7    1
     7     7     8    1
     8     7     9    1
     9     9    10    1
    10    10    11    1
    11    11    12    1
    12    11    13    1
    13    13    14    1
    14    14    15    1
    15    15    16    1
    16    16    18    1
    17    18    19    1
    18    18    20    1
    19    20    21    1
    20    21    22    1
    21    22    23    1
    22    23    24    1
    23    22    25    2
    24    26    27    1
    25    26    28    2
    26    13    29    1
    27    29    30    1
    28    18    29    1
    29    29    31    1
    30    31    32    1
    31    32    33    1
    32    33    34    1
    33    11    33    1
    34    33    35    1
    35     3    35    1
    36     7    35    1
    37    35    36    1
    38    13    37    1
    39     2    38    2
    40    16    26    1
    41    16    17    1
    42     1    39    1
    43     1    40    1
    44     1    41    1
    45     5    42    1
    46     5    43    1
    47     6    44    1
    48     6    45    1
    49     8    46    1
    50     8    47    1
    51     8    48    1
    52     9    49    1
    53     9    50    1
    54    10    51    1
    55    10    52    1
    56    12    53    1
    57    12    54    1
    58    12    55    1
    59    14    56    1
    60    14    57    1
    61    15    58    1
    62    15    59    1
    63    19    60    1
    64    19    61    1
    65    19    62    1
    66    20    63    1
    67    20    64    1
    68    21    65    1
    69    21    66    1
    70    24    67    1
    71    24    68    1
    72    24    69    1
    73    27    70    1
    74    27    71    1
    75    27    72    1
    76    28    73    1
    77    28    74    1
    78    31    75    1
    79    31    76    1
    80    32    77    1
    81    32    78    1
    82    37    79    1
    83    37    80    1
    84    37    81    1
    85    38    82    1
    86    38    83    1
