@<TRIPOS>MOLECULE
NuBBE_150
 30 31 0 0 0
SMALL
GASTEIGER

@<TRIPOS>ATOM
      1 O          -1.8990    2.3667    3.0182 O.2     1  LIG1       -0.2450
      2 C          -1.1102    2.6632    2.1330 C.2     1  LIG1        0.3389
      3 C          -0.5390    1.6900    1.1629 C.ar    1  LIG1        0.0598
      4 C           0.3139    2.1029    0.1299 C.ar    1  LIG1       -0.0443
      5 C           0.8197    1.1722   -0.7739 C.ar    1  LIG1       -0.0185
      6 C           0.4817   -0.1741   -0.6534 C.ar    1  LIG1        0.1289
      7 O           1.0329   -0.9986   -1.5890 O.3     1  LIG1       -0.4816
      8 C           0.7313   -2.4065   -1.5450 C.3     1  LIG1        0.1235
      9 C           0.0851   -2.7436   -2.8935 C.3     1  LIG1       -0.0215
     10 C          -0.1819   -2.8506   -0.4238 C.2     1  LIG1       -0.0409
     11 C          -0.7031   -2.0133    0.4784 C.2     1  LIG1       -0.0513
     12 C          -0.3660   -0.6026    0.3711 C.ar    1  LIG1        0.0173
     13 C          -0.8782    0.3335    1.2801 C.ar    1  LIG1       -0.0371
     14 C           2.0804   -3.1236   -1.4208 C.3     1  LIG1       -0.0215
     15 O          -0.6333    3.9042    1.8695 O.3     1  LIG1       -0.4645
     16 C          -1.1680    4.9440    2.6863 C.3     1  LIG1        0.0820
     17 H           0.5915    3.1469    0.0116 H       1  LIG1        0.0627
     18 H           1.4776    1.4960   -1.5759 H       1  LIG1        0.0654
     19 H          -0.8592   -2.2001   -3.0196 H       1  LIG1        0.0271
     20 H          -0.1172   -3.8149   -2.9971 H       1  LIG1        0.0271
     21 H           0.7304   -2.4322   -3.7237 H       1  LIG1        0.0271
     22 H          -0.4191   -3.9097   -0.3625 H       1  LIG1        0.0611
     23 H          -1.3572   -2.3572    1.2714 H       1  LIG1        0.0623
     24 H          -1.5433    0.0124    2.0801 H       1  LIG1        0.0633
     25 H           2.7604   -2.8165   -2.2244 H       1  LIG1        0.0271
     26 H           1.9729   -4.2129   -1.4575 H       1  LIG1        0.0271
     27 H           2.5781   -2.8572   -0.4804 H       1  LIG1        0.0271
     28 H          -0.8013    5.8959    2.2917 H       1  LIG1        0.0661
     29 H          -0.8187    4.8353    3.7169 H       1  LIG1        0.0661
     30 H          -2.2610    4.9505    2.6393 H       1  LIG1        0.0661
@<TRIPOS>BOND
     1     1     2    2
     2     2     3    1
     3     3     4   ar
     4     4     5   ar
     5     5     6   ar
     6     6     7    1
     7     7     8    1
     8     8     9    1
     9     8    10    1
    10    10    11    2
    11    11    12    1
    12     6    12   ar
    13    12    13   ar
    14     3    13   ar
    15     8    14    1
    16     2    15    1
    17    15    16    1
    18     4    17    1
    19     5    18    1
    20     9    19    1
    21     9    20    1
    22     9    21    1
    23    10    22    1
    24    11    23    1
    25    13    24    1
    26    14    25    1
    27    14    26    1
    28    14    27    1
    29    16    28    1
    30    16    29    1
    31    16    30    1
