@<TRIPOS>MOLECULE
NuBBE_1529
 32 34 0 0 0
SMALL
GASTEIGER

@<TRIPOS>ATOM
      1 C          -0.4448    0.5979    2.6490 C.3     1  LIG1       -0.0516
      2 C          -0.3809    0.2784    1.1316 C.3     1  LIG1        0.0417
      3 C           1.0350   -0.0370    0.7532 C.2     1  LIG1        0.0525
      4 C           1.5437   -1.2212    0.3832 C.2     1  LIG1        0.0025
      5 C           2.9521   -1.5583    0.0093 C.3     1  LIG1       -0.0359
      6 C           0.5450   -2.3173    0.1976 C.2     1  LIG1        0.1595
      7 O           0.8982   -3.4928    0.1875 O.2     1  LIG1       -0.2924
      8 C          -0.8767   -1.9047   -0.1278 C.3     1  LIG1        0.0111
      9 C          -1.3824   -0.8597    0.8559 C.3     1  LIG1       -0.0326
     10 C           1.7309    1.2676    0.6499 C.2     1  LIG1        0.3368
     11 O           2.9238    1.4788    0.7218 O.2     1  LIG1       -0.2453
     12 O           0.7656    2.2147    0.4534 O.3     1  LIG1       -0.4523
     13 C          -0.5341    1.5881    0.3404 C.3     1  LIG1        0.1408
     14 H          -1.2469    2.2533    0.8454 H       1  LIG1        0.0795
     15 C          -0.9568    1.4627   -1.0948 C.ar    1  LIG1        0.0313
     16 C          -0.1399    1.2756   -2.2506 C.ar    1  LIG1       -0.0172
     17 C          -0.9896    1.2222   -3.3298 C.ar    1  LIG1        0.0921
     18 O          -2.2745    1.3737   -2.9256 O.2     1  LIG1       -0.4706
     19 C          -2.2495    1.5342   -1.5797 C.ar    1  LIG1        0.0984
     20 H          -0.1545   -0.2727    3.2494 H       1  LIG1        0.0240
     21 H          -1.4632    0.8825    2.9389 H       1  LIG1        0.0240
     22 H           0.2164    1.4229    2.9387 H       1  LIG1        0.0240
     23 H           3.6158   -0.6923   -0.0099 H       1  LIG1        0.0279
     24 H           2.9849   -2.0090   -0.9885 H       1  LIG1        0.0279
     25 H           3.3693   -2.2753    0.7242 H       1  LIG1        0.0279
     26 H          -1.5199   -2.7907   -0.0808 H       1  LIG1        0.0345
     27 H          -0.9006   -1.5365   -1.1583 H       1  LIG1        0.0345
     28 H          -1.5925   -1.3948    1.7931 H       1  LIG1        0.0279
     29 H          -2.3520   -0.4660    0.5312 H       1  LIG1        0.0279
     30 H           0.9382    1.1970   -2.2973 H       1  LIG1        0.0653
     31 H          -0.8444    1.0964   -4.3941 H       1  LIG1        0.1029
     32 H          -3.2158    1.6826   -1.1163 H       1  LIG1        0.1033
@<TRIPOS>BOND
     1     1     2    1
     2     2     3    1
     3     3     4    2
     4     4     5    1
     5     4     6    1
     6     6     7    2
     7     6     8    1
     8     8     9    1
     9     2     9    1
    10     3    10    1
    11    10    11    2
    12    10    12    1
    13    12    13    1
    14    13    14    1
    15     2    13    1
    16    13    15    1
    17    15    16   ar
    18    16    17   ar
    19    17    18   ar
    20    18    19   ar
    21    15    19   ar
    22     1    20    1
    23     1    21    1
    24     1    22    1
    25     5    23    1
    26     5    24    1
    27     5    25    1
    28     8    26    1
    29     8    27    1
    30     9    28    1
    31     9    29    1
    32    16    30    1
    33    17    31    1
    34    19    32    1
