REMARK  Name = NuBBE_368
REMARK  13 active torsions:
REMARK  status: ('A' for Active; 'I' for Inactive)
REMARK    1  A    between atoms: O_1  and  C_2
REMARK    2  A    between atoms: C_8  and  O_38
REMARK    3  A    between atoms: C_9  and  C_10
REMARK    4  A    between atoms: C_13  and  C_34
REMARK    5  A    between atoms: C_15  and  O_33
REMARK    6  A    between atoms: C_17  and  O_32
REMARK    7  A    between atoms: C_19  and  O_21
REMARK    8  A    between atoms: O_21  and  C_22
REMARK    9  A    between atoms: C_22  and  C_23
REMARK   10  A    between atoms: C_24  and  C_25
REMARK   11  A    between atoms: C_34  and  O_35
REMARK   12  A    between atoms: C_36  and  O_37
REMARK   13  A    between atoms: C_44  and  O_45
REMARK                            x       y       z     vdW  Elec       q    Type
REMARK                         _______ _______ _______ _____ _____    ______ ____
ROOT
ATOM      1  C   LIG A   1      -0.936   0.963  -2.082  0.00  0.00    +0.199 C 
ATOM      2  O   LIG A   1      -0.399   0.971  -3.420  0.00  0.00    -0.360 OA
ATOM      3  C   LIG A   1      -1.045   1.958  -4.247  0.00  0.00    +0.175 C 
ATOM      4  C   LIG A   1      -0.731   3.372  -3.732  0.00  0.00    +0.177 C 
ATOM      5  C   LIG A   1      -1.255   3.521  -2.307  0.00  0.00    +0.189 C 
ATOM      6  C   LIG A   1      -0.796   2.363  -1.414  0.00  0.00    +0.241 C 
ENDROOT
BRANCH   1  14
ATOM      7  C   LIG A   1       4.579  -4.577   2.251  0.00  0.00    +0.162 A 
ATOM      8  C   LIG A   1       3.221  -4.481   1.945  0.00  0.00    +0.096 A 
ATOM      9  C   LIG A   1       2.756  -3.388   1.208  0.00  0.00    +0.143 A 
ATOM     10  O   LIG A   1       1.406  -3.342   0.951  0.00  0.00    -0.454 OA
ATOM     11  C   LIG A   1       0.913  -2.282   0.224  0.00  0.00    +0.146 A 
ATOM     12  C   LIG A   1      -0.462  -2.266   0.004  0.00  0.00    +0.093 A 
ATOM     13  C   LIG A   1      -1.042  -1.223  -0.734  0.00  0.00    +0.130 A 
ATOM     14  C   LIG A   1      -0.277  -0.170  -1.280  0.00  0.00    +0.068 A 
ATOM     15  C   LIG A   1       1.110  -0.211  -1.041  0.00  0.00    +0.141 A 
ATOM     16  C   LIG A   1       1.695  -1.253  -0.290  0.00  0.00    +0.106 A 
ATOM     17  C   LIG A   1       3.139  -1.286  -0.007  0.00  0.00    +0.204 A 
ATOM     18  O   LIG A   1       3.876  -0.395  -0.415  0.00  0.00    -0.286 OA
ATOM     19  C   LIG A   1       3.654  -2.412   0.781  0.00  0.00    +0.068 A 
ATOM     20  C   LIG A   1       5.016  -2.500   1.091  0.00  0.00    +0.064 A 
ATOM     21  C   LIG A   1       5.472  -3.587   1.830  0.00  0.00    +0.159 A 
BRANCH   7  22
ATOM     22  O   LIG A   1       5.054  -5.638   2.969  0.00  0.00    -0.503 OA
ATOM     23  H   LIG A   1       4.327  -6.245   3.178  0.00  0.00    +0.292 HD
ENDBRANCH   7  22
BRANCH  15  24
ATOM     24  O   LIG A   1       1.885   0.796  -1.560  0.00  0.00    -0.505 OA
ATOM     25  H   LIG A   1       2.819   0.639  -1.294  0.00  0.00    +0.292 HD
ENDBRANCH  15  24
BRANCH  13  26
ATOM     26  O   LIG A   1      -2.397  -1.231  -0.919  0.00  0.00    -0.506 OA
ATOM     27  H   LIG A   1      -2.771  -2.060  -0.573  0.00  0.00    +0.292 HD
ENDBRANCH  13  26
BRANCH  21  28
ATOM     28  O   LIG A   1       6.795  -3.699   2.152  0.00  0.00    -0.503 OA
ATOM     29  H   LIG A   1       7.280  -2.930   1.812  0.00  0.00    +0.292 HD
ENDBRANCH  21  28
ENDBRANCH   1  14
BRANCH   5  30
ATOM     30  O   LIG A   1      -0.795   4.776  -1.766  0.00  0.00    -0.385 OA
ATOM     31  H   LIG A   1      -1.066   5.448  -2.422  0.00  0.00    +0.210 HD
ENDBRANCH   5  30
BRANCH   4  32
ATOM     32  O   LIG A   1      -1.353   4.412  -4.502  0.00  0.00    -0.387 OA
ATOM     33  H   LIG A   1      -1.072   4.334  -5.428  0.00  0.00    +0.210 HD
ENDBRANCH   4  32
BRANCH   6  34
ATOM     34  O   LIG A   1      -1.469   2.400  -0.142  0.00  0.00    -0.453 OA
BRANCH  34  35
ATOM     35  C   LIG A   1      -2.793   2.155  -0.098  0.00  0.00    +0.332 C 
ATOM     36  O   LIG A   1      -3.600   2.215  -1.025  0.00  0.00    -0.246 OA
BRANCH  35  37
ATOM     37  C   LIG A   1      -3.154   1.667   1.234  0.00  0.00    +0.092 C 
ATOM     38  C   LIG A   1      -2.195   1.225   2.066  0.00  0.00    +0.015 C 
BRANCH  38  39
ATOM     39  C   LIG A   1      -2.441   0.666   3.385  0.00  0.00    -0.025 A 
ATOM     40  C   LIG A   1      -1.458   0.836   4.366  0.00  0.00    +0.008 A 
ATOM     41  C   LIG A   1      -1.646   0.307   5.639  0.00  0.00    +0.001 A 
ATOM     42  C   LIG A   1      -2.810  -0.402   5.931  0.00  0.00    +0.000 A 
ATOM     43  C   LIG A   1      -3.781  -0.594   4.949  0.00  0.00    +0.001 A 
ATOM     44  C   LIG A   1      -3.593  -0.070   3.674  0.00  0.00    +0.008 A 
ENDBRANCH  38  39
ENDBRANCH  35  37
ENDBRANCH  34  35
ENDBRANCH   6  34
BRANCH   3  45
ATOM     45  C   LIG A   1      -0.536   1.774  -5.679  0.00  0.00    +0.190 C 
BRANCH  45  46
ATOM     46  O   LIG A   1      -0.824   0.464  -6.161  0.00  0.00    -0.392 OA
ATOM     47  H   LIG A   1      -0.330  -0.144  -5.579  0.00  0.00    +0.209 HD
ENDBRANCH  45  46
ENDBRANCH   3  45
TORSDOF 13
