@<TRIPOS>MOLECULE
NuBBE_68
 42 44 0 0 0
SMALL
GASTEIGER

@<TRIPOS>ATOM
      1 O          -4.1100    3.4238    0.9391 O.3     1  LIG1       -0.5058
      2 C          -2.7559    3.3635    0.7486 C.ar    1  LIG1        0.1343
      3 C          -2.0708    2.1781    0.4755 C.ar    1  LIG1        0.1007
      4 C          -2.7873    0.8994    0.3297 C.2     1  LIG1        0.1740
      5 C          -1.9811   -0.2788   -0.1440 C.3     1  LIG1        0.0520
      6 C          -0.5669   -0.1552    0.4083 C.3     1  LIG1        0.1323
      7 O           0.0475    1.0802   -0.0091 O.3     1  LIG1       -0.4828
      8 C          -0.6922    2.1962    0.2811 C.ar    1  LIG1        0.1389
      9 C          -0.0042    3.4106    0.3379 C.ar    1  LIG1        0.0227
     10 C          -0.6870    4.6014    0.6162 C.ar    1  LIG1        0.1271
     11 O           0.0922    5.7266    0.6586 O.3     1  LIG1       -0.4949
     12 C          -0.5826    6.9435    0.9653 C.3     1  LIG1        0.0788
     13 C          -2.0673    4.5717    0.8220 C.ar    1  LIG1        0.0225
     14 C           0.3008   -1.3159   -0.0599 C.ar    1  LIG1       -0.0033
     15 C           0.4013   -2.4922    0.7025 C.ar    1  LIG1       -0.0096
     16 C           1.1818   -3.5840    0.2761 C.ar    1  LIG1        0.1619
     17 O           1.1814   -4.6370    1.1583 O.3     1  LIG1       -0.4914
     18 C           1.3208   -5.9390    0.5981 C.3     1  LIG1        0.0790
     19 C           1.9162   -3.4879   -0.9165 C.ar    1  LIG1        0.1615
     20 C           1.8022   -2.3266   -1.6884 C.ar    1  LIG1       -0.0159
     21 C           1.0006   -1.2593   -1.2707 C.ar    1  LIG1       -0.0514
     22 O           2.6877   -4.5472   -1.3123 O.3     1  LIG1       -0.4915
     23 C           3.8804   -4.2306   -2.0223 C.3     1  LIG1        0.0790
     24 O          -3.9968    0.8522    0.5203 O.2     1  LIG1       -0.2917
     25 H          -4.4727    2.5135    0.8435 H       1  LIG1        0.2922
     26 H          -2.0005   -0.2668   -1.2403 H       1  LIG1        0.0385
     27 H          -2.4645   -1.1922    0.2132 H       1  LIG1        0.0385
     28 H          -0.5765   -0.1542    1.5078 H       1  LIG1        0.0789
     29 H           1.0703    3.4326    0.1696 H       1  LIG1        0.0691
     30 H           0.1605    7.7446    1.0062 H       1  LIG1        0.0660
     31 H          -1.0672    6.8895    1.9465 H       1  LIG1        0.0660
     32 H          -1.3056    7.1967    0.1820 H       1  LIG1        0.0660
     33 H          -2.6413    5.4690    1.0271 H       1  LIG1        0.0691
     34 H          -0.1369   -2.5800    1.6451 H       1  LIG1        0.0659
     35 H           2.3518   -6.1436    0.2982 H       1  LIG1        0.0660
     36 H           0.6187   -6.0976   -0.2275 H       1  LIG1        0.0660
     37 H           1.0827   -6.6650    1.3821 H       1  LIG1        0.0660
     38 H           2.3204   -2.2278   -2.6366 H       1  LIG1        0.0655
     39 H           0.9380   -0.3765   -1.9043 H       1  LIG1        0.0623
     40 H           4.4742   -5.1471   -2.0975 H       1  LIG1        0.0660
     41 H           4.4783   -3.4854   -1.4869 H       1  LIG1        0.0660
     42 H           3.6598   -3.9028   -3.0424 H       1  LIG1        0.0660
@<TRIPOS>BOND
     1     1     2    1
     2     2     3   ar
     3     3     4    1
     4     4     5    1
     5     5     6    1
     6     6     7    1
     7     7     8    1
     8     3     8   ar
     9     8     9   ar
    10     9    10   ar
    11    10    11    1
    12    11    12    1
    13    10    13   ar
    14     2    13   ar
    15     6    14    1
    16    14    15   ar
    17    15    16   ar
    18    16    17    1
    19    17    18    1
    20    16    19   ar
    21    19    20   ar
    22    20    21   ar
    23    14    21   ar
    24    19    22    1
    25    22    23    1
    26     4    24    2
    27     1    25    1
    28     5    26    1
    29     5    27    1
    30     6    28    1
    31     9    29    1
    32    12    30    1
    33    12    31    1
    34    12    32    1
    35    13    33    1
    36    15    34    1
    37    18    35    1
    38    18    36    1
    39    18    37    1
    40    20    38    1
    41    21    39    1
    42    23    40    1
    43    23    41    1
    44    23    42    1
