REMARK  Name = NuBBE_1426
REMARK  12 active torsions:
REMARK  status: ('A' for Active; 'I' for Inactive)
REMARK    1  A    between atoms: C_5  and  C_6
REMARK    2  A    between atoms: C_16  and  C_17
REMARK    3  A    between atoms: C_20  and  C_22
REMARK    4  A    between atoms: C_25  and  C_26
REMARK    5  A    between atoms: C_26  and  O_28
REMARK    6  A    between atoms: C_26  and  C_29
REMARK    7  A    between atoms: C_29  and  C_30
REMARK    8  A    between atoms: C_29  and  O_31
REMARK    9  A    between atoms: C_29  and  C_32
REMARK   10  A    between atoms: C_34  and  O_35
REMARK   11  A    between atoms: C_36  and  C_37
REMARK   12  A    between atoms: C_36  and  C_38
REMARK                            x       y       z     vdW  Elec       q    Type
REMARK                         _______ _______ _______ _____ _____    ______ ____
ROOT
ATOM      1  O   LIG A   1      -3.022   4.440   4.811  0.00  0.00    -0.297 OA
ATOM      2  C   LIG A   1      -2.802   3.986   3.700  0.00  0.00    +0.139 C 
ATOM      3  C   LIG A   1      -1.592   4.452   2.914  0.00  0.00    +0.075 C 
ATOM      4  C   LIG A   1      -1.022   3.293   2.118  0.00  0.00    +0.015 C 
ATOM      5  C   LIG A   1      -2.001   2.779   1.027  0.00  0.00    -0.021 C 
ATOM      6  C   LIG A   1      -1.767   3.660  -0.234  0.00  0.00    +0.012 C 
ATOM      7  C   LIG A   1      -3.502   2.954   1.480  0.00  0.00    +0.012 C 
ATOM      8  C   LIG A   1      -4.492   2.032   0.703  0.00  0.00    +0.032 C 
ATOM      9  C   LIG A   1      -3.922   1.141  -0.369  0.00  0.00    -0.026 C 
ATOM     10  C   LIG A   1      -2.629   0.763  -0.423  0.00  0.00    -0.064 C 
ATOM     11  C   LIG A   1      -1.740   1.272   0.703  0.00  0.00    +0.021 C 
ATOM     12  C   LIG A   1      -0.275   0.881   0.524  0.00  0.00    +0.009 C 
ATOM     13  C   LIG A   1      -0.213  -0.619   0.296  0.00  0.00    +0.005 C 
ATOM     14  C   LIG A   1      -0.842  -1.054  -1.036  0.00  0.00    +0.002 C 
ATOM     15  C   LIG A   1      -2.012  -0.127  -1.526  0.00  0.00    -0.008 C 
ATOM     16  C   LIG A   1      -3.080  -1.030  -2.202  0.00  0.00    +0.016 C 
ATOM     17  C   LIG A   1      -1.371   0.757  -2.635  0.00  0.00    +0.011 C 
ATOM     18  C   LIG A   1       0.057   0.269  -2.865  0.00  0.00    +0.005 C 
ATOM     19  C   LIG A   1       0.137  -1.121  -2.242  0.00  0.00    -0.001 C 
ATOM     20  C   LIG A   1      -3.724   2.941   3.039  0.00  0.00    +0.027 C 
ATOM     21  C   LIG A   1      -3.437   1.587   3.713  0.00  0.00    +0.019 C 
ATOM     22  C   LIG A   1      -5.176   3.347   3.373  0.00  0.00    +0.019 C 
ENDROOT
BRANCH  19  23
ATOM     23  C   LIG A   1       1.578  -1.570  -1.925  0.00  0.00    +0.021 C 
ATOM     24  C   LIG A   1       1.655  -2.962  -1.291  0.00  0.00    +0.012 C 
ATOM     25  C   LIG A   1       3.155  -3.328  -1.341  0.00  0.00    +0.023 C 
ATOM     26  C   LIG A   1       3.651  -2.599  -2.606  0.00  0.00    +0.037 C 
ATOM     27  C   LIG A   1       2.487  -1.758  -3.140  0.00  0.00    +0.118 C 
BRANCH  27  28
ATOM     28  O   LIG A   1       2.950  -0.510  -3.628  0.00  0.00    -0.392 OA
ATOM     29  H   LIG A   1       3.534  -0.691  -4.384  0.00  0.00    +0.210 HD
ENDBRANCH  27  28
BRANCH  25  30
ATOM     30  C   LIG A   1       3.940  -2.969  -0.042  0.00  0.00    +0.149 C 
BRANCH  30  31
ATOM     31  C   LIG A   1       5.484  -3.273  -0.059  0.00  0.00    +0.086 C 
ATOM     32  C   LIG A   1       5.803  -4.747  -0.342  0.00  0.00    +0.043 C 
ATOM     33  C   LIG A   1       6.132  -2.873   1.276  0.00  0.00    +0.043 C 
BRANCH  31  34
ATOM     34  O   LIG A   1       6.137  -2.482  -1.058  0.00  0.00    -0.387 OA
ATOM     35  H   LIG A   1       7.044  -2.813  -1.168  0.00  0.00    +0.210 HD
ENDBRANCH  31  34
ENDBRANCH  30  31
BRANCH  30  36
ATOM     36  O   LIG A   1       3.356  -3.691   1.056  0.00  0.00    -0.389 OA
ATOM     37  H   LIG A   1       2.484  -3.305   1.242  0.00  0.00    +0.210 HD
ENDBRANCH  30  36
ENDBRANCH  25  30
ENDBRANCH  19  23
TORSDOF 6
