REMARK  Name = NuBBE_1217
REMARK  11 active torsions:
REMARK  status: ('A' for Active; 'I' for Inactive)
REMARK    1  A    between atoms: C_4  and  C_18
REMARK    2  A    between atoms: C_8  and  O_9
REMARK    3  A    between atoms: O_9  and  C_10
REMARK    4  A    between atoms: C_11  and  O_12
REMARK    5  A    between atoms: O_12  and  C_13
REMARK    6  A    between atoms: C_14  and  O_15
REMARK    7  A    between atoms: O_15  and  C_16
REMARK    8  A    between atoms: C_21  and  O_26
REMARK    9  A    between atoms: C_22  and  O_23
REMARK   10  A    between atoms: O_23  and  C_24
REMARK   11  A    between atoms: O_26  and  C_27
REMARK                            x       y       z     vdW  Elec       q    Type
REMARK                         _______ _______ _______ _____ _____    ______ ____
ROOT
ATOM      1  O   LIG A   1      -3.649   0.231   0.421  0.00  0.00    -0.287 OA
ATOM      2  C   LIG A   1      -2.418   0.249   0.451  0.00  0.00    +0.197 A 
ATOM      3  C   LIG A   1      -1.695  -1.033   0.491  0.00  0.00    +0.098 A 
ATOM      4  C   LIG A   1      -0.363  -1.032   0.371  0.00  0.00    +0.139 A 
ATOM      5  O   LIG A   1       0.400   0.105   0.233  0.00  0.00    -0.454 OA
ATOM      6  C   LIG A   1      -0.224   1.321   0.270  0.00  0.00    +0.146 A 
ATOM      7  C   LIG A   1      -1.601   1.479   0.397  0.00  0.00    +0.109 A 
ATOM      8  C   LIG A   1      -2.124   2.775   0.473  0.00  0.00    +0.179 A 
ATOM      9  C   LIG A   1      -1.268   3.903   0.388  0.00  0.00    +0.204 A 
ATOM     10  C   LIG A   1       0.124   3.718   0.253  0.00  0.00    +0.169 A 
ATOM     11  C   LIG A   1       0.630   2.420   0.202  0.00  0.00    +0.096 A 
ENDROOT
BRANCH   4  12
ATOM     12  C   LIG A   1       0.431  -2.266   0.363  0.00  0.00    +0.021 A 
ATOM     13  C   LIG A   1       1.664  -2.285   1.015  0.00  0.00    +0.015 A 
ATOM     14  C   LIG A   1       2.464  -3.419   0.974  0.00  0.00    +0.050 A 
ATOM     15  C   LIG A   1       2.057  -4.566   0.281  0.00  0.00    +0.162 A 
ATOM     16  C   LIG A   1       0.818  -4.555  -0.395  0.00  0.00    +0.162 A 
ATOM     17  C   LIG A   1       0.017  -3.405  -0.339  0.00  0.00    +0.061 A 
BRANCH  16  18
ATOM     18  O   LIG A   1       0.426  -5.691  -1.063  0.00  0.00    -0.491 OA
ATOM     19  C   LIG A   1      -0.504  -5.500  -2.132  0.00  0.00    +0.277 C 
ENDBRANCH  16  18
BRANCH  15  20
ATOM     20  O   LIG A   1       2.833  -5.701   0.217  0.00  0.00    -0.491 OA
ATOM     21  C   LIG A   1       4.062  -5.647   0.944  0.00  0.00    +0.277 C 
ENDBRANCH  15  20
ENDBRANCH   4  12
BRANCH   8  22
ATOM     22  O   LIG A   1      -3.445   2.969   0.794  0.00  0.00    -0.490 OA
ATOM     23  C   LIG A   1      -4.263   3.168  -0.357  0.00  0.00    +0.277 C 
ENDBRANCH   8  22
BRANCH   9  24
ATOM     24  O   LIG A   1      -1.898   5.119   0.523  0.00  0.00    -0.488 OA
ATOM     25  C   LIG A   1      -1.331   6.226  -0.168  0.00  0.00    +0.277 C 
ENDBRANCH   9  24
BRANCH  10  26
ATOM     26  O   LIG A   1       0.941   4.816   0.263  0.00  0.00    -0.491 OA
ATOM     27  C   LIG A   1       2.289   4.648  -0.163  0.00  0.00    +0.277 C 
ENDBRANCH  10  26
TORSDOF 6
