@<TRIPOS>MOLECULE
NuBBE_2
 43 43 0 0 0
SMALL
GASTEIGER

@<TRIPOS>ATOM
      1 O          -5.9356   -1.2917    1.8831 O.2     1  LIG1       -0.2451
      2 C          -5.2404   -1.8708    2.7267 C.2     1  LIG1        0.3369
      3 C          -3.8233   -2.2134    2.4808 C.ar    1  LIG1        0.0625
      4 C          -2.9082   -2.3681    3.5288 C.ar    1  LIG1       -0.0026
      5 C          -1.5872   -2.7033    3.2439 C.ar    1  LIG1        0.1593
      6 O          -0.7648   -2.8555    4.3281 O.3     1  LIG1       -0.5033
      7 C          -1.1292   -2.8533    1.9272 C.ar    1  LIG1        0.1622
      8 C          -2.0424   -2.6914    0.8841 C.ar    1  LIG1       -0.0155
      9 C          -3.3763   -2.3635    1.1595 C.ar    1  LIG1       -0.0441
     10 O           0.1987   -3.1480    1.7659 O.3     1  LIG1       -0.4843
     11 C           0.8175   -2.7814    0.5174 C.3     1  LIG1        0.1082
     12 C           0.9746   -1.2861    0.4026 C.2     1  LIG1       -0.0481
     13 C           1.0833   -0.5242   -0.7090 C.2     1  LIG1       -0.0731
     14 C           1.5382    0.9295   -0.5559 C.3     1  LIG1       -0.0285
     15 C           1.0370    1.9407   -1.6028 C.3     1  LIG1       -0.0308
     16 C           1.6128    3.3239   -1.3689 C.2     1  LIG1       -0.0850
     17 C           2.3654    4.0368   -2.2341 C.2     1  LIG1       -0.0796
     18 C           2.7050    3.5906   -3.6301 C.3     1  LIG1       -0.0440
     19 C           2.9877    5.3589   -1.8564 C.3     1  LIG1       -0.0440
     20 C           0.9180   -1.0418   -2.1134 C.3     1  LIG1       -0.0437
     21 O          -5.7323   -2.2714    3.9173 O.3     1  LIG1       -0.4771
     22 H          -3.1864   -2.2073    4.5621 H       1  LIG1        0.0663
     23 H           0.0962   -3.1636    3.9909 H       1  LIG1        0.2923
     24 H          -1.7516   -2.8132   -0.1542 H       1  LIG1        0.0655
     25 H          -4.0715   -2.2195    0.3325 H       1  LIG1        0.0627
     26 H           0.3417   -3.2755   -0.3351 H       1  LIG1        0.0742
     27 H           1.8355   -3.1912    0.5673 H       1  LIG1        0.0742
     28 H           1.0901   -0.7971    1.3695 H       1  LIG1        0.0605
     29 H           2.6369    0.9155   -0.6002 H       1  LIG1        0.0313
     30 H           1.2756    1.2972    0.4451 H       1  LIG1        0.0313
     31 H          -0.0566    1.9929   -1.5936 H       1  LIG1        0.0310
     32 H           1.3201    1.5749   -2.5912 H       1  LIG1        0.0310
     33 H           1.3985    3.7538   -0.3891 H       1  LIG1        0.0572
     34 H           2.6308    2.5115   -3.7705 H       1  LIG1        0.0274
     35 H           3.7374    3.8581   -3.8742 H       1  LIG1        0.0274
     36 H           2.0398    4.0780   -4.3508 H       1  LIG1        0.0274
     37 H           2.5743    5.7824   -0.9361 H       1  LIG1        0.0274
     38 H           2.8557    6.0986   -2.6542 H       1  LIG1        0.0274
     39 H           4.0646    5.2154   -1.7076 H       1  LIG1        0.0274
     40 H           0.7051   -2.1127   -2.1582 H       1  LIG1        0.0274
     41 H           1.8218   -0.8619   -2.7047 H       1  LIG1        0.0274
     42 H           0.0783   -0.5330   -2.6004 H       1  LIG1        0.0274
     43 H          -5.1349   -2.8196    4.4582 H       1  LIG1        0.2954
@<TRIPOS>BOND
     1     1     2    2
     2     2     3    1
     3     3     4   ar
     4     4     5   ar
     5     5     6    1
     6     5     7   ar
     7     7     8   ar
     8     8     9   ar
     9     3     9   ar
    10     7    10    1
    11    10    11    1
    12    11    12    1
    13    12    13    2
    14    13    14    1
    15    14    15    1
    16    15    16    1
    17    16    17    2
    18    17    18    1
    19    17    19    1
    20    13    20    1
    21     2    21    1
    22     4    22    1
    23     6    23    1
    24     8    24    1
    25     9    25    1
    26    11    26    1
    27    11    27    1
    28    12    28    1
    29    14    29    1
    30    14    30    1
    31    15    31    1
    32    15    32    1
    33    16    33    1
    34    18    34    1
    35    18    35    1
    36    18    36    1
    37    19    37    1
    38    19    38    1
    39    19    39    1
    40    20    40    1
    41    20    41    1
    42    20    42    1
    43    21    43    1
