@<TRIPOS>MOLECULE
NuBBE_1098
 75 80 0 0 0
SMALL
GASTEIGER

@<TRIPOS>ATOM
      1 O          -2.3551    4.4426   -2.7184 O.2     1  LIG1       -0.2921
      2 C          -2.0623    3.5020   -1.9800 C.2     1  LIG1        0.1618
      3 C          -2.6154    2.1698   -2.3135 C.2     1  LIG1       -0.0220
      4 C          -2.4444    1.0981   -1.5305 C.2     1  LIG1       -0.0741
      5 C          -1.6817    1.0830   -0.2001 C.3     1  LIG1       -0.0030
      6 C          -2.8504    1.2005    0.8058 C.3     1  LIG1       -0.0554
      7 C          -0.6645    2.2598   -0.2760 C.3     1  LIG1        0.0209
      8 C           0.3288    2.2266    0.8919 C.3     1  LIG1        0.1448
      9 H           0.9396    3.1284    0.8115 H       1  LIG1        0.0775
     10 O          -0.2483    2.4148    2.2284 O.3     1  LIG1       -0.4574
     11 C          -0.8712    1.4847    2.9770 C.2     1  LIG1        0.3043
     12 C          -1.5003    2.0204    4.2155 C.3     1  LIG1        0.0332
     13 O          -1.0482    0.3045    2.6570 O.2     1  LIG1       -0.2512
     14 C           1.3495    1.0614    0.6307 C.3     1  LIG1        0.1483
     15 H           1.8754    1.3018   -0.3022 H       1  LIG1        0.0778
     16 O           2.3475    1.0767    1.6864 O.3     1  LIG1       -0.4571
     17 C           3.0957    2.2142    1.7627 C.2     1  LIG1        0.3043
     18 C           2.7828    2.9544    3.0324 C.3     1  LIG1        0.0332
     19 O           3.7728    2.6583    0.8473 O.2     1  LIG1       -0.2512
     20 C           0.6847   -0.3545    0.4487 C.3     1  LIG1        0.0447
     21 C           0.9444   -1.1424    1.7813 C.3     1  LIG1       -0.0530
     22 C          -0.8273   -0.2744   -0.1322 C.3     1  LIG1       -0.0201
     23 H          -0.6850   -0.3865   -1.2156 H       1  LIG1        0.0316
     24 C          -1.5374   -1.5904    0.1902 C.3     1  LIG1       -0.0480
     25 C          -0.7920   -2.8084   -0.4274 C.3     1  LIG1       -0.0409
     26 C           0.7692   -2.7606   -0.7019 C.3     1  LIG1        0.0419
     27 C           1.6201   -3.5729    0.3283 C.3     1  LIG1       -0.0531
     28 C           1.3177   -1.3002   -0.6652 C.3     1  LIG1        0.1251
     29 O           1.3640   -0.6302   -1.9521 O.3     1  LIG1       -0.3515
     30 C           2.6097   -1.0908   -1.4363 C.3     1  LIG1        0.1858
     31 H           3.3178   -0.3497   -1.0879 H       1  LIG1        0.0743
     32 C           3.2065   -2.1943   -2.2421 C.2     1  LIG1        0.3398
     33 O           2.4583   -3.3217   -2.4500 O.3     1  LIG1       -0.4539
     34 C           1.0460   -3.3823   -2.1234 C.3     1  LIG1        0.1391
     35 H           0.5274   -2.7849   -2.8886 H       1  LIG1        0.0793
     36 C           0.5436   -4.8239   -2.2951 C.ar    1  LIG1        0.0310
     37 C           0.9774   -5.9868   -1.6739 C.ar    1  LIG1        0.0984
     38 O           0.3023   -7.0767   -2.1073 O.2     1  LIG1       -0.4706
     39 C          -0.5754   -6.6438   -3.0381 C.ar    1  LIG1        0.0921
     40 C          -0.4903   -5.2770   -3.1772 C.ar    1  LIG1       -0.0172
     41 O           4.3485   -2.0948   -2.6614 O.2     1  LIG1       -0.2478
     42 H          -0.0350    1.9839   -1.1425 H       1  LIG1        0.0356
     43 C          -1.1664    3.6698   -0.7425 C.3     1  LIG1        0.0345
     44 C           0.0477    4.5199   -1.2311 C.3     1  LIG1       -0.0524
     45 C          -1.9119    4.5167    0.2944 C.3     1  LIG1       -0.0524
     46 H          -3.2057    2.1201   -3.2212 H       1  LIG1        0.0649
     47 H          -2.9396    0.1734   -1.8227 H       1  LIG1        0.0579
     48 H          -3.8202    1.3991    0.3292 H       1  LIG1        0.0238
     49 H          -2.7289    2.0212    1.5105 H       1  LIG1        0.0238
     50 H          -3.0095    0.2829    1.3778 H       1  LIG1        0.0238
     51 H          -1.8654    1.1705    4.8068 H       1  LIG1        0.0342
     52 H          -2.3637    2.6393    3.9583 H       1  LIG1        0.0342
     53 H          -0.7757    2.5656    4.8200 H       1  LIG1        0.0342
     54 H           1.9420    3.6292    2.8467 H       1  LIG1        0.0342
     55 H           3.6403    3.5427    3.3608 H       1  LIG1        0.0342
     56 H           2.5099    2.2515    3.8236 H       1  LIG1        0.0342
     57 H           0.8666   -0.5681    2.7015 H       1  LIG1        0.0237
     58 H           1.9798   -1.5016    1.8085 H       1  LIG1        0.0237
     59 H           0.2931   -2.0058    1.9110 H       1  LIG1        0.0237
     60 H          -2.5607   -1.5771   -0.2043 H       1  LIG1        0.0269
     61 H          -1.6586   -1.7214    1.2697 H       1  LIG1        0.0269
     62 H          -1.2963   -2.9541   -1.3920 H       1  LIG1        0.0273
     63 H          -1.0394   -3.7002    0.1611 H       1  LIG1        0.0273
     64 H           1.0884   -3.7832    1.2572 H       1  LIG1        0.0237
     65 H           2.5689   -3.0738    0.5574 H       1  LIG1        0.0237
     66 H           1.9565   -4.5339   -0.0324 H       1  LIG1        0.0237
     67 H           1.7241   -6.2228   -0.9294 H       1  LIG1        0.1033
     68 H          -1.1706   -7.4190   -3.4998 H       1  LIG1        0.1029
     69 H          -1.0911   -4.6838   -3.8511 H       1  LIG1        0.0653
     70 H           0.6208    3.9895   -2.0011 H       1  LIG1        0.0239
     71 H           0.7345    4.7785   -0.4190 H       1  LIG1        0.0239
     72 H          -0.2758    5.4696   -1.6744 H       1  LIG1        0.0239
     73 H          -1.2259    4.9675    1.0203 H       1  LIG1        0.0239
     74 H          -2.6661    3.9557    0.8426 H       1  LIG1        0.0239
     75 H          -2.4465    5.3435   -0.1925 H       1  LIG1        0.0239
@<TRIPOS>BOND
     1     1     2    2
     2     2     3    1
     3     3     4    2
     4     4     5    1
     5     5     6    1
     6     5     7    1
     7     7     8    1
     8     8     9    1
     9     8    10    1
    10    10    11    1
    11    11    12    1
    12    11    13    2
    13     8    14    1
    14    14    15    1
    15    14    16    1
    16    16    17    1
    17    17    18    1
    18    17    19    2
    19    14    20    1
    20    20    21    1
    21    20    22    1
    22    22    23    1
    23     5    22    1
    24    22    24    1
    25    24    25    1
    26    25    26    1
    27    26    27    1
    28    26    28    1
    29    28    29    1
    30    20    28    1
    31    28    30    1
    32    30    31    1
    33    29    30    1
    34    30    32    1
    35    32    33    1
    36    33    34    1
    37    34    35    1
    38    26    34    1
    39    34    36    1
    40    36    37   ar
    41    37    38   ar
    42    38    39   ar
    43    39    40   ar
    44    36    40   ar
    45    32    41    2
    46     7    42    1
    47     7    43    1
    48    43    44    1
    49     2    43    1
    50    43    45    1
    51     3    46    1
    52     4    47    1
    53     6    48    1
    54     6    49    1
    55     6    50    1
    56    12    51    1
    57    12    52    1
    58    12    53    1
    59    18    54    1
    60    18    55    1
    61    18    56    1
    62    21    57    1
    63    21    58    1
    64    21    59    1
    65    24    60    1
    66    24    61    1
    67    25    62    1
    68    25    63    1
    69    27    64    1
    70    27    65    1
    71    27    66    1
    72    37    67    1
    73    39    68    1
    74    40    69    1
    75    44    70    1
    76    44    71    1
    77    44    72    1
    78    45    73    1
    79    45    74    1
    80    45    75    1
