@<TRIPOS>MOLECULE
NuBBE_2049
 47 50 0 0 0
SMALL
GASTEIGER

@<TRIPOS>ATOM
      1 O          -2.9497   -3.5737    0.3727 O.3     1  LIG1       -0.4884
      2 C          -3.3080   -4.9030    0.0118 C.3     1  LIG1        0.0791
      3 C          -1.6799   -3.1522    0.0420 C.ar    1  LIG1        0.2076
      4 C          -1.5660   -1.7723   -0.2378 C.ar    1  LIG1        0.1725
      5 C          -0.3393   -1.2209   -0.6173 C.ar    1  LIG1        0.0423
      6 C          -0.2486    0.1967   -1.1051 C.3     1  LIG1        0.1389
      7 H           0.0096    0.1766   -2.1739 H       1  LIG1        0.0793
      8 C          -1.5225    1.0233   -0.9056 C.3     1  LIG1        0.0632
      9 H          -2.0689    1.0863   -1.8543 H       1  LIG1        0.0423
     10 C          -2.3963    0.3818    0.1619 C.3     1  LIG1        0.1004
     11 O          -2.6943   -0.9825   -0.1784 O.3     1  LIG1       -0.4870
     12 C          -0.9103    2.3273   -0.5220 C.ar    1  LIG1        0.0118
     13 C           0.4497    2.1490   -0.2715 C.ar    1  LIG1        0.1704
     14 O           0.8473    0.8479   -0.4220 O.3     1  LIG1       -0.4793
     15 C           1.2881    3.1864    0.1473 C.ar    1  LIG1        0.2076
     16 O           2.6137    3.0005    0.4255 O.3     1  LIG1       -0.4884
     17 C           3.3190    2.0908   -0.4123 C.3     1  LIG1        0.0791
     18 C           0.6987    4.4401    0.3544 C.ar    1  LIG1        0.2070
     19 C          -0.6878    4.5996    0.1007 C.ar    1  LIG1        0.1627
     20 C          -1.4956    3.5580   -0.3610 C.ar    1  LIG1       -0.0091
     21 O          -1.3029    5.7975    0.3515 O.3     1  LIG1       -0.5032
     22 O           1.3027    5.6002    0.7893 O.3     1  LIG1       -0.4884
     23 C           2.7000    5.5681    1.0572 C.3     1  LIG1        0.0791
     24 C           0.8057   -2.0228   -0.6003 C.ar    1  LIG1       -0.0061
     25 C           0.7192   -3.3711   -0.2618 C.ar    1  LIG1        0.1628
     26 C          -0.5184   -3.9611    0.0458 C.ar    1  LIG1        0.2070
     27 O          -0.6787   -5.2952    0.3131 O.3     1  LIG1       -0.4884
     28 C           0.3903   -5.9860    0.9435 C.3     1  LIG1        0.0791
     29 O           1.8750   -4.1051   -0.2762 O.3     1  LIG1       -0.5032
     30 H          -2.8895   -5.6345    0.7087 H       1  LIG1        0.0660
     31 H          -3.0389   -5.1295   -1.0258 H       1  LIG1        0.0660
     32 H          -4.3953   -4.9920    0.1007 H       1  LIG1        0.0660
     33 H          -3.3494    0.9189    0.2347 H       1  LIG1        0.0704
     34 H          -1.9435    0.4208    1.1627 H       1  LIG1        0.0704
     35 H           4.3755    2.3738   -0.3920 H       1  LIG1        0.0660
     36 H           2.9860    2.1366   -1.4552 H       1  LIG1        0.0660
     37 H           3.2489    1.0726   -0.0162 H       1  LIG1        0.0660
     38 H          -2.5523    3.7274   -0.5474 H       1  LIG1        0.0659
     39 H          -0.6406    6.3247    0.8417 H       1  LIG1        0.2923
     40 H           3.0105    6.5776    1.3438 H       1  LIG1        0.0660
     41 H           3.2769    5.3012    0.1651 H       1  LIG1        0.0660
     42 H           2.9217    4.9107    1.9042 H       1  LIG1        0.0660
     43 H           1.7621   -1.5802   -0.8677 H       1  LIG1        0.0660
     44 H           0.8759   -5.3832    1.7178 H       1  LIG1        0.0660
     45 H           1.1063   -6.3493    0.2001 H       1  LIG1        0.0660
     46 H          -0.0360   -6.8663    1.4344 H       1  LIG1        0.0660
     47 H           2.6302   -3.5136   -0.4269 H       1  LIG1        0.2923
@<TRIPOS>BOND
     1     1     2    1
     2     1     3    1
     3     3     4   ar
     4     4     5   ar
     5     5     6    1
     6     6     7    1
     7     6     8    1
     8     8     9    1
     9     8    10    1
    10    10    11    1
    11     4    11    1
    12     8    12    1
    13    12    13   ar
    14    13    14    1
    15     6    14    1
    16    13    15   ar
    17    15    16    1
    18    16    17    1
    19    15    18   ar
    20    18    19   ar
    21    19    20   ar
    22    12    20   ar
    23    19    21    1
    24    18    22    1
    25    22    23    1
    26     5    24   ar
    27    24    25   ar
    28    25    26   ar
    29     3    26   ar
    30    26    27    1
    31    27    28    1
    32    25    29    1
    33     2    30    1
    34     2    31    1
    35     2    32    1
    36    10    33    1
    37    10    34    1
    38    17    35    1
    39    17    36    1
    40    17    37    1
    41    20    38    1
    42    21    39    1
    43    23    40    1
    44    23    41    1
    45    23    42    1
    46    24    43    1
    47    28    44    1
    48    28    45    1
    49    28    46    1
    50    29    47    1
