@<TRIPOS>MOLECULE
NuBBE_1283
 52 55 0 0 0
SMALL
GASTEIGER

@<TRIPOS>ATOM
      1 O          -6.3689    2.1124   -0.7990 O.3     1  LIG1       -0.5065
      2 C          -5.1722    1.5787   -0.4220 C.ar    1  LIG1        0.1239
      3 C          -5.1036    0.3766    0.2797 C.ar    1  LIG1        0.0223
      4 C          -3.8565   -0.1036    0.6839 C.ar    1  LIG1        0.1348
      5 O          -3.7734   -1.3013    1.3343 O.3     1  LIG1       -0.5058
      6 C          -2.6972    0.6198    0.3872 C.ar    1  LIG1        0.1092
      7 C          -1.3695    0.2830    0.9145 C.ar    1  LIG1        0.2382
      8 C          -0.2004    0.7455    0.0978 C.ar    1  LIG1        0.2138
      9 O           1.0490    0.1501    0.1791 O.3     1  LIG1       -0.4532
     10 C           1.2177   -0.9846    1.0457 C.3     1  LIG1        0.2311
     11 C           2.6966   -1.4288    0.9212 C.3     1  LIG1        0.1454
     12 H           3.3511   -0.5926    1.1907 H       1  LIG1        0.0683
     13 O           3.0113   -1.7972   -0.4364 O.3     1  LIG1       -0.3829
     14 C           2.9529   -2.6398    1.8183 C.3     1  LIG1        0.1151
     15 H           3.9565   -3.0438    1.6410 H       1  LIG1        0.0648
     16 O           2.9023   -2.2575    3.2005 O.3     1  LIG1       -0.3864
     17 C           1.9157   -3.7463    1.5574 C.3     1  LIG1        0.1096
     18 H           2.1082   -4.1788    0.5673 H       1  LIG1        0.0646
     19 O           2.0988   -4.7696    2.5455 O.3     1  LIG1       -0.3866
     20 C           0.4923   -3.1564    1.6068 C.3     1  LIG1        0.0883
     21 H           0.2676   -2.7776    2.6131 H       1  LIG1        0.0621
     22 C          -0.5668   -4.2037    1.2816 C.3     1  LIG1       -0.0360
     23 O           0.3795   -2.0863    0.6562 O.3     1  LIG1       -0.3339
     24 C          -0.4220    1.8416   -0.6690 C.ar    1  LIG1        0.1810
     25 O          -1.6640    2.4732   -0.7597 O.2     1  LIG1       -0.4507
     26 C          -2.7781    1.7765   -0.3774 C.ar    1  LIG1        0.1465
     27 C          -4.0189    2.2745   -0.7692 C.ar    1  LIG1        0.0231
     28 C           0.6245    2.5679   -1.4480 C.ar    1  LIG1        0.0247
     29 C           0.5135    3.9672   -1.6173 C.ar    1  LIG1       -0.0473
     30 C           1.4580    4.7032   -2.3459 C.ar    1  LIG1       -0.0159
     31 C           2.5371    4.0415   -2.9079 C.ar    1  LIG1        0.1583
     32 C           2.6624    2.6651   -2.7579 C.ar    1  LIG1        0.1589
     33 O           3.7348    2.0182   -3.3048 O.3     1  LIG1       -0.5033
     34 C           1.7129    1.9266   -2.0571 C.ar    1  LIG1       -0.0057
     35 O           3.4994    4.6977   -3.6226 O.3     1  LIG1       -0.5033
     36 O          -1.2493   -0.2346    2.0215 O.2     1  LIG1       -0.2830
     37 H          -7.0906    1.5889   -0.4124 H       1  LIG1        0.2921
     38 H          -6.0071   -0.1768    0.5105 H       1  LIG1        0.0691
     39 H          -4.6574   -1.6714    1.4817 H       1  LIG1        0.2922
     40 H           1.0276   -0.6766    2.0811 H       1  LIG1        0.1084
     41 H           2.5010   -1.1910   -1.0057 H       1  LIG1        0.2102
     42 H           2.8512   -3.1055    3.6892 H       1  LIG1        0.2100
     43 H           1.7225   -5.5887    2.1758 H       1  LIG1        0.2100
     44 H          -0.5867   -4.9971    2.0356 H       1  LIG1        0.0255
     45 H          -0.3867   -4.6567    0.3013 H       1  LIG1        0.0255
     46 H          -1.5598   -3.7429    1.2421 H       1  LIG1        0.0255
     47 H          -4.0889    3.1992   -1.3349 H       1  LIG1        0.0691
     48 H          -0.3206    4.5087   -1.1728 H       1  LIG1        0.0626
     49 H           1.3309    5.7757   -2.4515 H       1  LIG1        0.0655
     50 H           4.2746    2.7302   -3.7031 H       1  LIG1        0.2923
     51 H           1.8420    0.8519   -2.0031 H       1  LIG1        0.0662
     52 H           3.2467    5.6352   -3.6828 H       1  LIG1        0.2923
@<TRIPOS>BOND
     1     1     2    1
     2     2     3   ar
     3     3     4   ar
     4     4     5    1
     5     4     6   ar
     6     6     7   ar
     7     7     8   ar
     8     8     9    1
     9     9    10    1
    10    10    11    1
    11    11    14    1
    12    14    17    1
    13    17    20    1
    14    20    21    1
    15    20    22    1
    16    20    23    1
    17    10    23    1
    18     8    24   ar
    19    24    25   ar
    20    25    26   ar
    21     6    26   ar
    22    26    27   ar
    23     2    27   ar
    24    24    28    1
    25    28    29   ar
    26    29    30   ar
    27    30    31   ar
    28    31    32   ar
    29    32    33    1
    30    32    34   ar
    31    28    34   ar
    32    31    35    1
    33     7    36    2
    34    11    13    1
    35    11    12    1
    36    14    16    1
    37    14    15    1
    38    17    19    1
    39    17    18    1
    40     1    37    1
    41     3    38    1
    42     5    39    1
    43    10    40    1
    44    13    41    1
    45    16    42    1
    46    19    43    1
    47    22    44    1
    48    22    45    1
    49    22    46    1
    50    27    47    1
    51    29    48    1
    52    30    49    1
    53    33    50    1
    54    34    51    1
    55    35    52    1
