REMARK  Name = NuBBE_606
REMARK  13 active torsions:
REMARK  status: ('A' for Active; 'I' for Inactive)
REMARK    1  A    between atoms: C_1  and  C_2
REMARK    2  A    between atoms: C_3  and  C_47
REMARK    3  A    between atoms: C_8  and  C_9
REMARK    4  A    between atoms: C_8  and  C_46
REMARK    5  A    between atoms: C_10  and  O_35
REMARK    6  A    between atoms: C_14  and  C_34
REMARK    7  A    between atoms: C_23  and  C_24
REMARK    8  A    between atoms: C_29  and  C_31
REMARK    9  A    between atoms: C_31  and  C_32
REMARK   10  A    between atoms: O_35  and  C_36
REMARK   11  A    between atoms: C_36  and  C_37
REMARK   12  A    between atoms: C_37  and  C_38
REMARK   13  A    between atoms: C_38  and  C_39
REMARK                            x       y       z     vdW  Elec       q    Type
REMARK                         _______ _______ _______ _____ _____    ______ ____
ROOT
ATOM      1  C   LIG A   1      -0.874   1.735   0.238  0.00  0.00    +0.012 C 
ATOM      2  C   LIG A   1       0.548   1.882   0.860  0.00  0.00    -0.023 C 
ATOM      3  C   LIG A   1       1.115   0.418   1.355  0.00  0.00    -0.023 C 
ATOM      4  C   LIG A   1       0.123  -0.310   2.306  0.00  0.00    +0.008 C 
ATOM      5  C   LIG A   1       0.534  -1.754   2.656  0.00  0.00    +0.005 C 
ATOM      6  C   LIG A   1       0.680  -2.605   1.383  0.00  0.00    +0.004 C 
ATOM      7  C   LIG A   1       0.755  -4.167   1.597  0.00  0.00    +0.005 C 
ATOM      8  C   LIG A   1       2.073  -4.677   2.220  0.00  0.00    +0.015 C 
ATOM      9  C   LIG A   1       0.510  -4.821   0.190  0.00  0.00    +0.182 C 
ATOM     10  C   LIG A   1       1.570  -4.357  -0.823  0.00  0.00    +0.046 C 
ATOM     11  C   LIG A   1       1.621  -2.829  -0.970  0.00  0.00    +0.011 C 
ATOM     12  C   LIG A   1       1.736  -2.023   0.370  0.00  0.00    -0.025 C 
ATOM     13  C   LIG A   1       1.337  -0.507   0.082  0.00  0.00    +0.002 C 
ATOM     14  C   LIG A   1       2.218   0.167  -0.994  0.00  0.00    +0.005 C 
ATOM     15  C   LIG A   1       1.707   1.544  -1.416  0.00  0.00    +0.005 C 
ATOM     16  C   LIG A   1       1.573   2.451  -0.196  0.00  0.00    -0.000 C 
ATOM     17  C   LIG A   1       1.556   3.963  -0.528  0.00  0.00    +0.006 C 
ATOM     18  C   LIG A   1       1.487   4.804   0.763  0.00  0.00    -0.028 C 
ATOM     19  C   LIG A   1       2.801   4.741   1.570  0.00  0.00    +0.011 C 
ATOM     20  C   LIG A   1       0.295   4.362   1.635  0.00  0.00    +0.007 C 
ATOM     21  C   LIG A   1       0.376   2.885   2.048  0.00  0.00    +0.008 C 
ATOM     22  C   LIG A   1       1.294   6.223   0.213  0.00  0.00    +0.007 C 
ATOM     23  C   LIG A   1       0.474   6.083  -1.071  0.00  0.00    +0.009 C 
ATOM     24  C   LIG A   1       0.473   4.582  -1.458  0.00  0.00    +0.018 C 
ATOM     25  C   LIG A   1       3.198  -2.151   0.861  0.00  0.00    +0.012 C 
ATOM     26  C   LIG A   1      -0.333  -4.630   2.599  0.00  0.00    +0.015 C 
ATOM     27  C   LIG A   1       2.429   0.603   2.174  0.00  0.00    +0.012 C 
ENDROOT
BRANCH  24  28
ATOM     28  C   LIG A   1       0.616   4.407  -2.967  0.00  0.00    -0.076 C 
ATOM     29  C   LIG A   1      -0.664   4.366  -3.767  0.00  0.00    +0.038 C 
ATOM     30  C   LIG A   1       1.793   4.319  -3.609  0.00  0.00    +0.007 C 
ENDBRANCH  24  28
BRANCH   9  31
ATOM     31  O   LIG A   1      -0.753  -4.353  -0.359  0.00  0.00    -0.461 OA
BRANCH  31  32
ATOM     32  C   LIG A   1      -1.911  -4.941   0.046  0.00  0.00    +0.308 C 
ATOM     33  O   LIG A   1      -2.014  -6.039   0.548  0.00  0.00    -0.251 OA
BRANCH  32  34
ATOM     34  C   LIG A   1      -3.044  -3.959  -0.116  0.00  0.00    +0.125 C 
BRANCH  34  35
ATOM     35  C   LIG A   1      -3.698  -4.101  -1.476  0.00  0.00    +0.046 C 
BRANCH  35  36
ATOM     36  C   LIG A   1      -4.758  -3.047  -1.673  0.00  0.00    -0.047 A 
ATOM     37  C   LIG A   1      -4.438  -1.825  -2.282  0.00  0.00    +0.003 A 
ATOM     38  C   LIG A   1      -5.410  -0.835  -2.431  0.00  0.00    +0.000 A 
ATOM     39  C   LIG A   1      -6.706  -1.053  -1.970  0.00  0.00    +0.000 A 
ATOM     40  C   LIG A   1      -7.034  -2.262  -1.359  0.00  0.00    +0.000 A 
ATOM     41  C   LIG A   1      -6.064  -3.255  -1.209  0.00  0.00    +0.003 A 
ENDBRANCH  35  36
ENDBRANCH  34  35
ENDBRANCH  32  34
ENDBRANCH  31  32
ENDBRANCH   9  31
TORSDOF 6
