@<TRIPOS>MOLECULE
NuBBE_1997
 39 41 0 0 0
SMALL
GASTEIGER

@<TRIPOS>ATOM
      1 O          -4.1832    0.4519   -0.7110 O.3     1  LIG1       -0.5063
      2 C          -2.8731    0.1369   -0.9394 C.ar    1  LIG1        0.1267
      3 C          -2.4491   -1.1469   -1.3127 C.ar    1  LIG1        0.0335
      4 C          -3.4482   -2.2401   -1.5756 C.3     1  LIG1       -0.0327
      5 C          -1.0575   -1.3669   -1.4651 C.ar    1  LIG1        0.1405
      6 O          -0.5804   -2.5402   -1.9955 O.3     1  LIG1       -0.4939
      7 C          -0.8101   -3.7048   -1.2060 C.3     1  LIG1        0.0788
      8 C          -0.1449   -0.3091   -1.2747 C.ar    1  LIG1        0.1038
      9 C           1.3188   -0.4708   -1.4038 C.2     1  LIG1        0.2024
     10 C           2.1350    0.8112   -1.5019 C.3     1  LIG1        0.1585
     11 H           3.1796    0.5889   -1.2628 H       1  LIG1        0.0718
     12 O           2.1158    1.3293   -2.8349 O.3     1  LIG1       -0.3798
     13 C           1.5622    1.8285   -0.5073 C.3     1  LIG1        0.1581
     14 H           2.0667    2.7815   -0.7202 H       1  LIG1        0.0815
     15 C           1.7490    1.5965    0.9886 C.ar    1  LIG1       -0.0042
     16 C           1.2085    2.5336    1.8927 C.ar    1  LIG1       -0.0515
     17 C           1.3643    2.3828    3.2738 C.ar    1  LIG1       -0.0198
     18 C           2.0671    1.2903    3.7635 C.ar    1  LIG1        0.1169
     19 O           2.2480    1.0977    5.1004 O.3     1  LIG1       -0.5068
     20 C           2.6143    0.3557    2.8960 C.ar    1  LIG1       -0.0198
     21 C           2.4619    0.5090    1.5153 C.ar    1  LIG1       -0.0515
     22 O           0.1725    2.0823   -0.8007 O.3     1  LIG1       -0.4802
     23 O           1.8636   -1.5798   -1.3840 O.2     1  LIG1       -0.2889
     24 C          -0.6128    0.9689   -0.9517 C.ar    1  LIG1        0.1391
     25 C          -1.9764    1.1912   -0.8025 C.ar    1  LIG1        0.0228
     26 H          -4.6501   -0.3410   -0.4017 H       1  LIG1        0.2921
     27 H          -4.4560   -1.8524   -1.7488 H       1  LIG1        0.0280
     28 H          -3.4924   -2.9213   -0.7198 H       1  LIG1        0.0280
     29 H          -3.1880   -2.7963   -2.4813 H       1  LIG1        0.0280
     30 H           0.0895   -4.3265   -1.2410 H       1  LIG1        0.0660
     31 H          -1.6203   -4.2885   -1.6551 H       1  LIG1        0.0660
     32 H          -1.0404   -3.4847   -0.1583 H       1  LIG1        0.0660
     33 H           1.2125    1.6413   -3.0240 H       1  LIG1        0.2105
     34 H           0.6558    3.3952    1.5193 H       1  LIG1        0.0623
     35 H           0.9344    3.1222    3.9421 H       1  LIG1        0.0654
     36 H           1.8274    1.8297    5.5798 H       1  LIG1        0.2921
     37 H           3.1644   -0.4943    3.2909 H       1  LIG1        0.0654
     38 H           2.9169   -0.2460    0.8784 H       1  LIG1        0.0623
     39 H          -2.3454    2.1850   -0.5616 H       1  LIG1        0.0691
@<TRIPOS>BOND
     1     1     2    1
     2     2     3   ar
     3     3     4    1
     4     3     5   ar
     5     5     6    1
     6     6     7    1
     7     5     8   ar
     8     8     9    1
     9     9    10    1
    10    10    13    1
    11    15    16   ar
    12    16    17   ar
    13    17    18   ar
    14    18    19    1
    15    18    20   ar
    16    20    21   ar
    17    15    21   ar
    18    13    22    1
    19     9    23    2
    20     8    24   ar
    21    22    24    1
    22    24    25   ar
    23     2    25   ar
    24    10    12    1
    25    10    11    1
    26    13    15    1
    27    13    14    1
    28     1    26    1
    29     4    27    1
    30     4    28    1
    31     4    29    1
    32     7    30    1
    33     7    31    1
    34     7    32    1
    35    12    33    1
    36    16    34    1
    37    17    35    1
    38    19    36    1
    39    20    37    1
    40    21    38    1
    41    25    39    1
