REMARK  Name = NuBBE_1257
REMARK  11 active torsions:
REMARK  status: ('A' for Active; 'I' for Inactive)
REMARK    1  A    between atoms: C_2  and  C_3
REMARK    2  A    between atoms: C_3  and  C_9
REMARK    3  A    between atoms: C_12  and  C_35
REMARK    4  A    between atoms: C_17  and  C_18
REMARK    5  A    between atoms: C_17  and  C_32
REMARK    6  A    between atoms: C_18  and  C_19
REMARK    7  A    between atoms: C_19  and  C_20
REMARK    8  A    between atoms: C_20  and  O_21
REMARK    9  A    between atoms: C_23  and  C_25
REMARK   10  A    between atoms: C_25  and  C_26
REMARK   11  A    between atoms: C_30  and  C_31
REMARK                            x       y       z     vdW  Elec       q    Type
REMARK                         _______ _______ _______ _____ _____    ______ ____
ROOT
ATOM      1  C   LIG A   1      -3.006   0.503  -0.712  0.00  0.00    +0.036 C 
ATOM      2  C   LIG A   1      -3.139  -0.903  -1.318  0.00  0.00    +0.008 C 
ATOM      3  C   LIG A   1      -1.833  -1.200  -2.033  0.00  0.00    +0.008 C 
ATOM      4  C   LIG A   1      -0.748  -0.270  -1.441  0.00  0.00    -0.023 C 
ATOM      5  C   LIG A   1      -1.545   0.977  -0.978  0.00  0.00    +0.002 C 
ATOM      6  C   LIG A   1      -0.937   1.742   0.213  0.00  0.00    +0.005 C 
ATOM      7  C   LIG A   1       0.541   1.514   0.557  0.00  0.00    +0.005 C 
ATOM      8  C   LIG A   1       1.185   0.158   0.172  0.00  0.00    +0.002 C 
ATOM      9  C   LIG A   1       2.403  -0.298   1.086  0.00  0.00    -0.022 C 
ATOM     10  C   LIG A   1       3.094  -1.542   0.387  0.00  0.00    +0.020 C 
ATOM     11  C   LIG A   1       2.051  -2.647   0.093  0.00  0.00    +0.009 C 
ATOM     12  C   LIG A   1       0.815  -2.229  -0.709  0.00  0.00    +0.008 C 
ATOM     13  C   LIG A   1       0.120  -0.917  -0.246  0.00  0.00    -0.023 C 
ATOM     14  C   LIG A   1      -0.783  -1.335   0.947  0.00  0.00    +0.012 C 
ATOM     15  C   LIG A   1       3.395   0.893   1.201  0.00  0.00    +0.012 C 
ATOM     16  C   LIG A   1       0.128   0.192  -2.652  0.00  0.00    +0.012 C 
ENDROOT
BRANCH   1  17
ATOM     17  C   LIG A   1      -4.117   1.477  -1.189  0.00  0.00    +0.114 C 
ATOM     18  C   LIG A   1      -3.998   2.856  -0.540  0.00  0.00    +0.059 C 
ATOM     19  C   LIG A   1      -5.434   3.320  -0.427  0.00  0.00    +0.124 C 
ATOM     20  C   LIG A   1      -6.174   2.022  -0.286  0.00  0.00    +0.308 C 
ATOM     21  O   LIG A   1      -5.377   0.988  -0.705  0.00  0.00    -0.458 OA
ATOM     22  O   LIG A   1      -7.313   1.896   0.102  0.00  0.00    -0.251 OA
ATOM     23  C   LIG A   1      -4.229   1.593  -2.722  0.00  0.00    +0.056 C 
ENDBRANCH   1  17
BRANCH  10  24
ATOM     24  C   LIG A   1       4.051  -1.248  -0.793  0.00  0.00    -0.076 C 
ATOM     25  C   LIG A   1       5.508  -1.053  -0.431  0.00  0.00    +0.038 C 
ATOM     26  C   LIG A   1       3.734  -1.238  -2.099  0.00  0.00    +0.007 C 
ENDBRANCH  10  24
BRANCH   9  27
ATOM     27  C   LIG A   1       1.971  -0.645   2.558  0.00  0.00    +0.018 C 
BRANCH  27  28
ATOM     28  C   LIG A   1       3.088  -1.075   3.520  0.00  0.00    +0.121 C 
BRANCH  28  29
ATOM     29  C   LIG A   1       2.527  -1.374   4.882  0.00  0.00    +0.305 C 
ATOM     30  O   LIG A   1       2.084  -2.447   5.259  0.00  0.00    -0.251 OA
BRANCH  29  31
ATOM     31  O   LIG A   1       2.525  -0.302   5.695  0.00  0.00    -0.481 OA
ATOM     32  H   LIG A   1       2.139  -0.640   6.530  0.00  0.00    +0.295 HD
ENDBRANCH  29  31
ENDBRANCH  28  29
ENDBRANCH  27  28
ENDBRANCH   9  27
TORSDOF 6
