REMARK  Name = NuBBE_1755
REMARK  3 active torsions:
REMARK  status: ('A' for Active; 'I' for Inactive)
REMARK    1  A    between atoms: C_1  and  C_2
REMARK    2  A    between atoms: C_2  and  C_3
REMARK    3  A    between atoms: C_9  and  C_10
REMARK                            x       y       z     vdW  Elec       q    Type
REMARK                         _______ _______ _______ _____ _____    ______ ____
ROOT
ATOM      1  C   LIG A   1      -1.629  -0.286   1.106  0.00  0.00    +0.012 C 
ATOM      2  C   LIG A   1      -0.096  -0.253   1.058  0.00  0.00    -0.025 C 
ATOM      3  C   LIG A   1       0.409  -0.181   2.512  0.00  0.00    +0.012 C 
ATOM      4  C   LIG A   1       0.599   0.768   0.046  0.00  0.00    +0.021 C 
ATOM      5  C   LIG A   1       1.767  -0.282  -0.031  0.00  0.00    +0.012 C 
ATOM      6  C   LIG A   1       0.630  -1.341   0.150  0.00  0.00    -0.000 C 
ATOM      7  C   LIG A   1      -0.041  -1.628  -1.209  0.00  0.00    +0.031 C 
ATOM      8  C   LIG A   1      -0.384  -0.314  -1.882  0.00  0.00    -0.027 C 
ATOM      9  C   LIG A   1      -0.101   0.861  -1.288  0.00  0.00    -0.073 C 
ATOM     10  C   LIG A   1      -0.450   2.207  -1.829  0.00  0.00    +0.039 C 
ENDROOT
TORSDOF 0
