@<TRIPOS>MOLECULE
NuBBE_2189
 56 58 0 0 0
SMALL
GASTEIGER

@<TRIPOS>ATOM
      1 C          -2.3743   -0.2878   -1.1969 C.3     1  LIG1       -0.0589
      2 C          -1.1767   -0.5998   -0.2565 C.3     1  LIG1       -0.0232
      3 C          -0.1272   -1.6075   -0.8614 C.3     1  LIG1       -0.0277
      4 C           0.6989   -0.9335   -1.9663 C.3     1  LIG1       -0.0203
      5 C           1.5242    0.2496   -1.4267 C.3     1  LIG1        0.0844
      6 H           1.5202    1.0271   -2.2007 H       1  LIG1        0.0622
      7 O           2.8859   -0.1890   -1.2735 O.3     1  LIG1       -0.3889
      8 C           1.0422    0.8214   -0.0566 C.3     1  LIG1        0.0959
      9 O           1.5627    0.0040    0.9994 O.3     1  LIG1       -0.3857
     10 C          -0.5000    0.8254   -0.0002 C.3     1  LIG1       -0.0040
     11 H          -0.7966    1.4690   -0.8444 H       1  LIG1        0.0335
     12 C          -1.0192    1.5445    1.2595 C.3     1  LIG1       -0.0462
     13 C          -0.4686    2.9675    1.3682 C.3     1  LIG1       -0.0437
     14 C           1.0752    3.0393    1.3530 C.3     1  LIG1       -0.0116
     15 C           1.4661    4.5081    1.1421 C.2     1  LIG1       -0.0851
     16 C           2.2680    5.2710    1.8976 C.2     1  LIG1       -0.1021
     17 C           1.6349    2.4868    2.6824 C.3     1  LIG1       -0.0560
     18 C           1.6240    2.2431    0.1375 C.3     1  LIG1       -0.0124
     19 H           0.5929   -1.8015   -0.0543 H       1  LIG1        0.0312
     20 C          -0.6449   -3.0549   -1.1711 C.3     1  LIG1       -0.0315
     21 C           0.5562   -3.9887   -1.4853 C.3     1  LIG1       -0.0595
     22 C          -1.5920   -3.1586   -2.3787 C.3     1  LIG1       -0.0595
     23 C          -1.3172   -3.6168    0.1100 C.3     1  LIG1       -0.0476
     24 C          -2.3099   -2.6729    0.7829 C.3     1  LIG1       -0.0521
     25 C          -1.7388   -1.2705    1.0253 C.3     1  LIG1       -0.0470
     26 H          -2.0427   -0.0073   -2.2011 H       1  LIG1        0.0235
     27 H          -2.9626    0.5515   -0.8054 H       1  LIG1        0.0235
     28 H          -3.0851   -1.1049   -1.2973 H       1  LIG1        0.0235
     29 H           0.0268   -0.5676   -2.7500 H       1  LIG1        0.0294
     30 H           1.3741   -1.6442   -2.4515 H       1  LIG1        0.0294
     31 H           3.4480    0.6065   -1.2722 H       1  LIG1        0.2099
     32 H           2.3513   -0.4428    0.6274 H       1  LIG1        0.2103
     33 H          -0.7642    0.9828    2.1638 H       1  LIG1        0.0269
     34 H          -2.1131    1.6102    1.2257 H       1  LIG1        0.0269
     35 H          -0.8604    3.4333    2.2822 H       1  LIG1        0.0274
     36 H          -0.8803    3.5506    0.5323 H       1  LIG1        0.0274
     37 H           1.0327    4.9829    0.2600 H       1  LIG1        0.0572
     38 H           2.7560    4.9059    2.7946 H       1  LIG1        0.0532
     39 H           2.4576    6.3058    1.6262 H       1  LIG1        0.0532
     40 H           1.2931    1.4721    2.8993 H       1  LIG1        0.0238
     41 H           1.3169    3.1026    3.5325 H       1  LIG1        0.0238
     42 H           2.7308    2.4635    2.6750 H       1  LIG1        0.0238
     43 H           2.7178    2.1833    0.2245 H       1  LIG1        0.0302
     44 H           1.4182    2.8173   -0.7775 H       1  LIG1        0.0302
     45 H           1.3423   -3.9006   -0.7271 H       1  LIG1        0.0235
     46 H           1.0007   -3.7693   -2.4613 H       1  LIG1        0.0235
     47 H           0.2411   -5.0390   -1.5084 H       1  LIG1        0.0235
     48 H          -2.6090   -2.8376   -2.1570 H       1  LIG1        0.0235
     49 H          -1.6844   -4.2001   -2.7114 H       1  LIG1        0.0235
     50 H          -1.2233   -2.5813   -3.2321 H       1  LIG1        0.0235
     51 H          -1.8190   -4.5677   -0.1111 H       1  LIG1        0.0271
     52 H          -0.5383   -3.8526    0.8486 H       1  LIG1        0.0271
     53 H          -2.6058   -3.1025    1.7481 H       1  LIG1        0.0266
     54 H          -3.2297   -2.6186    0.1922 H       1  LIG1        0.0266
     55 H          -0.9424   -1.3481    1.7767 H       1  LIG1        0.0271
     56 H          -2.5332   -0.6591    1.4691 H       1  LIG1        0.0271
@<TRIPOS>BOND
     1     2     3    1
     2     3     4    1
     3     4     5    1
     4     5     8    1
     5     8    10    1
     6     2    10    1
     7    10    12    1
     8    12    13    1
     9    13    14    1
    10    15    16    2
    11    14    18    1
    12     8    18    1
    13     3    20    1
    14    20    23    1
    15    23    24    1
    16    24    25    1
    17     2    25    1
    18     1     2    1
    19     3    19    1
    20     8     9    1
    21    10    11    1
    22    14    15    1
    23    14    17    1
    24    20    21    1
    25    20    22    1
    26     5     7    1
    27     5     6    1
    28     1    26    1
    29     1    27    1
    30     1    28    1
    31     4    29    1
    32     4    30    1
    33     7    31    1
    34     9    32    1
    35    12    33    1
    36    12    34    1
    37    13    35    1
    38    13    36    1
    39    15    37    1
    40    16    38    1
    41    16    39    1
    42    17    40    1
    43    17    41    1
    44    17    42    1
    45    18    43    1
    46    18    44    1
    47    21    45    1
    48    21    46    1
    49    21    47    1
    50    22    48    1
    51    22    49    1
    52    22    50    1
    53    23    51    1
    54    23    52    1
    55    24    53    1
    56    24    54    1
    57    25    55    1
    58    25    56    1
