REMARK  Name = NuBBE_1859
REMARK  7 active torsions:
REMARK  status: ('A' for Active; 'I' for Inactive)
REMARK    1  A    between atoms: O_1  and  C_2
REMARK    2  A    between atoms: C_5  and  C_8
REMARK    3  A    between atoms: C_8  and  C_9
REMARK    4  A    between atoms: C_9  and  C_10
REMARK    5  A    between atoms: C_13  and  C_18
REMARK    6  A    between atoms: C_21  and  O_22
REMARK    7  A    between atoms: O_22  and  C_23
REMARK                            x       y       z     vdW  Elec       q    Type
REMARK                         _______ _______ _______ _____ _____    ______ ____
ROOT
ATOM      1  C   LIG A   1       2.715  -0.288   0.642  0.00  0.00    +0.119 C 
ATOM      2  O   LIG A   1       2.643  -1.682   0.306  0.00  0.00    -0.369 OA
ATOM      3  C   LIG A   1       2.165  -2.036  -1.001  0.00  0.00    +0.149 C 
ATOM      4  C   LIG A   1       2.822  -1.203  -2.117  0.00  0.00    +0.036 C 
ATOM      5  C   LIG A   1       2.862   0.287  -1.807  0.00  0.00    +0.005 C 
ATOM      6  C   LIG A   1       3.470   0.498  -0.433  0.00  0.00    +0.032 C 
ENDROOT
BRANCH   3   7
ATOM      7  C   LIG A   1       0.649  -2.172  -1.040  0.00  0.00    -0.019 A 
ATOM      8  C   LIG A   1       0.017  -3.137  -0.242  0.00  0.00    +0.010 A 
ATOM      9  C   LIG A   1      -1.374  -3.305  -0.279  0.00  0.00    +0.046 A 
ATOM     10  C   LIG A   1      -2.160  -2.499  -1.106  0.00  0.00    +0.120 A 
ATOM     11  C   LIG A   1      -1.544  -1.531  -1.887  0.00  0.00    +0.046 A 
ATOM     12  C   LIG A   1      -0.158  -1.379  -1.868  0.00  0.00    +0.010 A 
BRANCH  10  13
ATOM     13  O   LIG A   1      -3.507  -2.748  -1.075  0.00  0.00    -0.495 OA
ATOM     14  C   LIG A   1      -4.308  -1.941  -1.933  0.00  0.00    +0.277 C 
ENDBRANCH  10  13
ENDBRANCH   3   7
BRANCH   1  15
ATOM     15  C   LIG A   1       1.336   0.267   1.042  0.00  0.00    +0.036 C 
BRANCH  15  16
ATOM     16  C   LIG A   1       1.346   1.745   1.427  0.00  0.00    +0.037 C 
BRANCH  16  20
ATOM     17  C   LIG A   1      -2.550   3.167   2.570  0.00  0.00    +0.117 A 
ATOM     18  C   LIG A   1      -2.169   3.218   1.232  0.00  0.00    +0.045 A 
ATOM     19  C   LIG A   1      -0.904   2.751   0.863  0.00  0.00    +0.007 A 
ATOM     20  C   LIG A   1      -0.021   2.241   1.829  0.00  0.00    -0.047 A 
ATOM     21  C   LIG A   1      -0.431   2.189   3.167  0.00  0.00    +0.007 A 
ATOM     22  C   LIG A   1      -1.694   2.655   3.534  0.00  0.00    +0.045 A 
BRANCH  17  23
ATOM     23  O   LIG A   1      -3.772   3.617   2.977  0.00  0.00    -0.507 OA
ATOM     24  H   LIG A   1      -4.256   3.939   2.200  0.00  0.00    +0.292 HD
ENDBRANCH  17  23
ENDBRANCH  16  20
ENDBRANCH  15  16
ENDBRANCH   1  15
TORSDOF 6
