REMARK  Name = NuBBE_2165
REMARK  4 active torsions:
REMARK  status: ('A' for Active; 'I' for Inactive)
REMARK    1  A    between atoms: O_1  and  C_2
REMARK    2  A    between atoms: C_2  and  C_20
REMARK    3  A    between atoms: C_13  and  C_15
REMARK    4  A    between atoms: C_16  and  C_18
REMARK                            x       y       z     vdW  Elec       q    Type
REMARK                         _______ _______ _______ _____ _____    ______ ____
ROOT
ATOM      1  C   LIG A   1       0.570  -0.123  -0.622  0.00  0.00    +0.123 C 
ATOM      2  C   LIG A   1       1.122   0.771   0.476  0.00  0.00    +0.044 A 
ATOM      3  C   LIG A   1       1.030   2.159   0.407  0.00  0.00    +0.173 A 
ATOM      4  O   LIG A   1       0.472   2.866  -0.621  0.00  0.00    -0.452 OA
ATOM      5  C   LIG A   1       0.632   4.221  -0.150  0.00  0.00    +0.466 C 
ATOM      6  O   LIG A   1       1.300   4.305   1.123  0.00  0.00    -0.453 OA
ATOM      7  C   LIG A   1       1.502   2.990   1.399  0.00  0.00    +0.167 A 
ATOM      8  C   LIG A   1       2.098   2.496   2.534  0.00  0.00    +0.050 A 
ATOM      9  C   LIG A   1       2.198   1.109   2.658  0.00  0.00    +0.015 A 
ATOM     10  C   LIG A   1       1.706   0.251   1.645  0.00  0.00    +0.028 A 
ATOM     11  C   LIG A   1       1.785  -1.219   1.872  0.00  0.00    +0.167 C 
ATOM     12  C   LIG A   1       1.104  -2.135   0.864  0.00  0.00    +0.063 C 
ATOM     13  C   LIG A   1       1.657  -3.558   0.971  0.00  0.00    +0.016 C 
ATOM     14  C   LIG A   1       1.192  -1.556  -0.564  0.00  0.00    +0.037 C 
ATOM     15  C   LIG A   1       2.631  -1.603  -1.124  0.00  0.00    +0.012 C 
ATOM     16  O   LIG A   1       2.320  -1.643   2.892  0.00  0.00    -0.292 OA
ENDROOT
BRANCH   1  17
ATOM     17  C   LIG A   1      -0.973  -0.185  -0.626  0.00  0.00    -0.008 A 
ATOM     18  C   LIG A   1      -1.668  -0.314  -1.848  0.00  0.00    +0.056 A 
ATOM     19  C   LIG A   1      -3.048  -0.321  -1.834  0.00  0.00    +0.167 A 
ATOM     20  C   LIG A   1      -3.761  -0.234  -0.665  0.00  0.00    +0.166 A 
ATOM     21  O   LIG A   1      -5.104  -0.248  -0.871  0.00  0.00    -0.453 OA
ATOM     22  C   LIG A   1      -5.154  -0.317  -2.312  0.00  0.00    +0.466 C 
ATOM     23  O   LIG A   1      -3.853  -0.399  -2.928  0.00  0.00    -0.453 OA
ATOM     24  C   LIG A   1      -3.134  -0.141   0.556  0.00  0.00    +0.050 A 
ATOM     25  C   LIG A   1      -1.734  -0.114   0.572  0.00  0.00    +0.010 A 
ENDBRANCH   1  17
BRANCH   1  26
ATOM     26  O   LIG A   1       0.972   0.448  -1.879  0.00  0.00    -0.379 OA
ATOM     27  H   LIG A   1       0.615   1.356  -1.897  0.00  0.00    +0.211 HD
ENDBRANCH   1  26
TORSDOF 2
