REMARK  Name = NuBBE_1139
REMARK  7 active torsions:
REMARK  status: ('A' for Active; 'I' for Inactive)
REMARK    1  A    between atoms: C_1  and  C_2
REMARK    2  A    between atoms: C_2  and  C_3
REMARK    3  A    between atoms: C_4  and  C_5
REMARK    4  A    between atoms: C_18  and  C_19
REMARK    5  A    between atoms: C_18  and  C_21
REMARK    6  A    between atoms: C_19  and  O_20
REMARK    7  A    between atoms: C_22  and  C_23
REMARK                            x       y       z     vdW  Elec       q    Type
REMARK                         _______ _______ _______ _____ _____    ______ ____
ROOT
ATOM      1  C   LIG A   1      -2.080   0.736  -1.499  0.00  0.00    +0.043 C 
ATOM      2  C   LIG A   1      -1.424  -0.577  -1.003  0.00  0.00    +0.030 C 
ATOM      3  C   LIG A   1      -1.348   1.786  -0.707  0.00  0.00    -0.035 A 
ATOM      4  C   LIG A   1      -1.439   3.164  -0.894  0.00  0.00    +0.030 A 
ATOM      5  C   LIG A   1      -0.670   3.961  -0.036  0.00  0.00    +0.047 A 
ATOM      6  C   LIG A   1       0.151   3.433   0.966  0.00  0.00    -0.000 A 
ATOM      7  C   LIG A   1       0.755   4.535   1.634  0.00  0.00    +0.027 A 
ATOM      8  C   LIG A   1       0.309   5.689   1.032  0.00  0.00    +0.083 A 
ATOM      9  N   LIG A   1      -0.546   5.332   0.024  0.00  0.00    -0.361 N 
ATOM     10  H   LIG A   1      -1.023   5.976  -0.592  0.00  0.00    +0.165 HD
ATOM     11  C   LIG A   1       0.229   2.035   1.128  0.00  0.00    +0.015 A 
ATOM     12  C   LIG A   1      -0.526   1.226   0.275  0.00  0.00    -0.031 A 
ATOM     13  C   LIG A   1      -0.624  -0.290   0.307  0.00  0.00    +0.038 C 
ENDROOT
BRANCH   1  17
ATOM     14  C   LIG A   1      -5.994   0.821  -1.841  0.00  0.00    +0.038 C 
ATOM     15  C   LIG A   1      -4.538   0.906  -2.226  0.00  0.00    -0.079 C 
ATOM     16  C   LIG A   1      -4.301   1.151  -3.688  0.00  0.00    +0.038 C 
ATOM     17  C   LIG A   1      -3.573   0.754  -1.294  0.00  0.00    -0.020 C 
ENDBRANCH   1  17
BRANCH  13  18
ATOM     18  C   LIG A   1       0.760  -0.926   0.217  0.00  0.00    -0.013 C 
ATOM     19  C   LIG A   1       1.329  -1.755   1.120  0.00  0.00    +0.005 C 
BRANCH  19  20
ATOM     20  C   LIG A   1       2.678  -2.319   0.985  0.00  0.00    -0.025 A 
ATOM     21  C   LIG A   1       3.702  -1.616   0.340  0.00  0.00    +0.010 A 
ATOM     22  C   LIG A   1       4.988  -2.143   0.213  0.00  0.00    +0.027 A 
ATOM     23  C   LIG A   1       5.231  -3.395   0.783  0.00  0.00    +0.046 A 
ATOM     24  C   LIG A   1       4.251  -4.118   1.461  0.00  0.00    +0.000 A 
ATOM     25  C   LIG A   1       4.858  -5.326   1.905  0.00  0.00    +0.027 A 
ATOM     26  C   LIG A   1       6.172  -5.311   1.493  0.00  0.00    +0.083 A 
ATOM     27  N   LIG A   1       6.384  -4.142   0.815  0.00  0.00    -0.361 N 
ATOM     28  H   LIG A   1       7.259  -3.857   0.396  0.00  0.00    +0.165 HD
ATOM     29  C   LIG A   1       2.956  -3.569   1.570  0.00  0.00    +0.018 A 
ENDBRANCH  19  20
ENDBRANCH  13  18
BRANCH  13  30
ATOM     30  C   LIG A   1      -1.398  -0.749   1.571  0.00  0.00    +0.171 C 
BRANCH  30  31
ATOM     31  O   LIG A   1      -2.723  -0.241   1.666  0.00  0.00    -0.394 OA
ATOM     32  H   LIG A   1      -2.645   0.730   1.698  0.00  0.00    +0.209 HD
ENDBRANCH  30  31
ENDBRANCH  13  30
TORSDOF 5
