@<TRIPOS>MOLECULE
NuBBE_1164
 46 48 0 0 0
SMALL
GASTEIGER

@<TRIPOS>ATOM
      1 O          -0.2102   -2.3603    2.9601 O.3     1  LIG1       -0.4937
      2 C          -0.2575   -3.6048    3.6388 C.3     1  LIG1        0.0788
      3 C          -1.4240   -1.8412    2.5148 C.ar    1  LIG1        0.1417
      4 C          -1.3605   -1.0718    1.3240 C.ar    1  LIG1        0.0465
      5 C          -2.5400   -0.4278    0.8918 C.ar    1  LIG1        0.0820
      6 N          -3.7020   -0.4571    1.5352 N.ar    1  LIG1       -0.2117
      7 C          -3.7108   -1.1755    2.6537 C.ar    1  LIG1        0.2311
      8 C          -2.6565   -1.9056    3.2097 C.ar    1  LIG1        0.0820
      9 C          -3.2058   -2.4953    4.3816 C.ar    1  LIG1       -0.0109
     10 C          -4.5165   -2.0926    4.4654 C.ar    1  LIG1        0.0952
     11 O          -4.8241   -1.2851    3.4251 O.2     1  LIG1       -0.4449
     12 C          -2.5295    0.2888   -0.2758 C.ar    1  LIG1        0.0099
     13 C          -1.3778    0.4590   -1.0498 C.ar    1  LIG1        0.1636
     14 C          -0.1824   -0.1335   -0.6209 C.ar    1  LIG1        0.1628
     15 C          -0.1914   -0.9179    0.5352 C.ar    1  LIG1       -0.0036
     16 O           0.9386    0.0618   -1.3930 O.3     1  LIG1       -0.4856
     17 C           2.1894    0.1050   -0.6963 C.3     1  LIG1        0.1182
     18 C           3.3569    0.4143   -1.6496 C.3     1  LIG1        0.1171
     19 H           4.2765    0.4266   -1.0487 H       1  LIG1        0.0656
     20 C           3.2780    1.7500   -2.4373 C.3     1  LIG1        0.0894
     21 C           2.2033    1.7711   -3.5263 C.3     1  LIG1       -0.0338
     22 C           3.1030    2.9549   -1.5084 C.3     1  LIG1       -0.0338
     23 O           4.5546    1.8844   -3.1036 O.3     1  LIG1       -0.3865
     24 O           3.5408   -0.6852   -2.5601 O.3     1  LIG1       -0.3856
     25 O          -1.3730    1.1703   -2.2228 O.3     1  LIG1       -0.4914
     26 C          -2.3800    2.1784   -2.3212 C.3     1  LIG1        0.0790
     27 H           0.7720   -3.8855    3.8820 H       1  LIG1        0.0660
     28 H          -0.6852   -4.3886    3.0062 H       1  LIG1        0.0660
     29 H          -0.7784   -3.5288    4.5923 H       1  LIG1        0.0660
     30 H          -2.7344   -3.1486    5.1022 H       1  LIG1        0.0657
     31 H          -5.3218   -2.2796    5.1593 H       1  LIG1        0.1030
     32 H          -3.4688    0.7150   -0.5820 H       1  LIG1        0.0677
     33 H           0.7068   -1.4536    0.8424 H       1  LIG1        0.0663
     34 H           2.3950   -0.8699   -0.2428 H       1  LIG1        0.0724
     35 H           2.1488    0.8674    0.0917 H       1  LIG1        0.0724
     36 H           1.1955    1.7154   -3.1106 H       1  LIG1        0.0258
     37 H           2.3360    0.9510   -4.2393 H       1  LIG1        0.0258
     38 H           2.2605    2.6983   -4.1080 H       1  LIG1        0.0258
     39 H           2.1219    2.9555   -1.0242 H       1  LIG1        0.0258
     40 H           3.2036    3.8944   -2.0647 H       1  LIG1        0.0258
     41 H           3.8788    2.9698   -0.7350 H       1  LIG1        0.0258
     42 H           4.6353    2.8044   -3.4122 H       1  LIG1        0.2102
     43 H           4.2447   -0.3928   -3.1713 H       1  LIG1        0.2100
     44 H          -2.2192    2.7396   -3.2450 H       1  LIG1        0.0660
     45 H          -2.3032    2.8759   -1.4796 H       1  LIG1        0.0660
     46 H          -3.3866    1.7498   -2.3827 H       1  LIG1        0.0660
@<TRIPOS>BOND
     1     1     2    1
     2     1     3    1
     3     3     4   ar
     4     4     5   ar
     5     5     6   ar
     6     6     7   ar
     7     7     8   ar
     8     3     8   ar
     9     8     9   ar
    10     9    10   ar
    11    10    11   ar
    12     7    11   ar
    13     5    12   ar
    14    12    13   ar
    15    13    14   ar
    16    14    15   ar
    17     4    15   ar
    18    14    16    1
    19    16    17    1
    20    18    20    1
    21    20    21    1
    22    20    22    1
    23    20    23    1
    24    18    24    1
    25    13    25    1
    26    25    26    1
    27    18    19    1
    28    18    17    1
    29     2    27    1
    30     2    28    1
    31     2    29    1
    32     9    30    1
    33    10    31    1
    34    12    32    1
    35    15    33    1
    36    17    34    1
    37    17    35    1
    38    21    36    1
    39    21    37    1
    40    21    38    1
    41    22    39    1
    42    22    40    1
    43    22    41    1
    44    23    42    1
    45    24    43    1
    46    26    44    1
    47    26    45    1
    48    26    46    1
