REMARK  Name = NuBBE_157
REMARK  6 active torsions:
REMARK  status: ('A' for Active; 'I' for Inactive)
REMARK    1  A    between atoms: C_2  and  O_3
REMARK    2  A    between atoms: C_2  and  C_5
REMARK    3  A    between atoms: O_3  and  C_4
REMARK    4  A    between atoms: C_7  and  O_8
REMARK    5  A    between atoms: C_11  and  C_12
REMARK    6  A    between atoms: C_11  and  C_13
REMARK                            x       y       z     vdW  Elec       q    Type
REMARK                         _______ _______ _______ _____ _____    ______ ____
ROOT
ATOM      1  C   LIG A   1      -1.003  -0.363   2.005  0.00  0.00    +0.063 A 
ATOM      2  C   LIG A   1      -0.955  -1.679   1.534  0.00  0.00    +0.064 A 
ATOM      3  C   LIG A   1      -0.332  -1.945   0.316  0.00  0.00    +0.160 A 
ATOM      4  C   LIG A   1       0.226  -0.910  -0.449  0.00  0.00    +0.166 A 
ATOM      5  O   LIG A   1       0.810  -1.257  -1.639  0.00  0.00    -0.482 OA
ATOM      6  C   LIG A   1       1.087  -0.193  -2.564  0.00  0.00    +0.106 C 
ATOM      7  C   LIG A   1      -0.195   0.148  -3.340  0.00  0.00    +0.055 C 
ATOM      8  C   LIG A   1       2.119  -0.755  -3.552  0.00  0.00    +0.055 C 
ATOM      9  C   LIG A   1       1.697   1.020  -1.850  0.00  0.00    +0.052 C 
ATOM     10  C   LIG A   1       0.768   1.540  -0.766  0.00  0.00    +0.043 C 
ATOM     11  C   LIG A   1       0.186   0.406   0.024  0.00  0.00    -0.001 A 
ATOM     12  C   LIG A   1      -0.444   0.674   1.246  0.00  0.00    +0.022 A 
ENDROOT
BRANCH   1  14
ATOM     13  O   LIG A   1      -2.496  -0.815   3.815  0.00  0.00    -0.245 OA
ATOM     14  C   LIG A   1      -1.662  -0.090   3.307  0.00  0.00    +0.339 C 
BRANCH  14  15
ATOM     15  O   LIG A   1      -1.158   1.058   3.826  0.00  0.00    -0.464 OA
ATOM     16  C   LIG A   1      -1.713   1.454   5.079  0.00  0.00    +0.280 C 
ENDBRANCH  14  15
ENDBRANCH   1  14
BRANCH   3  17
ATOM     17  O   LIG A   1      -0.264  -3.229  -0.154  0.00  0.00    -0.503 OA
ATOM     18  H   LIG A   1      -0.662  -3.832   0.493  0.00  0.00    +0.292 HD
ENDBRANCH   3  17
TORSDOF 3
