@<TRIPOS>MOLECULE
NuBBE_2239
 56 59 0 0 0
SMALL
GASTEIGER

@<TRIPOS>ATOM
      1 O           4.4227    2.9319   -0.6624 O.2     1  LIG1       -0.2920
      2 C           3.4036    2.2773   -0.4319 C.2     1  LIG1        0.1643
      3 C           2.9023    1.4012   -1.5109 C.2     1  LIG1       -0.0197
      4 C           1.9734    0.4703   -1.2671 C.2     1  LIG1       -0.0458
      5 C           1.3661    0.1788    0.0507 C.3     1  LIG1        0.1275
      6 O           2.2334    0.0251    1.1950 O.3     1  LIG1       -0.3552
      7 C           1.5862    1.2960    1.1195 C.3     1  LIG1        0.1158
      8 C           0.5878    1.5087    2.2433 C.3     1  LIG1       -0.0194
      9 C          -0.6023    0.5589    2.2719 C.3     1  LIG1       -0.0467
     10 C          -1.0145    0.1328    0.8609 C.3     1  LIG1       -0.0284
     11 C           0.0875   -0.7424    0.1678 C.3     1  LIG1        0.0431
     12 C           0.4540   -1.9768    1.0314 C.3     1  LIG1       -0.0529
     13 C          -0.4778   -1.2134   -1.2293 C.3     1  LIG1        0.1124
     14 H          -0.4923   -0.3255   -1.8748 H       1  LIG1        0.0741
     15 O           0.3901   -2.1417   -1.9579 O.3     1  LIG1       -0.4608
     16 C           0.4189   -3.4850   -1.7204 C.2     1  LIG1        0.3042
     17 C           1.2216   -4.1690   -2.7855 C.3     1  LIG1        0.0332
     18 O          -0.1561   -4.0863   -0.8325 O.2     1  LIG1       -0.2512
     19 C          -1.9364   -1.7132   -1.2495 C.3     1  LIG1       -0.0062
     20 C          -2.9455   -0.7897   -0.5349 C.3     1  LIG1       -0.0107
     21 C          -4.2914   -1.5347   -0.4326 C.3     1  LIG1       -0.0560
     22 C          -3.1849    0.4858   -1.3466 C.2     1  LIG1       -0.0851
     23 C          -3.5101    1.6949   -0.8631 C.2     1  LIG1       -0.1021
     24 C          -2.4028   -0.5291    0.8876 C.3     1  LIG1       -0.0405
     25 C           2.5930    2.4375    0.8631 C.3     1  LIG1        0.0593
     26 C           3.5917    2.5223    2.0344 C.3     1  LIG1       -0.0500
     27 C           1.8679    3.7907    0.7142 C.3     1  LIG1       -0.0500
     28 H           3.3540    1.5315   -2.4872 H       1  LIG1        0.0650
     29 H           1.7093   -0.1501   -2.1168 H       1  LIG1        0.0603
     30 H           0.1636    2.5134    2.1579 H       1  LIG1        0.0294
     31 H           1.0980    1.4688    3.2122 H       1  LIG1        0.0294
     32 H          -1.4352    1.0701    2.7720 H       1  LIG1        0.0269
     33 H          -0.3883   -0.3035    2.9094 H       1  LIG1        0.0269
     34 H          -1.1029    1.0615    0.2801 H       1  LIG1        0.0308
     35 H           0.7594   -1.7198    2.0494 H       1  LIG1        0.0237
     36 H           1.3172   -2.5022    0.6098 H       1  LIG1        0.0237
     37 H          -0.3848   -2.6692    1.1297 H       1  LIG1        0.0237
     38 H           2.1845   -3.6724   -2.9209 H       1  LIG1        0.0342
     39 H           0.6479   -4.1680   -3.7152 H       1  LIG1        0.0342
     40 H           1.4092   -5.2050   -2.4852 H       1  LIG1        0.0342
     41 H          -1.9996   -2.7058   -0.7941 H       1  LIG1        0.0309
     42 H          -2.2345   -1.8712   -2.2965 H       1  LIG1        0.0309
     43 H          -4.6960   -1.7728   -1.4236 H       1  LIG1        0.0238
     44 H          -5.0401   -0.9381    0.1010 H       1  LIG1        0.0238
     45 H          -4.1787   -2.4800    0.1115 H       1  LIG1        0.0238
     46 H          -3.1040    0.3943   -2.4300 H       1  LIG1        0.0572
     47 H          -3.6521    1.8834    0.1963 H       1  LIG1        0.0532
     48 H          -3.6581    2.5409   -1.5283 H       1  LIG1        0.0532
     49 H          -2.3524   -1.4716    1.4476 H       1  LIG1        0.0276
     50 H          -3.1062    0.1009    1.4467 H       1  LIG1        0.0276
     51 H           4.1871    1.6049    2.1109 H       1  LIG1        0.0240
     52 H           3.0806    2.6647    2.9922 H       1  LIG1        0.0240
     53 H           4.2926    3.3553    1.9101 H       1  LIG1        0.0240
     54 H           1.4536    4.1394    1.6661 H       1  LIG1        0.0240
     55 H           1.0446    3.7179   -0.0060 H       1  LIG1        0.0240
     56 H           2.5452    4.5770    0.3606 H       1  LIG1        0.0240
@<TRIPOS>BOND
     1     1     2    2
     2     2     3    1
     3     3     4    2
     4     4     5    1
     5     5     6    1
     6     5     7    1
     7     7     8    1
     8     8     9    1
     9     9    10    1
    10    10    11    1
    11    11    12    1
    12     5    11    1
    13    11    13    1
    14    15    16    1
    15    16    17    1
    16    16    18    2
    17    13    19    1
    18    19    20    1
    19    20    21    1
    20    20    22    1
    21    22    23    2
    22    20    24    1
    23    10    24    1
    24     6     7    1
    25     7    25    1
    26    25    26    1
    27     2    25    1
    28    25    27    1
    29    13    15    1
    30    13    14    1
    31     3    28    1
    32     4    29    1
    33     8    30    1
    34     8    31    1
    35     9    32    1
    36     9    33    1
    37    10    34    1
    38    12    35    1
    39    12    36    1
    40    12    37    1
    41    17    38    1
    42    17    39    1
    43    17    40    1
    44    19    41    1
    45    19    42    1
    46    21    43    1
    47    21    44    1
    48    21    45    1
    49    22    46    1
    50    23    47    1
    51    23    48    1
    52    24    49    1
    53    24    50    1
    54    26    51    1
    55    26    52    1
    56    26    53    1
    57    27    54    1
    58    27    55    1
    59    27    56    1
