@<TRIPOS>MOLECULE
NuBBE_1213
 77 80 0 0 0
SMALL
GASTEIGER

@<TRIPOS>ATOM
      1 O          -0.6549   -0.3528   -8.6931 O.3     1  LIG1       -0.3889
      2 C          -0.7646    0.1026   -7.3389 C.3     1  LIG1        0.0849
      3 H          -1.2384    1.0908   -7.3578 H       1  LIG1        0.0622
      4 C           0.6409    0.2204   -6.7183 C.3     1  LIG1        0.1026
      5 H           1.1536    1.0645   -7.1954 H       1  LIG1        0.0666
      6 O           1.4044   -0.9378   -7.0805 O.3     1  LIG1       -0.3849
      7 C          -1.6677   -0.8673   -6.5796 C.3     1  LIG1       -0.0233
      8 C          -1.7029   -0.5516   -5.0821 C.3     1  LIG1       -0.0411
      9 C          -0.3022   -0.5796   -4.4065 C.3     1  LIG1       -0.0054
     10 C           0.2574   -2.0257   -4.4617 C.3     1  LIG1       -0.0555
     11 C           0.6233    0.3619   -5.2074 C.2     1  LIG1       -0.0367
     12 C           1.3593    1.3266   -4.6206 C.2     1  LIG1       -0.0815
     13 C           1.4249    1.5649   -3.1438 C.3     1  LIG1       -0.0310
     14 C           0.9157    0.3623   -2.3368 C.3     1  LIG1       -0.0307
     15 C          -0.4522   -0.1038   -2.8882 C.3     1  LIG1       -0.0285
     16 C          -1.1207   -1.1570   -1.9702 C.3     1  LIG1       -0.0486
     17 C          -1.0918   -0.8142   -0.4759 C.3     1  LIG1       -0.0468
     18 C           0.3332   -0.5023    0.0425 C.3     1  LIG1       -0.0258
     19 C           1.2328   -1.7514   -0.0352 C.3     1  LIG1       -0.0590
     20 C           0.9494    0.6305   -0.8207 C.3     1  LIG1       -0.0320
     21 C           0.2345    1.8930   -0.3323 C.3     1  LIG1       -0.0492
     22 C          -0.1214    1.6178    1.1315 C.3     1  LIG1       -0.0491
     23 C           0.3546    0.1816    1.4579 C.3     1  LIG1       -0.0304
     24 C          -0.3935   -0.4746    2.6784 C.3     1  LIG1       -0.0142
     25 C          -0.1494    0.3071    4.0262 C.3     1  LIG1        0.0617
     26 O          -0.5249    1.6767    3.8651 O.3     1  LIG1       -0.3912
     27 C          -0.9299   -0.2529    5.2482 C.3     1  LIG1       -0.0054
     28 C          -0.7799    0.5081    6.5669 C.2     1  LIG1       -0.0716
     29 C           0.5965    0.5533    7.2298 C.3     1  LIG1       -0.0257
     30 C           1.3651    1.8151    6.8256 C.3     1  LIG1       -0.0590
     31 C           0.5742    0.4642    8.7685 C.3     1  LIG1       -0.0590
     32 C          -1.8749    1.0620    7.1377 C.2     1  LIG1       -0.0991
     33 C           0.0027   -1.9486    2.8518 C.3     1  LIG1       -0.0598
     34 H           0.0617   -1.0215   -8.6713 H       1  LIG1        0.2099
     35 H           2.2022   -0.9227   -6.5223 H       1  LIG1        0.2103
     36 H          -1.3509   -1.9027   -6.7528 H       1  LIG1        0.0291
     37 H          -2.6827   -0.8085   -6.9922 H       1  LIG1        0.0291
     38 H          -2.3772   -1.2649   -4.5943 H       1  LIG1        0.0274
     39 H          -2.1552    0.4413   -4.9517 H       1  LIG1        0.0274
     40 H           0.4820   -2.3667   -5.4740 H       1  LIG1        0.0238
     41 H          -0.4690   -2.7498   -4.0777 H       1  LIG1        0.0238
     42 H           1.1804   -2.1276   -3.8828 H       1  LIG1        0.0238
     43 H           1.9642    1.9973   -5.2284 H       1  LIG1        0.0573
     44 H           0.8489    2.4705   -2.9216 H       1  LIG1        0.0310
     45 H           2.4659    1.7690   -2.8654 H       1  LIG1        0.0310
     46 H           1.6350   -0.4475   -2.5131 H       1  LIG1        0.0309
     47 H          -1.1136    0.7762   -2.8821 H       1  LIG1        0.0312
     48 H          -0.6424   -2.1331   -2.0813 H       1  LIG1        0.0268
     49 H          -2.1654   -1.2901   -2.2758 H       1  LIG1        0.0268
     50 H          -1.5179   -1.6553    0.0840 H       1  LIG1        0.0271
     51 H          -1.7737    0.0272   -0.3062 H       1  LIG1        0.0271
     52 H           1.4695   -2.0317   -1.0656 H       1  LIG1        0.0235
     53 H           0.7605   -2.6329    0.4004 H       1  LIG1        0.0235
     54 H           2.1856   -1.5852    0.4779 H       1  LIG1        0.0235
     55 H           2.0088    0.7417   -0.5417 H       1  LIG1        0.0309
     56 H          -0.6759    2.1073   -0.9025 H       1  LIG1        0.0268
     57 H           0.8823    2.7727   -0.4141 H       1  LIG1        0.0268
     58 H          -1.2042    1.7184    1.2721 H       1  LIG1        0.0268
     59 H           0.3718    2.3572    1.7696 H       1  LIG1        0.0268
     60 H           1.4120    0.2630    1.7561 H       1  LIG1        0.0310
     61 H          -1.4688   -0.4378    2.4633 H       1  LIG1        0.0326
     62 H           0.9247    0.2882    4.2403 H       1  LIG1        0.0599
     63 H          -1.4918    1.7373    3.9444 H       1  LIG1        0.2098
     64 H          -0.6486   -1.2905    5.4508 H       1  LIG1        0.0335
     65 H          -1.9930   -0.2726    4.9714 H       1  LIG1        0.0335
     66 H           1.1651   -0.3216    6.8867 H       1  LIG1        0.0340
     67 H           0.8590    2.7208    7.1782 H       1  LIG1        0.0235
     68 H           1.4770    1.8950    5.7421 H       1  LIG1        0.0235
     69 H           2.3732    1.8071    7.2549 H       1  LIG1        0.0235
     70 H           0.0608    1.3152    9.2300 H       1  LIG1        0.0235
     71 H           1.5953    0.4579    9.1680 H       1  LIG1        0.0235
     72 H           0.0834   -0.4554    9.1047 H       1  LIG1        0.0235
     73 H          -2.8516    1.0002    6.6752 H       1  LIG1        0.0534
     74 H          -1.8253    1.5971    8.0780 H       1  LIG1        0.0534
     75 H           1.0912   -2.0750    2.8505 H       1  LIG1        0.0233
     76 H          -0.4310   -2.5609    2.0584 H       1  LIG1        0.0233
     77 H          -0.3754   -2.3903    3.7749 H       1  LIG1        0.0233
@<TRIPOS>BOND
     1     2     4    1
     2     2     7    1
     3     7     8    1
     4     8     9    1
     5     9    11    1
     6     4    11    1
     7    11    12    2
     8    12    13    1
     9    13    14    1
    10    14    15    1
    11     9    15    1
    12    15    16    1
    13    16    17    1
    14    17    18    1
    15    18    20    1
    16    14    20    1
    17    20    21    1
    18    21    22    1
    19    22    23    1
    20    18    23    1
    21    24    25    1
    22    25    26    1
    23    25    27    1
    24    27    28    1
    25    28    29    1
    26    29    30    1
    27    29    31    1
    28    28    32    2
    29    24    33    1
    30     9    10    1
    31    18    19    1
    32    23    24    1
    33     2     3    1
    34     2     1    1
    35     4     6    1
    36     4     5    1
    37     1    34    1
    38     6    35    1
    39     7    36    1
    40     7    37    1
    41     8    38    1
    42     8    39    1
    43    10    40    1
    44    10    41    1
    45    10    42    1
    46    12    43    1
    47    13    44    1
    48    13    45    1
    49    14    46    1
    50    15    47    1
    51    16    48    1
    52    16    49    1
    53    17    50    1
    54    17    51    1
    55    19    52    1
    56    19    53    1
    57    19    54    1
    58    20    55    1
    59    21    56    1
    60    21    57    1
    61    22    58    1
    62    22    59    1
    63    23    60    1
    64    24    61    1
    65    25    62    1
    66    26    63    1
    67    27    64    1
    68    27    65    1
    69    29    66    1
    70    30    67    1
    71    30    68    1
    72    30    69    1
    73    31    70    1
    74    31    71    1
    75    31    72    1
    76    32    73    1
    77    32    74    1
    78    33    75    1
    79    33    76    1
    80    33    77    1
