@<TRIPOS>MOLECULE
NuBBE_1677
 56 56 0 0 0
SMALL
GASTEIGER

@<TRIPOS>ATOM
      1 C          -1.3204    1.1023   -3.7199 C.3     1  LIG1       -0.0653
      2 C           0.0532    0.3795   -3.9447 C.3     1  LIG1       -0.0559
      3 C           0.1888   -1.1095   -3.1762 C.3     1  LIG1       -0.0533
      4 C           0.1749   -1.4669   -0.9246 C.3     1  LIG1       -0.0528
      5 C           1.0083   -0.7666   -0.0002 C.3     1  LIG1       -0.0496
      6 C          -0.0852   -0.3618    0.9987 C.3     1  LIG1       -0.0348
      7 C          -1.3429    0.6615    1.1740 C.2     1  LIG1       -0.0879
      8 C          -2.0574    0.8216    2.3162 C.2     1  LIG1       -0.0879
      9 C          -1.8779    0.1143    3.6329 C.3     1  LIG1       -0.0348
     10 C          -0.6567    0.3600    4.6133 C.3     1  LIG1       -0.0496
     11 C           0.8689    0.1598    4.3342 C.3     1  LIG1       -0.0528
     12 C           1.6774    1.2577    3.4572 C.3     1  LIG1       -0.0530
     13 C           0.9332    1.3751    2.2289 C.3     1  LIG1       -0.0528
     14 C           1.2104    2.0871    0.6396 C.3     1  LIG1       -0.0491
     15 C           0.2830    1.7953   -0.9196 C.3     1  LIG1       -0.0276
     16 C           0.1623    0.4227   -1.7328 C.ar    1  LIG1       -0.0439
     17 C          -1.4058   -0.6119   -1.9667 C.ar    1  LIG1       -0.0170
     18 C          -1.1424   -2.4235   -2.2199 C.ar    1  LIG1        0.1171
     19 O          -2.1845   -3.1995   -2.4687 O.3     1  LIG1       -0.5068
     20 C           0.5217   -3.0996   -2.3436 C.ar    1  LIG1       -0.0202
     21 C           1.9558   -2.0946   -2.2009 C.ar    1  LIG1       -0.0581
     22 C           1.8081   -0.3619   -2.0579 C.ar    1  LIG1       -0.0583
     23 H          -1.3877    2.0026   -4.2928 H       1  LIG1        0.0230
     24 H          -1.5125    1.4977   -2.6974 H       1  LIG1        0.0230
     25 H          -2.1558    0.4055   -3.8685 H       1  LIG1        0.0230
     26 H           0.8918    1.0412   -3.6712 H       1  LIG1        0.0263
     27 H           0.2705    0.0974   -4.9747 H       1  LIG1        0.0263
     28 H           1.0202   -1.5132   -3.7295 H       1  LIG1        0.0265
     29 H          -0.5905   -1.6029   -3.7922 H       1  LIG1        0.0265
     30 H          -0.1402   -2.4068   -0.4541 H       1  LIG1        0.0265
     31 H          -0.8152   -1.1141   -0.4524 H       1  LIG1        0.0265
     32 H           1.5600    0.1693   -0.3054 H       1  LIG1        0.0268
     33 H           1.9328   -1.2780    0.2863 H       1  LIG1        0.0268
     34 H           0.8145    0.1551    1.0152 H       1  LIG1        0.0307
     35 H          -0.1863   -1.1578    1.6840 H       1  LIG1        0.0307
     36 H          -1.5121    1.5931    0.6129 H       1  LIG1        0.0569
     37 H          -2.7556    1.6728    2.3612 H       1  LIG1        0.0569
     38 H          -2.0969   -0.9459    3.4755 H       1  LIG1        0.0307
     39 H          -2.7436    0.4628    4.2276 H       1  LIG1        0.0307
     40 H          -0.8604   -0.3282    5.4490 H       1  LIG1        0.0268
     41 H          -0.7480    1.3656    5.0283 H       1  LIG1        0.0268
     42 H           0.9905   -0.8872    3.9718 H       1  LIG1        0.0265
     43 H           1.4196    0.1927    5.2682 H       1  LIG1        0.0265
     44 H           2.6508    0.8457    3.1416 H       1  LIG1        0.0265
     45 H           1.6153    2.2798    3.7646 H       1  LIG1        0.0265
     46 H          -0.0466    1.7036    2.5194 H       1  LIG1        0.0265
     47 H           1.1246    0.2334    2.3748 H       1  LIG1        0.0265
     48 H           2.2462    1.8436    0.3752 H       1  LIG1        0.0268
     49 H           1.1259    3.1585    0.8161 H       1  LIG1        0.0268
     50 H           0.8010    2.4254   -1.6562 H       1  LIG1        0.0313
     51 H          -0.7512    2.1222   -0.8619 H       1  LIG1        0.0313
     52 H          -2.3828   -0.2603   -1.7193 H       1  LIG1        0.0657
     53 H          -2.8633   -2.5849   -2.1456 H       1  LIG1        0.2921
     54 H           0.6696   -3.9508   -2.9983 H       1  LIG1        0.0654
     55 H           2.8995   -2.4354   -2.6354 H       1  LIG1        0.0619
     56 H           2.7434    0.1564   -1.8360 H       1  LIG1        0.0620
@<TRIPOS>BOND
     1     1     2    1
     2     2     3    1
     3     3     4    1
     4     4     5    1
     5     5     6    1
     6     6     7    1
     7     7     8    2
     8     8     9    1
     9     9    10    1
    10    10    11    1
    11    11    12    1
    12    12    13    1
    13    13    14    1
    14    14    15    1
    15    15    16    1
    16    16    17   ar
    17    17    18   ar
    18    18    19    1
    19    18    20   ar
    20    20    21   ar
    21    21    22   ar
    22    16    22   ar
    23     1    23    1
    24     1    24    1
    25     1    25    1
    26     2    26    1
    27     2    27    1
    28     3    28    1
    29     3    29    1
    30     4    30    1
    31     4    31    1
    32     5    32    1
    33     5    33    1
    34     6    34    1
    35     6    35    1
    36     7    36    1
    37     8    37    1
    38     9    38    1
    39     9    39    1
    40    10    40    1
    41    10    41    1
    42    11    42    1
    43    11    43    1
    44    12    44    1
    45    12    45    1
    46    13    46    1
    47    13    47    1
    48    14    48    1
    49    14    49    1
    50    15    50    1
    51    15    51    1
    52    17    52    1
    53    19    53    1
    54    20    54    1
    55    21    55    1
    56    22    56    1
