REMARK  Name = NuBBE_565
REMARK  4 active torsions:
REMARK  status: ('A' for Active; 'I' for Inactive)
REMARK    1  A    between atoms: O_1  and  C_2
REMARK    2  A    between atoms: C_8  and  C_9
REMARK    3  A    between atoms: C_11  and  O_12
REMARK    4  A    between atoms: C_13  and  O_14
REMARK                            x       y       z     vdW  Elec       q    Type
REMARK                         _______ _______ _______ _____ _____    ______ ____
ROOT
ATOM      1  C   LIG A   1      -3.646   2.241   0.043  0.00  0.00    +0.120 A 
ATOM      2  C   LIG A   1      -3.087   3.517   0.044  0.00  0.00    +0.046 A 
ATOM      3  C   LIG A   1      -1.698   3.657   0.061  0.00  0.00    +0.019 A 
ATOM      4  C   LIG A   1      -0.888   2.516   0.076  0.00  0.00    +0.064 A 
ATOM      5  C   LIG A   1       0.577   2.632   0.090  0.00  0.00    +0.193 A 
ATOM      6  C   LIG A   1       1.337   1.372   0.105  0.00  0.00    +0.098 A 
ATOM      7  C   LIG A   1       0.675   0.205   0.112  0.00  0.00    +0.139 A 
ATOM      8  O   LIG A   1      -0.708   0.094   0.088  0.00  0.00    -0.455 OA
ATOM      9  O   LIG A   1       1.148   3.715   0.088  0.00  0.00    -0.287 OA
ATOM     10  C   LIG A   1      -1.456   1.244   0.075  0.00  0.00    +0.143 A 
ATOM     11  C   LIG A   1      -2.843   1.103   0.059  0.00  0.00    +0.092 A 
ENDROOT
BRANCH   7  12
ATOM     12  C   LIG A   1       1.383  -1.091   0.116  0.00  0.00    +0.021 A 
ATOM     13  C   LIG A   1       0.910  -2.148  -0.681  0.00  0.00    +0.060 A 
ATOM     14  C   LIG A   1       1.569  -3.373  -0.671  0.00  0.00    +0.159 A 
ATOM     15  C   LIG A   1       2.692  -3.563   0.128  0.00  0.00    +0.158 A 
ATOM     16  C   LIG A   1       3.171  -2.540   0.930  0.00  0.00    +0.050 A 
ATOM     17  C   LIG A   1       2.514  -1.306   0.926  0.00  0.00    +0.015 A 
BRANCH  14  18
ATOM     18  O   LIG A   1       1.147  -4.428  -1.433  0.00  0.00    -0.503 OA
ATOM     19  H   LIG A   1       0.351  -4.152  -1.921  0.00  0.00    +0.292 HD
ENDBRANCH  14  18
BRANCH  15  20
ATOM     20  O   LIG A   1       3.332  -4.769   0.132  0.00  0.00    -0.503 OA
ATOM     21  H   LIG A   1       2.821  -5.320  -0.495  0.00  0.00    +0.292 HD
ENDBRANCH  15  20
ENDBRANCH   7  12
BRANCH   1  22
ATOM     22  O   LIG A   1      -4.997   2.059   0.026  0.00  0.00    -0.507 OA
ATOM     23  H   LIG A   1      -5.433   2.928   0.027  0.00  0.00    +0.292 HD
ENDBRANCH   1  22
TORSDOF 4
