@<TRIPOS>MOLECULE
NuBBE_1918
 42 41 0 0 0
SMALL
GASTEIGER

@<TRIPOS>ATOM
      1 C           4.7177    0.4666    2.3502 C.2     1  LIG1        0.3118
      2 O           4.0586    1.4846    2.1299 O.2     1  LIG1       -0.2504
      3 C           4.1591   -0.9213    2.5625 C.3     1  LIG1        0.0453
      4 C           2.6305   -0.9817    2.5764 C.3     1  LIG1       -0.0430
      5 C           2.0032   -0.6294    1.2215 C.3     1  LIG1       -0.0526
      6 C           0.4703   -0.7068    1.2570 C.3     1  LIG1       -0.0530
      7 C          -0.1389   -0.3658   -0.1129 C.3     1  LIG1       -0.0531
      8 C          -1.6751   -0.4529   -0.1369 C.3     1  LIG1       -0.0531
      9 C          -2.2464   -0.1011   -1.5250 C.3     1  LIG1       -0.0531
     10 C          -3.7812   -0.1874   -1.5817 C.3     1  LIG1       -0.0531
     11 C          -4.3372    0.1722   -2.9710 C.3     1  LIG1       -0.0533
     12 C          -5.8680    0.0851   -3.0190 C.3     1  LIG1       -0.0559
     13 C          -6.4214    0.4339   -4.3955 C.3     1  LIG1       -0.0653
     14 O           6.0772    0.4112    2.5145 O.3     1  LIG1       -0.4342
     15 C           6.6477    1.6012    2.9597 C.2     1  LIG1        0.0885
     16 C           7.9659    1.7322    3.0816 C.2     1  LIG1       -0.0635
     17 H           4.5198   -1.2510    3.5467 H       1  LIG1        0.0378
     18 H           4.5650   -1.5977    1.8032 H       1  LIG1        0.0378
     19 H           2.2430   -0.3131    3.3549 H       1  LIG1        0.0270
     20 H           2.3327   -2.0003    2.8556 H       1  LIG1        0.0270
     21 H           2.3955   -1.3080    0.4551 H       1  LIG1        0.0265
     22 H           2.2915    0.3836    0.9239 H       1  LIG1        0.0265
     23 H           0.0924   -0.0078    2.0133 H       1  LIG1        0.0265
     24 H           0.1668   -1.7145    1.5623 H       1  LIG1        0.0265
     25 H           0.2704   -1.0512   -0.8646 H       1  LIG1        0.0265
     26 H           0.1706    0.6471   -0.3984 H       1  LIG1        0.0265
     27 H          -2.0931    0.2247    0.6173 H       1  LIG1        0.0265
     28 H          -1.9837   -1.4695    0.1345 H       1  LIG1        0.0265
     29 H          -1.8238   -0.7869   -2.2691 H       1  LIG1        0.0265
     30 H          -1.9297    0.9113   -1.8041 H       1  LIG1        0.0265
     31 H          -4.2154    0.4848   -0.8321 H       1  LIG1        0.0265
     32 H          -4.0945   -1.2061   -1.3241 H       1  LIG1        0.0265
     33 H          -3.9146   -0.5080   -3.7206 H       1  LIG1        0.0265
     34 H          -4.0247    1.1874   -3.2447 H       1  LIG1        0.0265
     35 H          -6.3048    0.7662   -2.2794 H       1  LIG1        0.0263
     36 H          -6.1906   -0.9290   -2.7558 H       1  LIG1        0.0263
     37 H          -6.1838    1.4675   -4.6673 H       1  LIG1        0.0230
     38 H          -7.5117    0.3269   -4.4054 H       1  LIG1        0.0230
     39 H          -6.0125   -0.2271   -5.1664 H       1  LIG1        0.0230
     40 H           5.9416    2.3625    3.2716 H       1  LIG1        0.1024
     41 H           8.6357    0.9357    2.7747 H       1  LIG1        0.0565
     42 H           8.3960    2.6318    3.5076 H       1  LIG1        0.0565
@<TRIPOS>BOND
     1     1     2    2
     2     1     3    1
     3     3     4    1
     4     4     5    1
     5     5     6    1
     6     6     7    1
     7     7     8    1
     8     8     9    1
     9     9    10    1
    10    10    11    1
    11    11    12    1
    12    12    13    1
    13     1    14    1
    14    14    15    1
    15    15    16    2
    16     3    17    1
    17     3    18    1
    18     4    19    1
    19     4    20    1
    20     5    21    1
    21     5    22    1
    22     6    23    1
    23     6    24    1
    24     7    25    1
    25     7    26    1
    26     8    27    1
    27     8    28    1
    28     9    29    1
    29     9    30    1
    30    10    31    1
    31    10    32    1
    32    11    33    1
    33    11    34    1
    34    12    35    1
    35    12    36    1
    36    13    37    1
    37    13    38    1
    38    13    39    1
    39    15    40    1
    40    16    41    1
    41    16    42    1
