@<TRIPOS>MOLECULE
NuBBE_1608
 122 127 0 0 0
SMALL
GASTEIGER

@<TRIPOS>ATOM
      1 C          -3.4299    4.5375    2.8840 C.3     1  LIG1       -0.0588
      2 C          -2.3186    4.3863    1.8208 C.3     1  LIG1       -0.0231
      3 C          -2.2878    2.9081    1.2712 C.3     1  LIG1       -0.0289
      4 H          -1.6022    2.8879    0.4130 H       1  LIG1        0.0312
      5 C          -1.6677    1.9445    2.2739 C.3     1  LIG1       -0.0194
      6 C          -1.9885    0.4361    2.1350 C.3     1  LIG1       -0.0196
      7 C          -2.5247    1.2417    3.3059 C.3     1  LIG1       -0.0401
      8 C          -3.0252   -0.0664    1.0967 C.3     1  LIG1       -0.0299
      9 H          -3.9084   -0.3504    1.6863 H       1  LIG1        0.0310
     10 C          -3.4635    1.0310    0.1077 C.3     1  LIG1       -0.0491
     11 C          -3.6419    2.3963    0.7472 C.3     1  LIG1       -0.0489
     12 C          -2.6075   -1.3086    0.2178 C.3     1  LIG1       -0.0141
     13 H          -2.3956   -0.9663   -0.8058 H       1  LIG1        0.0326
     14 C          -3.8041   -2.2679    0.0795 C.3     1  LIG1       -0.0598
     15 C          -1.3530   -2.0875    0.6709 C.3     1  LIG1        0.0647
     16 H          -1.6668   -2.7965    1.4430 H       1  LIG1        0.0600
     17 C          -0.3440   -1.1047    1.2295 C.3     1  LIG1       -0.0257
     18 C          -0.9439   -0.5785    2.5068 C.3     1  LIG1       -0.0442
     19 O          -0.8338   -2.8316   -0.4343 O.3     1  LIG1       -0.3442
     20 C           0.3550   -3.6079   -0.2037 C.3     1  LIG1        0.2007
     21 H           1.1763   -2.9541    0.0986 H       1  LIG1        0.0950
     22 C           0.1197   -4.7566    0.8141 C.3     1  LIG1        0.1936
     23 H          -0.7761   -4.5882    1.4147 H       1  LIG1        0.0825
     24 O           1.2221   -4.9847    1.7415 O.3     1  LIG1       -0.4525
     25 C           1.3733   -4.1867    2.8168 C.2     1  LIG1        0.3045
     26 O           1.3931   -2.9730    2.8060 O.2     1  LIG1       -0.2512
     27 C           1.5477   -5.0127    4.0576 C.3     1  LIG1        0.0332
     28 C          -0.0097   -6.0984    0.0749 C.3     1  LIG1        0.1836
     29 H          -0.1624   -6.8927    0.8155 H       1  LIG1        0.0812
     30 O          -1.0806   -6.1513   -0.8907 O.3     1  LIG1       -0.4537
     31 C          -2.3357   -6.3608   -0.4284 C.2     1  LIG1        0.3044
     32 O          -2.6863   -6.2579    0.7366 O.2     1  LIG1       -0.2512
     33 C          -3.2037   -6.8167   -1.5644 C.3     1  LIG1        0.0332
     34 C           1.2810   -6.3764   -0.7203 C.3     1  LIG1        0.1726
     35 H           1.1026   -7.2067   -1.4144 H       1  LIG1        0.0801
     36 C           1.7341   -5.1098   -1.4775 C.3     1  LIG1        0.1361
     37 H           2.6186   -4.6707   -0.9941 H       1  LIG1        0.0670
     38 O           0.7216   -4.1124   -1.4967 O.3     1  LIG1       -0.3372
     39 C           2.1549   -5.4610   -2.9133 C.3     1  LIG1        0.1222
     40 O           1.0635   -6.0048   -3.6913 O.3     1  LIG1       -0.4621
     41 C           0.3074   -5.0807   -4.3352 C.2     1  LIG1        0.3040
     42 O           0.4551   -3.8636   -4.2860 O.2     1  LIG1       -0.2512
     43 C          -0.7046   -5.7239   -5.2282 C.3     1  LIG1        0.0332
     44 O           2.4372   -6.7138    0.0804 O.3     1  LIG1       -0.4549
     45 C           2.5004   -7.9380    0.6475 C.2     1  LIG1        0.3044
     46 O           1.5774   -8.7337    0.7243 O.2     1  LIG1       -0.2512
     47 C           3.9026   -8.1939    1.1116 C.3     1  LIG1        0.0332
     48 C          -0.2675    2.3708    2.6730 C.3     1  LIG1       -0.0460
     49 C          -0.2559    3.7881    3.2218 C.3     1  LIG1       -0.0463
     50 C          -0.8812    4.8603    2.3115 C.3     1  LIG1       -0.0233
     51 C          -0.9879    6.1266    3.2260 C.3     1  LIG1       -0.0588
     52 C          -0.1213    5.3495    0.9835 C.3     1  LIG1       -0.0325
     53 H           0.2162    6.3767    1.1890 H       1  LIG1        0.0309
     54 C          -1.2558    5.4897   -0.0633 C.3     1  LIG1       -0.0489
     55 C          -2.5815    5.3806    0.6752 C.3     1  LIG1       -0.0466
     56 C           1.1597    4.6672    0.3495 C.3     1  LIG1       -0.0402
     57 H           0.9022    3.6489    0.0366 H       1  LIG1        0.0301
     58 C           1.6454    5.4544   -0.9375 C.3     1  LIG1       -0.0465
     59 C           2.8103    4.8055   -1.7422 C.3     1  LIG1       -0.0315
     60 C           3.3154    5.5968   -2.9573 C.2     1  LIG1       -0.0740
     61 C           3.7225    6.8727   -2.8170 C.2     1  LIG1       -0.0992
     62 C           3.4018    4.8447   -4.2938 C.3     1  LIG1       -0.0258
     63 C           3.1520    5.7124   -5.5389 C.3     1  LIG1       -0.0590
     64 C           4.7402    4.1120   -4.4663 C.3     1  LIG1       -0.0590
     65 C           2.3302    4.6057    1.3400 C.3     1  LIG1       -0.0621
     66 H          -3.2338    3.9285    3.7718 H       1  LIG1        0.0235
     67 H          -4.4103    4.2512    2.4897 H       1  LIG1        0.0235
     68 H          -3.5480    5.5737    3.2150 H       1  LIG1        0.0235
     69 H          -2.1015    1.0609    4.2934 H       1  LIG1        0.0276
     70 H          -3.5870    1.4405    3.3635 H       1  LIG1        0.0276
     71 H          -4.3989    0.7338   -0.3754 H       1  LIG1        0.0268
     72 H          -2.7187    1.1373   -0.6943 H       1  LIG1        0.0268
     73 H          -4.3999    2.3241    1.5327 H       1  LIG1        0.0268
     74 H          -4.0403    3.0730   -0.0136 H       1  LIG1        0.0268
     75 H          -4.6571   -1.7627   -0.3857 H       1  LIG1        0.0233
     76 H          -4.1258   -2.6366    1.0595 H       1  LIG1        0.0233
     77 H          -3.5521   -3.1347   -0.5405 H       1  LIG1        0.0233
     78 H          -0.1220   -0.3086    0.5085 H       1  LIG1        0.0290
     79 H           0.6146   -1.5568    1.4336 H       1  LIG1        0.0290
     80 H          -0.1495   -0.1864    3.1437 H       1  LIG1        0.0272
     81 H          -1.4072   -1.3769    3.1017 H       1  LIG1        0.0272
     82 H           1.3034   -6.0563    3.8547 H       1  LIG1        0.0342
     83 H           0.8443   -4.6461    4.8077 H       1  LIG1        0.0342
     84 H           2.5752   -4.9388    4.4125 H       1  LIG1        0.0342
     85 H          -4.1546   -7.1900   -1.1760 H       1  LIG1        0.0342
     86 H          -2.7077   -7.6447   -2.0826 H       1  LIG1        0.0342
     87 H          -3.3877   -5.9951   -2.2596 H       1  LIG1        0.0342
     88 H           2.5833   -4.5889   -3.4207 H       1  LIG1        0.0725
     89 H           2.9397   -6.2267   -2.8891 H       1  LIG1        0.0725
     90 H          -0.4248   -5.5021   -6.2619 H       1  LIG1        0.0342
     91 H          -1.6955   -5.3194   -5.0102 H       1  LIG1        0.0342
     92 H          -0.7287   -6.8064   -5.0932 H       1  LIG1        0.0342
     93 H           3.9342   -8.2989    2.1972 H       1  LIG1        0.0342
     94 H           4.5572   -7.3627    0.8249 H       1  LIG1        0.0342
     95 H           4.2763   -9.0948    0.6190 H       1  LIG1        0.0342
     96 H           0.4023    2.2691    1.8157 H       1  LIG1        0.0271
     97 H           0.1423    1.7407    3.4683 H       1  LIG1        0.0271
     98 H           0.7508    4.0752    3.5365 H       1  LIG1        0.0271
     99 H          -0.8260    3.7547    4.1629 H       1  LIG1        0.0271
    100 H          -1.5246    5.9192    4.1591 H       1  LIG1        0.0235
    101 H          -1.5009    6.9551    2.7282 H       1  LIG1        0.0235
    102 H           0.0097    6.4809    3.5108 H       1  LIG1        0.0235
    103 H          -1.1935    4.6983   -0.8182 H       1  LIG1        0.0268
    104 H          -1.1946    6.4492   -0.5876 H       1  LIG1        0.0268
    105 H          -3.3832    5.0712    0.0004 H       1  LIG1        0.0271
    106 H          -2.8734    6.3627    1.0637 H       1  LIG1        0.0271
    107 H           1.9342    6.4654   -0.6238 H       1  LIG1        0.0271
    108 H           0.8078    5.5751   -1.6334 H       1  LIG1        0.0271
    109 H           2.4864    3.8089   -2.0636 H       1  LIG1        0.0310
    110 H           3.6846    4.6479   -1.1026 H       1  LIG1        0.0310
    111 H           3.6929    7.3783   -1.8569 H       1  LIG1        0.0534
    112 H           4.1330    7.4501   -3.6384 H       1  LIG1        0.0534
    113 H           2.6103    4.0845   -4.2945 H       1  LIG1        0.0340
    114 H           3.8461    6.5564   -5.6109 H       1  LIG1        0.0235
    115 H           2.1311    6.1071   -5.5364 H       1  LIG1        0.0235
    116 H           3.2787    5.1225   -6.4544 H       1  LIG1        0.0235
    117 H           5.5481    4.8026   -4.7362 H       1  LIG1        0.0235
    118 H           4.6623    3.3757   -5.2768 H       1  LIG1        0.0235
    119 H           5.0378    3.5736   -3.5616 H       1  LIG1        0.0235
    120 H           3.2608    4.2899    0.8624 H       1  LIG1        0.0233
    121 H           2.1669    3.8713    2.1254 H       1  LIG1        0.0233
    122 H           2.5111    5.5822    1.8009 H       1  LIG1        0.0233
@<TRIPOS>BOND
     1     1     2    1
     2     2     3    1
     3     3     4    1
     4     3     5    1
     5     5     6    1
     6     6     7    1
     7     5     7    1
     8     6     8    1
     9     8     9    1
    10     8    10    1
    11    10    11    1
    12     3    11    1
    13     8    12    1
    14    12    13    1
    15    12    14    1
    16    12    15    1
    17    15    17    1
    18    17    18    1
    19     6    18    1
    20    19    20    1
    21    20    21    1
    22    20    22    1
    23    24    25    1
    24    25    26    2
    25    25    27    1
    26    22    28    1
    27    30    31    1
    28    31    32    2
    29    31    33    1
    30    28    34    1
    31    34    35    1
    32    34    36    1
    33    36    38    1
    34    20    38    1
    35    39    40    1
    36    40    41    1
    37    41    42    2
    38    41    43    1
    39    34    44    1
    40    44    45    1
    41    45    46    2
    42    45    47    1
    43     5    48    1
    44    48    49    1
    45    49    50    1
    46     2    50    1
    47    50    51    1
    48    50    52    1
    49    52    54    1
    50    54    55    1
    51     2    55    1
    52    56    57    1
    53    56    58    1
    54    58    59    1
    55    59    60    1
    56    60    61    2
    57    60    62    1
    58    62    63    1
    59    62    64    1
    60    56    65    1
    61    15    19    1
    62    15    16    1
    63    22    24    1
    64    22    23    1
    65    28    30    1
    66    28    29    1
    67    36    39    1
    68    36    37    1
    69    52    56    1
    70    52    53    1
    71     1    66    1
    72     1    67    1
    73     1    68    1
    74     7    69    1
    75     7    70    1
    76    10    71    1
    77    10    72    1
    78    11    73    1
    79    11    74    1
    80    14    75    1
    81    14    76    1
    82    14    77    1
    83    17    78    1
    84    17    79    1
    85    18    80    1
    86    18    81    1
    87    27    82    1
    88    27    83    1
    89    27    84    1
    90    33    85    1
    91    33    86    1
    92    33    87    1
    93    39    88    1
    94    39    89    1
    95    43    90    1
    96    43    91    1
    97    43    92    1
    98    47    93    1
    99    47    94    1
   100    47    95    1
   101    48    96    1
   102    48    97    1
   103    49    98    1
   104    49    99    1
   105    51   100    1
   106    51   101    1
   107    51   102    1
   108    54   103    1
   109    54   104    1
   110    55   105    1
   111    55   106    1
   112    58   107    1
   113    58   108    1
   114    59   109    1
   115    59   110    1
   116    61   111    1
   117    61   112    1
   118    62   113    1
   119    63   114    1
   120    63   115    1
   121    63   116    1
   122    64   117    1
   123    64   118    1
   124    64   119    1
   125    65   120    1
   126    65   121    1
   127    65   122    1
