REMARK  Name = NuBBE_1809
REMARK  16 active torsions:
REMARK  status: ('A' for Active; 'I' for Inactive)
REMARK    1  A    between atoms: C_1  and  C_2
REMARK    2  A    between atoms: C_2  and  C_3
REMARK    3  A    between atoms: C_3  and  C_4
REMARK    4  A    between atoms: C_4  and  C_5
REMARK    5  A    between atoms: C_4  and  C_6
REMARK    6  A    between atoms: C_6  and  C_7
REMARK    7  A    between atoms: C_7  and  C_8
REMARK    8  A    between atoms: C_8  and  C_9
REMARK    9  A    between atoms: C_9  and  C_10
REMARK   10  A    between atoms: C_10  and  C_11
REMARK   11  A    between atoms: C_11  and  C_12
REMARK   12  A    between atoms: C_12  and  C_13
REMARK   13  A    between atoms: C_13  and  C_14
REMARK   14  A    between atoms: C_14  and  C_15
REMARK   15  A    between atoms: C_15  and  C_16
REMARK   16  A    between atoms: C_16  and  C_17
REMARK                            x       y       z     vdW  Elec       q    Type
REMARK                         _______ _______ _______ _____ _____    ______ ____
ROOT
ATOM      1  C   LIG A   1       1.918  -0.304   0.202  0.00  0.00    -0.000 C 
ENDROOT
BRANCH   1   2
ATOM      2  C   LIG A   1       1.012  -0.518   1.430  0.00  0.00    +0.000 C 
BRANCH   2   3
ATOM      3  C   LIG A   1       0.705   0.816   2.088  0.00  0.00    +0.000 C 
BRANCH   3   4
ATOM      4  C   LIG A   1      -0.341   0.805   3.186  0.00  0.00    +0.003 C 
BRANCH   4   5
ATOM      5  C   LIG A   1      -0.679   2.211   3.758  0.00  0.00    -0.014 C 
ATOM      6  C   LIG A   1      -1.621   1.978   4.959  0.00  0.00    +0.007 C 
BRANCH   5   7
ATOM      7  C   LIG A   1      -1.347   3.222   2.780  0.00  0.00    +0.003 C 
BRANCH   7   9
ATOM      8  C   LIG A   1      -1.162   4.717   0.691  0.00  0.00    +0.004 C 
ATOM      9  C   LIG A   1      -0.485   3.723   1.611  0.00  0.00    -0.003 C 
ENDBRANCH   7   9
ENDBRANCH   5   7
ENDBRANCH   4   5
ENDBRANCH   3   4
ENDBRANCH   2   3
ENDBRANCH   1   2
BRANCH   1  10
ATOM     10  C   LIG A   1       1.368   0.614  -0.923  0.00  0.00    -0.000 C 
BRANCH  10  11
ATOM     11  C   LIG A   1       0.018   0.212  -1.546  0.00  0.00    -0.000 C 
BRANCH  11  12
ATOM     12  C   LIG A   1       0.176  -1.044  -2.389  0.00  0.00    -0.000 C 
BRANCH  12  13
ATOM     13  C   LIG A   1      -1.126  -1.650  -2.908  0.00  0.00    -0.000 C 
BRANCH  13  14
ATOM     14  C   LIG A   1      -0.943  -2.944  -3.727  0.00  0.00    -0.000 C 
BRANCH  14  15
ATOM     15  C   LIG A   1      -0.455  -4.182  -2.949  0.00  0.00    -0.000 C 
BRANCH  15  16
ATOM     16  C   LIG A   1       0.962  -4.145  -2.367  0.00  0.00    -0.003 C 
ATOM     17  C   LIG A   1       2.031  -3.724  -3.363  0.00  0.00    +0.004 C 
ENDBRANCH  15  16
ENDBRANCH  14  15
ENDBRANCH  13  14
ENDBRANCH  12  13
ENDBRANCH  11  12
ENDBRANCH  10  11
ENDBRANCH   1  10
TORSDOF 13
