@<TRIPOS>MOLECULE
NuBBE_234
 75 77 0 0 0
SMALL
GASTEIGER

@<TRIPOS>ATOM
      1 C          -0.3512   -1.5363   -2.8042 C.3     1  LIG1       -0.0584
      2 C          -0.7727   -0.6182   -1.6382 C.3     1  LIG1        0.0018
      3 H          -1.8629   -0.5488   -1.7504 H       1  LIG1        0.0340
      4 C          -0.4636   -1.2443   -0.2321 C.3     1  LIG1       -0.0183
      5 C          -1.3401   -2.5343   -0.0658 C.3     1  LIG1       -0.0586
      6 C           1.0188   -1.7420   -0.1860 C.3     1  LIG1       -0.0281
      7 C           1.4625   -2.3586    1.1178 C.2     1  LIG1       -0.0806
      8 C           1.7219   -3.6613    1.3551 C.2     1  LIG1       -0.0549
      9 C           1.6321   -4.6839    0.3267 C.2     1  LIG1       -0.0662
     10 C           0.8342   -5.7576    0.3870 C.2     1  LIG1       -0.0985
     11 C           2.1496   -4.1325    2.7205 C.3     1  LIG1       -0.0400
     12 C          -0.2356    0.8305   -1.8117 C.3     1  LIG1        0.1328
     13 H           0.8514    0.8605   -1.9521 H       1  LIG1        0.0763
     14 O          -0.9108    1.3916   -2.9779 O.3     1  LIG1       -0.4584
     15 C          -0.3701    1.1925   -4.2118 C.2     1  LIG1        0.3074
     16 C          -1.4176    1.4931   -5.2649 C.3     1  LIG1        0.0447
     17 C          -1.3354    2.9456   -5.7022 C.3     1  LIG1       -0.0458
     18 C           0.0165    3.2368   -6.3363 C.3     1  LIG1       -0.0648
     19 O           0.7578    0.8112   -4.4408 O.2     1  LIG1       -0.2508
     20 C          -0.6532    1.7757   -0.6490 C.3     1  LIG1        0.1078
     21 H          -1.7352    1.9357   -0.7270 H       1  LIG1        0.0641
     22 O          -0.0912    3.0750   -0.8707 O.3     1  LIG1       -0.3870
     23 C          -0.2971    1.2568    0.7752 C.3     1  LIG1        0.0932
     24 C          -0.8667   -0.2010    0.9023 C.3     1  LIG1       -0.0102
     25 H          -0.5418   -0.6090    1.8696 H       1  LIG1        0.0322
     26 C          -2.4562   -0.1333    0.9656 C.3     1  LIG1        0.0143
     27 C          -0.9663    2.0039    1.9457 C.2     1  LIG1        0.0163
     28 C           0.0202    2.2629    3.0473 C.3     1  LIG1        0.2318
     29 H           0.2177    3.3239    3.2336 H       1  LIG1        0.1111
     30 O          -0.3775    1.5125    4.1966 O.3     1  LIG1       -0.4311
     31 C          -0.9706    2.1910    5.2026 C.2     1  LIG1        0.3063
     32 C          -1.3856    1.2270    6.2746 C.3     1  LIG1        0.0333
     33 O          -1.1571    3.3965    5.2371 O.2     1  LIG1       -0.2511
     34 O           1.2098    1.6312    2.5948 O.3     1  LIG1       -0.2971
     35 C           1.1663    1.6559    1.1645 C.3     1  LIG1        0.2206
     36 H           1.3789    2.6932    0.8667 H       1  LIG1        0.1068
     37 O           2.1983    0.8182    0.6904 O.3     1  LIG1       -0.4341
     38 C           3.4159    1.2683    1.1124 C.2     1  LIG1        0.3061
     39 C           4.0689    0.2502    1.9986 C.3     1  LIG1        0.0333
     40 O           3.8712    2.3807    0.8782 O.2     1  LIG1       -0.2511
     41 C          -2.2830    2.1102    2.1580 C.2     1  LIG1       -0.0133
     42 C          -3.1094    1.1613    1.4135 C.2     1  LIG1        0.1566
     43 O          -4.3071    1.3798    1.2634 O.2     1  LIG1       -0.2927
     44 H           0.7125   -1.4267   -3.0351 H       1  LIG1        0.0234
     45 H          -0.9307   -1.3125   -3.7046 H       1  LIG1        0.0234
     46 H          -0.5387   -2.5926   -2.5971 H       1  LIG1        0.0234
     47 H          -0.9756   -3.3629   -0.6805 H       1  LIG1        0.0235
     48 H          -2.3805   -2.3763   -0.3680 H       1  LIG1        0.0235
     49 H          -1.3433   -2.8824    0.9725 H       1  LIG1        0.0235
     50 H           1.7054   -0.9477   -0.4706 H       1  LIG1        0.0313
     51 H           1.1685   -2.4810   -0.9806 H       1  LIG1        0.0313
     52 H           1.5766   -1.6560    1.9413 H       1  LIG1        0.0575
     53 H           2.2540   -4.5441   -0.5559 H       1  LIG1        0.0614
     54 H           0.1678   -5.9430    1.2229 H       1  LIG1        0.0535
     55 H           0.8175   -6.4736   -0.4299 H       1  LIG1        0.0535
     56 H           2.2805   -3.2980    3.4185 H       1  LIG1        0.0277
     57 H           3.1083   -4.6599    2.6634 H       1  LIG1        0.0277
     58 H           1.4038   -4.8072    3.1527 H       1  LIG1        0.0277
     59 H          -2.4085    1.2540   -4.8615 H       1  LIG1        0.0377
     60 H          -1.2614    0.8112   -6.1081 H       1  LIG1        0.0377
     61 H          -1.4913    3.6098   -4.8439 H       1  LIG1        0.0268
     62 H          -2.1323    3.1569   -6.4254 H       1  LIG1        0.0268
     63 H           0.1860    2.5773   -7.1937 H       1  LIG1        0.0230
     64 H           0.8303    3.0774   -5.6220 H       1  LIG1        0.0230
     65 H           0.0759    4.2743   -6.6702 H       1  LIG1        0.0230
     66 H          -0.3022    3.3263   -1.7902 H       1  LIG1        0.2100
     67 H          -2.8126   -0.9194    1.6427 H       1  LIG1        0.0348
     68 H          -2.8986   -0.3145   -0.0166 H       1  LIG1        0.0348
     69 H          -1.6241    0.2541    5.8313 H       1  LIG1        0.0342
     70 H          -2.2928    1.5937    6.7612 H       1  LIG1        0.0342
     71 H          -0.5811    1.1114    7.0033 H       1  LIG1        0.0342
     72 H           4.2042   -0.6879    1.4585 H       1  LIG1        0.0342
     73 H           3.4495    0.0953    2.8875 H       1  LIG1        0.0342
     74 H           5.0455    0.6171    2.3263 H       1  LIG1        0.0342
     75 H          -2.7466    2.6161    2.9955 H       1  LIG1        0.0654
@<TRIPOS>BOND
     1     2     4    1
     2     4     5    1
     3     4     6    1
     4     6     7    1
     5     7     8    2
     6     8     9    1
     7     9    10    2
     8     8    11    1
     9     2    12    1
    10    12    13    1
    11    12    14    1
    12    14    15    1
    13    15    16    1
    14    16    17    1
    15    17    18    1
    16    15    19    2
    17    12    20    1
    18    20    21    1
    19    20    22    1
    20    20    23    1
    21    23    24    1
    22     4    24    1
    23    24    25    1
    24    24    26    1
    25    23    27    1
    26    27    28    1
    27    30    31    1
    28    31    32    1
    29    31    33    2
    30    28    34    1
    31    34    35    1
    32    23    35    1
    33    37    38    1
    34    38    39    1
    35    38    40    2
    36    27    41    2
    37    41    42    1
    38    26    42    1
    39    42    43    2
    40     2     3    1
    41     2     1    1
    42    28    30    1
    43    28    29    1
    44    35    37    1
    45    35    36    1
    46     1    44    1
    47     1    45    1
    48     1    46    1
    49     5    47    1
    50     5    48    1
    51     5    49    1
    52     6    50    1
    53     6    51    1
    54     7    52    1
    55     9    53    1
    56    10    54    1
    57    10    55    1
    58    11    56    1
    59    11    57    1
    60    11    58    1
    61    16    59    1
    62    16    60    1
    63    17    61    1
    64    17    62    1
    65    18    63    1
    66    18    64    1
    67    18    65    1
    68    22    66    1
    69    26    67    1
    70    26    68    1
    71    32    69    1
    72    32    70    1
    73    32    71    1
    74    39    72    1
    75    39    73    1
    76    39    74    1
    77    41    75    1
