@<TRIPOS>MOLECULE
NuBBE_1537
 39 41 0 0 0
SMALL
GASTEIGER

@<TRIPOS>ATOM
      1 C          -2.6121    0.3394    0.6301 C.3     1  LIG1       -0.0590
      2 C          -1.1542    0.1573    1.0736 C.3     1  LIG1       -0.0250
      3 C           0.1325   -0.0231    0.1110 C.3     1  LIG1       -0.0255
      4 H           1.0919   -0.1022    0.6518 H       1  LIG1        0.0315
      5 C          -0.4373   -1.4107   -0.1468 C.3     1  LIG1       -0.0132
      6 H          -1.2625   -1.4015   -0.8730 H       1  LIG1        0.0351
      7 C          -0.8339   -1.3402    1.4195 C.3     1  LIG1       -0.0283
      8 H           0.0082   -1.3639    2.1369 H       1  LIG1        0.0312
      9 C          -1.4692   -2.7194    1.4851 C.3     1  LIG1       -0.0455
     10 C          -0.3681   -3.6144    0.8492 C.3     1  LIG1       -0.0314
     11 C           0.2388   -2.7161   -0.2054 C.2     1  LIG1       -0.0729
     12 C           1.2070   -2.9948   -1.0795 C.2     1  LIG1       -0.0992
     13 C           0.0774    1.3061   -0.6175 C.3     1  LIG1       -0.0348
     14 H          -0.8224    1.3338   -1.2477 H       1  LIG1        0.0306
     15 C          -0.1238    2.2905    0.5641 C.3     1  LIG1       -0.0492
     16 C          -0.6442    1.4327    1.7470 C.3     1  LIG1       -0.0468
     17 C           1.2837    1.5588   -1.5404 C.3     1  LIG1       -0.0436
     18 C           1.1010    2.8754   -2.3031 C.3     1  LIG1       -0.0624
     19 C           2.6506    1.5586   -0.8494 C.3     1  LIG1       -0.0624
     20 H          -2.9684   -0.4603   -0.0249 H       1  LIG1        0.0235
     21 H          -2.7631    1.2844    0.0984 H       1  LIG1        0.0235
     22 H          -3.2680    0.3492    1.5080 H       1  LIG1        0.0235
     23 H          -2.3990   -2.7714    0.9059 H       1  LIG1        0.0271
     24 H          -1.6872   -3.0278    2.5119 H       1  LIG1        0.0271
     25 H          -0.8004   -4.5265    0.4288 H       1  LIG1        0.0310
     26 H           0.3880   -3.8753    1.5979 H       1  LIG1        0.0310
     27 H           1.6790   -3.9721   -1.0973 H       1  LIG1        0.0534
     28 H           1.5538   -2.2576   -1.7971 H       1  LIG1        0.0534
     29 H          -0.8579    3.0553    0.2860 H       1  LIG1        0.0268
     30 H           0.7888    2.8132    0.8629 H       1  LIG1        0.0268
     31 H          -1.4168    1.9594    2.3165 H       1  LIG1        0.0271
     32 H           0.1781    1.2112    2.4387 H       1  LIG1        0.0271
     33 H           1.3031    0.7487   -2.2820 H       1  LIG1        0.0298
     34 H           1.1106    3.7362   -1.6264 H       1  LIG1        0.0232
     35 H           0.1517    2.8821   -2.8492 H       1  LIG1        0.0232
     36 H           1.9039    3.0145   -3.0350 H       1  LIG1        0.0232
     37 H           2.7265    2.3341   -0.0821 H       1  LIG1        0.0232
     38 H           3.4460    1.7440   -1.5804 H       1  LIG1        0.0232
     39 H           2.8680    0.5921   -0.3862 H       1  LIG1        0.0232
@<TRIPOS>BOND
     1     1     2    1
     2     2     3    1
     3     3     4    1
     4     3     5    1
     5     5     6    1
     6     5     7    1
     7     7     8    1
     8     2     7    1
     9     7     9    1
    10     9    10    1
    11    10    11    1
    12     5    11    1
    13    11    12    2
    14     3    13    1
    15    13    14    1
    16    13    15    1
    17    15    16    1
    18     2    16    1
    19    13    17    1
    20    17    18    1
    21    17    19    1
    22     1    20    1
    23     1    21    1
    24     1    22    1
    25     9    23    1
    26     9    24    1
    27    10    25    1
    28    10    26    1
    29    12    27    1
    30    12    28    1
    31    15    29    1
    32    15    30    1
    33    16    31    1
    34    16    32    1
    35    17    33    1
    36    18    34    1
    37    18    35    1
    38    18    36    1
    39    19    37    1
    40    19    38    1
    41    19    39    1
