@<TRIPOS>MOLECULE
NuBBE_2495
 46 48 0 0 0
SMALL
GASTEIGER

@<TRIPOS>ATOM
      1 C           0.3214   -0.0131   -4.6200 C.3     1  LIG1       -0.0612
      2 C          -0.5760   -0.7631   -3.6430 C.3     1  LIG1       -0.0296
      3 C          -0.9802    0.0823   -2.4461 C.ar    1  LIG1       -0.0340
      4 C          -2.1432    0.8873   -2.5299 C.ar    1  LIG1       -0.0466
      5 C          -3.0146    0.9318   -3.7597 C.3     1  LIG1       -0.0394
      6 C          -2.5334    1.6528   -1.4258 C.ar    1  LIG1       -0.0583
      7 C          -1.8020    1.6366   -0.2406 C.ar    1  LIG1       -0.0568
      8 C          -0.6498    0.8476   -0.1094 C.ar    1  LIG1       -0.0267
      9 C          -0.2312    0.0830   -1.2335 C.ar    1  LIG1        0.0248
     10 C           1.0357   -0.7107   -1.0956 C.2     1  LIG1        0.1640
     11 O           1.7483   -0.9660   -2.0626 O.2     1  LIG1       -0.2920
     12 C           1.4700   -1.1684    0.2806 C.3     1  LIG1        0.0153
     13 C           0.5390   -0.6997    1.4005 C.3     1  LIG1       -0.0090
     14 C           1.0025   -1.1210    2.8343 C.3     1  LIG1        0.0317
     15 C           1.0936   -2.6614    2.9261 C.3     1  LIG1       -0.0525
     16 C           2.3523   -0.5430    3.2858 C.3     1  LIG1       -0.0525
     17 C          -0.0529   -0.6467    3.8394 C.2     1  LIG1        0.1617
     18 O          -0.3035   -1.2373    4.8878 O.2     1  LIG1       -0.2921
     19 C          -0.7249    0.6485    3.5891 C.2     1  LIG1       -0.0218
     20 C          -0.5906    1.3003    2.4273 C.2     1  LIG1       -0.0702
     21 C           0.1718    0.8092    1.2039 C.3     1  LIG1        0.0161
     22 C           1.3663    1.7717    1.0118 C.3     1  LIG1       -0.0517
     23 H           0.6109   -0.6721   -5.4447 H       1  LIG1        0.0233
     24 H           1.2348    0.3530   -4.1424 H       1  LIG1        0.0233
     25 H          -0.1886    0.8547   -5.0493 H       1  LIG1        0.0233
     26 H          -0.1015   -1.6947   -3.3176 H       1  LIG1        0.0311
     27 H          -1.4694   -1.1103   -4.1750 H       1  LIG1        0.0311
     28 H          -3.5133   -0.0315   -3.9045 H       1  LIG1        0.0278
     29 H          -2.4282    1.1821   -4.6476 H       1  LIG1        0.0278
     30 H          -3.7949    1.6958   -3.6716 H       1  LIG1        0.0278
     31 H          -3.4273    2.2730   -1.4773 H       1  LIG1        0.0620
     32 H          -2.1700    2.2581    0.5699 H       1  LIG1        0.0621
     33 H           2.4891   -0.8007    0.4368 H       1  LIG1        0.0348
     34 H           1.5045   -2.2626    0.2465 H       1  LIG1        0.0348
     35 H          -0.4043   -1.2566    1.2495 H       1  LIG1        0.0326
     36 H           1.9011   -3.0579    2.3023 H       1  LIG1        0.0239
     37 H           0.1546   -3.1331    2.6149 H       1  LIG1        0.0239
     38 H           1.2936   -2.9937    3.9518 H       1  LIG1        0.0239
     39 H           3.1454   -0.7249    2.5555 H       1  LIG1        0.0239
     40 H           2.6725   -1.0022    4.2298 H       1  LIG1        0.0239
     41 H           2.3007    0.5295    3.4877 H       1  LIG1        0.0239
     42 H          -1.2929    1.0563    4.4182 H       1  LIG1        0.0650
     43 H          -1.0411    2.2898    2.3743 H       1  LIG1        0.0582
     44 H           1.0142    2.7898    0.7967 H       1  LIG1        0.0241
     45 H           2.0147    1.4924    0.1755 H       1  LIG1        0.0241
     46 H           1.9964    1.8452    1.9003 H       1  LIG1        0.0241
@<TRIPOS>BOND
     1     1     2    1
     2     2     3    1
     3     3     4   ar
     4     4     5    1
     5     4     6   ar
     6     6     7   ar
     7     7     8   ar
     8     8     9   ar
     9     3     9   ar
    10     9    10    1
    11    10    11    2
    12    10    12    1
    13    12    13    1
    14    13    14    1
    15    14    15    1
    16    14    16    1
    17    14    17    1
    18    17    18    2
    19    17    19    1
    20    19    20    2
    21    20    21    1
    22     8    21    1
    23    13    21    1
    24    21    22    1
    25     1    23    1
    26     1    24    1
    27     1    25    1
    28     2    26    1
    29     2    27    1
    30     5    28    1
    31     5    29    1
    32     5    30    1
    33     6    31    1
    34     7    32    1
    35    12    33    1
    36    12    34    1
    37    13    35    1
    38    15    36    1
    39    15    37    1
    40    15    38    1
    41    16    39    1
    42    16    40    1
    43    16    41    1
    44    19    42    1
    45    20    43    1
    46    22    44    1
    47    22    45    1
    48    22    46    1
