REMARK  Name = NuBBE_1147
REMARK  18 active torsions:
REMARK  status: ('A' for Active; 'I' for Inactive)
REMARK    1  A    between atoms: C_1  and  C_2
REMARK    2  A    between atoms: C_6  and  C_28
REMARK    3  A    between atoms: C_7  and  C_8
REMARK    4  A    between atoms: C_9  and  C_11
REMARK    5  A    between atoms: C_11  and  C_13
REMARK    6  A    between atoms: C_11  and  C_14
REMARK    7  A    between atoms: C_14  and  O_15
REMARK    8  A    between atoms: C_14  and  C_16
REMARK    9  A    between atoms: C_16  and  O_17
REMARK   10  A    between atoms: C_16  and  C_18
REMARK   11  A    between atoms: C_18  and  O_19
REMARK   12  A    between atoms: C_18  and  C_20
REMARK   13  A    between atoms: C_20  and  O_21
REMARK   14  A    between atoms: C_20  and  C_22
REMARK   15  A    between atoms: C_20  and  C_23
REMARK   16  A    between atoms: C_33  and  C_34
REMARK   17  A    between atoms: C_33  and  C_40
REMARK   18  A    between atoms: C_35  and  O_39
REMARK                            x       y       z     vdW  Elec       q    Type
REMARK                         _______ _______ _______ _____ _____    ______ ____
ROOT
ATOM      1  C   LIG A   1      -4.127  -2.135   2.125  0.00  0.00    +0.012 C 
ATOM      2  C   LIG A   1      -2.714  -1.974   2.794  0.00  0.00    -0.022 C 
ATOM      3  C   LIG A   1      -1.819  -1.240   1.703  0.00  0.00    +0.021 C 
ATOM      4  C   LIG A   1      -1.050  -2.164   0.764  0.00  0.00    -0.063 C 
ATOM      5  C   LIG A   1      -0.314  -1.492  -0.432  0.00  0.00    -0.005 C 
ATOM      6  C   LIG A   1       0.123   0.012  -0.169  0.00  0.00    -0.020 C 
ATOM      7  C   LIG A   1      -0.884   1.067  -0.653  0.00  0.00    +0.012 C 
ATOM      8  C   LIG A   1       1.556   0.189  -0.803  0.00  0.00    +0.001 C 
ATOM      9  C   LIG A   1       2.162  -1.216  -0.679  0.00  0.00    +0.005 C 
ATOM     10  C   LIG A   1       1.021  -2.220  -0.774  0.00  0.00    +0.012 C 
ATOM     11  C   LIG A   1       0.293   0.194   1.373  0.00  0.00    +0.008 C 
ATOM     12  C   LIG A   1      -0.993  -0.023   2.166  0.00  0.00    +0.009 C 
ATOM     13  C   LIG A   1      -1.299  -1.648  -1.617  0.00  0.00    +0.016 C 
ATOM     14  C   LIG A   1      -1.142  -3.504   0.868  0.00  0.00    -0.026 C 
ATOM     15  C   LIG A   1      -1.936  -4.239   1.899  0.00  0.00    +0.031 C 
ATOM     16  C   LIG A   1      -2.201  -3.413   3.168  0.00  0.00    +0.007 C 
ATOM     17  C   LIG A   1      -1.065  -3.510   4.274  0.00  0.00    -0.005 C 
ATOM     18  C   LIG A   1       0.270  -4.128   3.782  0.00  0.00    +0.014 C 
ATOM     19  C   LIG A   1      -0.719  -2.128   4.871  0.00  0.00    +0.120 C 
ATOM     20  C   LIG A   1      -1.931  -1.266   5.191  0.00  0.00    +0.032 C 
ATOM     21  C   LIG A   1      -2.977  -1.161   4.085  0.00  0.00    +0.010 C 
ATOM     22  C   LIG A   1      -1.581  -4.457   5.392  0.00  0.00    +0.014 C 
ENDROOT
BRANCH   8  23
ATOM     23  C   LIG A   1       1.826   0.822  -2.226  0.00  0.00    +0.021 C 
ATOM     24  C   LIG A   1       1.168   0.077  -3.384  0.00  0.00    +0.010 C 
BRANCH  23  25
ATOM     25  C   LIG A   1       1.630   2.379  -2.292  0.00  0.00    +0.149 C 
BRANCH  25  26
ATOM     26  O   LIG A   1       2.311   2.934  -1.158  0.00  0.00    -0.389 OA
ATOM     27  H   LIG A   1       2.354   3.906  -1.287  0.00  0.00    +0.210 HD
ENDBRANCH  25  26
BRANCH  25  28
ATOM     28  C   LIG A   1       2.123   3.063  -3.620  0.00  0.00    +0.174 C 
BRANCH  28  29
ATOM     29  O   LIG A   1       1.412   2.532  -4.734  0.00  0.00    -0.387 OA
ATOM     30  H   LIG A   1       2.083   2.249  -5.381  0.00  0.00    +0.210 HD
ENDBRANCH  28  29
BRANCH  28  31
ATOM     31  C   LIG A   1       1.925   4.610  -3.584  0.00  0.00    +0.176 C 
BRANCH  31  32
ATOM     32  C   LIG A   1       2.351   5.402  -4.864  0.00  0.00    +0.089 C 
ATOM     33  C   LIG A   1       1.593   5.021  -6.138  0.00  0.00    +0.044 C 
ATOM     34  C   LIG A   1       2.176   6.915  -4.632  0.00  0.00    +0.044 C 
BRANCH  32  35
ATOM     35  O   LIG A   1       3.754   5.165  -5.073  0.00  0.00    -0.387 OA
ATOM     36  H   LIG A   1       4.018   5.657  -5.872  0.00  0.00    +0.210 HD
ENDBRANCH  32  35
ENDBRANCH  31  32
BRANCH  31  37
ATOM     37  O   LIG A   1       2.688   5.130  -2.473  0.00  0.00    -0.386 OA
ATOM     38  H   LIG A   1       3.607   5.194  -2.810  0.00  0.00    +0.210 HD
ENDBRANCH  31  37
ENDBRANCH  28  31
ENDBRANCH  25  28
ENDBRANCH  23  25
ENDBRANCH   8  23
BRANCH  19  39
ATOM     39  O   LIG A   1       0.056  -2.265   6.066  0.00  0.00    -0.391 OA
ATOM     40  H   LIG A   1       0.349  -1.374   6.325  0.00  0.00    +0.210 HD
ENDBRANCH  19  39
TORSDOF 10
