REMARK  Name = NuBBE_1920
REMARK  3 active torsions:
REMARK  status: ('A' for Active; 'I' for Inactive)
REMARK    1  A    between atoms: C_1  and  C_2
REMARK    2  A    between atoms: C_2  and  C_3
REMARK    3  A    between atoms: C_9  and  C_10
REMARK                            x       y       z     vdW  Elec       q    Type
REMARK                         _______ _______ _______ _____ _____    ______ ____
ROOT
ATOM      1  C   LIG A   1      -2.483  -0.344  -0.067  0.00  0.00    +0.012 C 
ATOM      2  C   LIG A   1      -0.948  -0.369  -0.223  0.00  0.00    -0.025 C 
ATOM      3  C   LIG A   1      -0.654  -0.480  -1.724  0.00  0.00    +0.012 C 
ATOM      4  C   LIG A   1      -0.193   0.732   0.662  0.00  0.00    +0.002 C 
ATOM      5  C   LIG A   1      -0.343  -0.295   1.844  0.00  0.00    +0.012 C 
ATOM      6  C   LIG A   1      -0.164  -1.381   0.727  0.00  0.00    +0.018 C 
ATOM      7  C   LIG A   1       1.294  -1.527   0.383  0.00  0.00    -0.027 C 
ATOM      8  C   LIG A   1       1.991  -0.387   0.231  0.00  0.00    -0.027 C 
ATOM      9  C   LIG A   1       1.318   0.965   0.404  0.00  0.00    +0.012 C 
ATOM     10  C   LIG A   1       1.538   1.899  -0.782  0.00  0.00    +0.012 C 
ENDROOT
TORSDOF 0
