REMARK  Name = NuBBE_321
REMARK  12 active torsions:
REMARK  status: ('A' for Active; 'I' for Inactive)
REMARK    1  A    between atoms: O_1  and  C_2
REMARK    2  A    between atoms: C_5  and  O_6
REMARK    3  A    between atoms: O_6  and  C_7
REMARK    4  A    between atoms: C_9  and  O_11
REMARK    5  A    between atoms: C_12  and  O_14
REMARK    6  A    between atoms: C_15  and  O_17
REMARK    7  A    between atoms: C_18  and  C_20
REMARK    8  A    between atoms: C_22  and  C_23
REMARK    9  A    between atoms: C_25  and  O_26
REMARK   10  A    between atoms: C_27  and  O_28
REMARK   11  A    between atoms: C_34  and  O_35
REMARK   12  A    between atoms: O_35  and  C_36
REMARK                            x       y       z     vdW  Elec       q    Type
REMARK                         _______ _______ _______ _____ _____    ______ ____
ROOT
ATOM      1  C   LIG A   1       0.341  -3.724  -2.339  0.00  0.00    +0.135 A 
ATOM      2  C   LIG A   1       0.135  -2.801  -1.308  0.00  0.00    +0.109 A 
ATOM      3  C   LIG A   1      -0.277  -1.409  -1.536  0.00  0.00    +0.238 A 
ATOM      4  C   LIG A   1      -0.126  -0.458  -0.397  0.00  0.00    +0.214 A 
ATOM      5  C   LIG A   1       0.113  -0.996   0.818  0.00  0.00    +0.181 A 
ATOM      6  O   LIG A   1       0.190  -2.350   1.078  0.00  0.00    -0.451 OA
ATOM      7  C   LIG A   1       0.243  -3.213   0.013  0.00  0.00    +0.146 A 
ATOM      8  C   LIG A   1       0.424  -4.559   0.315  0.00  0.00    +0.092 A 
ATOM      9  C   LIG A   1       0.535  -5.500  -0.709  0.00  0.00    +0.127 A 
ATOM     10  C   LIG A   1       0.547  -5.074  -2.041  0.00  0.00    +0.092 A 
ATOM     11  O   LIG A   1      -0.795  -1.048  -2.597  0.00  0.00    -0.283 OA
ENDROOT
BRANCH   5  12
ATOM     12  C   LIG A   1       0.340  -0.172   2.020  0.00  0.00    +0.025 A 
ATOM     13  C   LIG A   1      -0.711   0.176   2.883  0.00  0.00    +0.060 A 
ATOM     14  C   LIG A   1      -0.444   0.955   4.008  0.00  0.00    +0.159 A 
ATOM     15  C   LIG A   1       0.854   1.381   4.285  0.00  0.00    +0.158 A 
ATOM     16  C   LIG A   1       1.904   1.036   3.450  0.00  0.00    +0.050 A 
ATOM     17  C   LIG A   1       1.647   0.256   2.319  0.00  0.00    +0.015 A 
BRANCH  14  18
ATOM     18  O   LIG A   1      -1.427   1.336   4.881  0.00  0.00    -0.503 OA
ATOM     19  H   LIG A   1      -2.267   0.943   4.590  0.00  0.00    +0.292 HD
ENDBRANCH  14  18
BRANCH  15  20
ATOM     20  O   LIG A   1       1.106   2.147   5.387  0.00  0.00    -0.503 OA
ATOM     21  H   LIG A   1       0.237   2.255   5.822  0.00  0.00    +0.292 HD
ENDBRANCH  15  20
ENDBRANCH   5  12
BRANCH   1  22
ATOM     22  O   LIG A   1       0.377  -3.302  -3.637  0.00  0.00    -0.506 OA
ATOM     23  H   LIG A   1       0.353  -4.056  -4.247  0.00  0.00    +0.292 HD
ENDBRANCH   1  22
BRANCH   9  24
ATOM     24  O   LIG A   1       0.683  -6.845  -0.492  0.00  0.00    -0.495 OA
ATOM     25  C   LIG A   1       0.049  -7.326   0.695  0.00  0.00    +0.277 C 
ENDBRANCH   9  24
BRANCH   4  26
ATOM     26  O   LIG A   1      -0.324   0.901  -0.557  0.00  0.00    -0.453 OA
BRANCH  26  27
ATOM     27  C   LIG A   1       0.084   1.489  -1.804  0.00  0.00    +0.340 C 
ATOM     28  C   LIG A   1      -1.131   2.102  -2.535  0.00  0.00    +0.214 C 
ATOM     29  C   LIG A   1      -1.743   3.179  -1.640  0.00  0.00    +0.180 C 
ATOM     30  C   LIG A   1      -0.693   4.238  -1.289  0.00  0.00    +0.174 C 
ATOM     31  C   LIG A   1       0.602   3.596  -0.754  0.00  0.00    +0.150 C 
ATOM     32  C   LIG A   1       1.734   4.618  -0.746  0.00  0.00    +0.040 C 
ATOM     33  O   LIG A   1       1.069   2.503  -1.543  0.00  0.00    -0.334 OA
BRANCH  28  34
ATOM     34  O   LIG A   1      -0.736   2.690  -3.789  0.00  0.00    -0.383 OA
ATOM     35  H   LIG A   1      -1.538   3.125  -4.138  0.00  0.00    +0.210 HD
ENDBRANCH  28  34
BRANCH  29  36
ATOM     36  O   LIG A   1      -2.853   3.804  -2.306  0.00  0.00    -0.386 OA
ATOM     37  H   LIG A   1      -3.058   4.604  -1.781  0.00  0.00    +0.210 HD
ENDBRANCH  29  36
BRANCH  30  38
ATOM     38  O   LIG A   1      -1.270   5.143  -0.331  0.00  0.00    -0.387 OA
ATOM     39  H   LIG A   1      -1.322   4.681   0.525  0.00  0.00    +0.210 HD
ENDBRANCH  30  38
ENDBRANCH  26  27
ENDBRANCH   4  26
TORSDOF 10
