REMARK  Name = NuBBE_2512
REMARK  6 active torsions:
REMARK  status: ('A' for Active; 'I' for Inactive)
REMARK    1  A    between atoms: C_2  and  C_3
REMARK    2  A    between atoms: C_2  and  C_15
REMARK    3  A    between atoms: C_7  and  O_8
REMARK    4  A    between atoms: C_9  and  O_10
REMARK    5  A    between atoms: C_18  and  O_19
REMARK    6  A    between atoms: C_21  and  O_22
REMARK                            x       y       z     vdW  Elec       q    Type
REMARK                         _______ _______ _______ _____ _____    ______ ____
ROOT
ATOM      1  C   LIG A   1      -0.109  -0.265   0.425  0.00  0.00    +0.065 C 
ATOM      2  C   LIG A   1       0.751  -0.147   1.686  0.00  0.00    +0.016 C 
ATOM      3  C   LIG A   1       1.716   1.031   1.557  0.00  0.00    +0.040 C 
ATOM      4  C   LIG A   1       1.050   2.313   1.118  0.00  0.00    +0.001 A 
ATOM      5  C   LIG A   1       1.677   3.558   1.276  0.00  0.00    +0.162 A 
ATOM      6  C   LIG A   1       1.040   4.736   0.881  0.00  0.00    +0.159 A 
ATOM      7  C   LIG A   1      -0.216   4.712   0.303  0.00  0.00    +0.049 A 
ATOM      8  C   LIG A   1      -0.843   3.484   0.107  0.00  0.00    +0.008 A 
ATOM      9  C   LIG A   1      -0.217   2.282   0.494  0.00  0.00    -0.040 A 
ATOM     10  C   LIG A   1      -0.975   0.990   0.280  0.00  0.00    +0.047 C 
ENDROOT
BRANCH   1  12
ATOM     11  O   LIG A   1      -1.746  -1.653   1.507  0.00  0.00    -0.292 OA
ATOM     12  C   LIG A   1      -1.012  -1.486   0.528  0.00  0.00    +0.170 C 
BRANCH  12  13
ATOM     13  C   LIG A   1      -0.985  -2.549  -0.517  0.00  0.00    +0.059 A 
ATOM     14  C   LIG A   1      -1.253  -3.861  -0.085  0.00  0.00    +0.018 A 
ATOM     15  C   LIG A   1      -1.253  -4.928  -0.985  0.00  0.00    +0.046 A 
ATOM     16  C   LIG A   1      -0.991  -4.682  -2.326  0.00  0.00    +0.120 A 
ATOM     17  C   LIG A   1      -0.740  -3.391  -2.781  0.00  0.00    +0.091 A 
ATOM     18  C   LIG A   1      -0.743  -2.323  -1.878  0.00  0.00    +0.131 A 
BRANCH  16  19
ATOM     19  O   LIG A   1      -0.977  -5.690  -3.244  0.00  0.00    -0.507 OA
ATOM     20  H   LIG A   1      -1.169  -6.529  -2.792  0.00  0.00    +0.292 HD
ENDBRANCH  16  19
BRANCH  18  21
ATOM     21  O   LIG A   1      -0.540  -1.060  -2.356  0.00  0.00    -0.506 OA
ATOM     22  H   LIG A   1      -0.354  -1.104  -3.311  0.00  0.00    +0.292 HD
ENDBRANCH  18  21
ENDBRANCH  12  13
ENDBRANCH   1  12
BRANCH   5  23
ATOM     23  O   LIG A   1       2.930   3.713   1.814  0.00  0.00    -0.503 OA
ATOM     24  H   LIG A   1       3.332   2.837   1.927  0.00  0.00    +0.292 HD
ENDBRANCH   5  23
BRANCH   6  25
ATOM     25  O   LIG A   1       1.663   5.939   1.064  0.00  0.00    -0.503 OA
ATOM     26  H   LIG A   1       2.508   5.706   1.496  0.00  0.00    +0.292 HD
ENDBRANCH   6  25
TORSDOF 6
