REMARK  Name = NuBBE_1875
REMARK  15 active torsions:
REMARK  status: ('A' for Active; 'I' for Inactive)
REMARK    1  A    between atoms: C_4  and  O_30
REMARK    2  A    between atoms: C_5  and  O_6
REMARK    3  A    between atoms: O_6  and  C_7
REMARK    4  A    between atoms: C_8  and  O_28
REMARK    5  A    between atoms: C_12  and  C_13
REMARK    6  A    between atoms: C_16  and  O_23
REMARK    7  A    between atoms: C_17  and  O_18
REMARK    8  A    between atoms: O_18  and  C_19
REMARK    9  A    between atoms: C_20  and  O_21
REMARK   10  A    between atoms: O_21  and  C_22
REMARK   11  A    between atoms: O_23  and  C_24
REMARK   12  A    between atoms: C_25  and  O_26
REMARK   13  A    between atoms: O_26  and  C_27
REMARK   14  A    between atoms: O_28  and  C_29
REMARK   15  A    between atoms: O_30  and  C_31
REMARK                            x       y       z     vdW  Elec       q    Type
REMARK                         _______ _______ _______ _____ _____    ______ ____
ROOT
ATOM      1  O   LIG A   1       1.070   0.309  -3.913  0.00  0.00    -0.283 OA
ATOM      2  C   LIG A   1       0.787  -0.002  -2.853  0.00  0.00    +0.238 A 
ATOM      3  C   LIG A   1       1.334  -1.149  -2.064  0.00  0.00    +0.113 A 
ATOM      4  C   LIG A   1       1.080  -2.486  -2.358  0.00  0.00    +0.180 A 
ATOM      5  C   LIG A   1       1.745  -3.462  -1.568  0.00  0.00    +0.204 A 
ATOM      6  C   LIG A   1       2.581  -3.035  -0.505  0.00  0.00    +0.169 A 
ATOM      7  C   LIG A   1       2.642  -1.691  -0.136  0.00  0.00    +0.096 A 
ATOM      8  C   LIG A   1       1.998  -0.762  -0.907  0.00  0.00    +0.147 A 
ATOM      9  O   LIG A   1       1.929   0.537  -0.458  0.00  0.00    -0.451 OA
ATOM     10  C   LIG A   1       0.651   1.118  -0.672  0.00  0.00    +0.184 A 
ATOM     11  C   LIG A   1      -0.120   0.745  -1.896  0.00  0.00    +0.211 A 
ENDROOT
BRANCH  10  12
ATOM     12  C   LIG A   1       0.390   2.120   0.714  0.00  0.00    +0.067 A 
ATOM     13  C   LIG A   1       1.433   2.885   1.234  0.00  0.00    +0.019 A 
ATOM     14  C   LIG A   1       1.160   3.808   2.283  0.00  0.00    +0.050 A 
ATOM     15  C   LIG A   1      -0.133   4.026   2.841  0.00  0.00    +0.165 A 
ATOM     16  C   LIG A   1      -1.252   3.432   2.296  0.00  0.00    +0.204 A 
ATOM     17  C   LIG A   1      -0.944   2.583   1.228  0.00  0.00    +0.176 A 
BRANCH  16  18
ATOM     18  O   LIG A   1      -2.486   4.000   2.559  0.00  0.00    -0.488 OA
ATOM     19  C   LIG A   1      -3.750   3.332   2.745  0.00  0.00    +0.277 C 
ENDBRANCH  16  18
BRANCH  17  20
ATOM     20  O   LIG A   1      -2.029   2.645   0.388  0.00  0.00    -0.491 OA
ATOM     21  C   LIG A   1      -1.365   2.517  -0.792  0.00  0.00    +0.277 C 
ENDBRANCH  17  20
BRANCH  15  22
ATOM     22  O   LIG A   1      -0.192   4.938   3.860  0.00  0.00    -0.491 OA
ATOM     23  C   LIG A   1      -1.034   4.559   4.949  0.00  0.00    +0.277 C 
ENDBRANCH  15  22
ENDBRANCH  10  12
BRANCH   5  24
ATOM     24  O   LIG A   1       1.764  -4.745  -2.047  0.00  0.00    -0.488 OA
ATOM     25  C   LIG A   1       1.116  -5.762  -1.277  0.00  0.00    +0.277 C 
ENDBRANCH   5  24
BRANCH  11  26
ATOM     26  O   LIG A   1      -1.592   0.919  -2.456  0.00  0.00    -0.488 OA
ATOM     27  C   LIG A   1      -3.077   1.269  -1.728  0.00  0.00    +0.277 C 
ENDBRANCH  11  26
BRANCH   6  28
ATOM     28  O   LIG A   1       3.474  -3.730   0.258  0.00  0.00    -0.491 OA
ATOM     29  C   LIG A   1       3.653  -5.103   0.045  0.00  0.00    +0.277 C 
ENDBRANCH   6  28
BRANCH   4  30
ATOM     30  O   LIG A   1       0.224  -2.735  -3.403  0.00  0.00    -0.490 OA
ATOM     31  C   LIG A   1      -0.531  -3.942  -3.381  0.00  0.00    +0.277 C 
ENDBRANCH   4  30
TORSDOF 8
