@<TRIPOS>MOLECULE
NuBBE_154
 56 57 0 0 0
SMALL
GASTEIGER

@<TRIPOS>ATOM
      1 O          -3.4744    1.4272    4.5025 O.2     1  LIG1       -0.2450
      2 C          -2.8924    0.4340    4.1033 C.2     1  LIG1        0.3390
      3 O          -2.6534   -0.7062    4.7973 O.3     1  LIG1       -0.4645
      4 C          -3.1549   -0.7568    6.1366 C.3     1  LIG1        0.0820
      5 C          -2.2655    0.3190    2.7634 C.ar    1  LIG1        0.0600
      6 C          -1.8328    1.4748    2.1049 C.ar    1  LIG1       -0.0408
      7 C          -1.1922    1.3910    0.8537 C.ar    1  LIG1       -0.0006
      8 C          -0.6974    2.6603    0.1838 C.3     1  LIG1       -0.0057
      9 C          -1.7239    3.3013   -0.7125 C.2     1  LIG1       -0.0809
     10 C          -1.4852    4.0323   -1.8231 C.2     1  LIG1       -0.0793
     11 C          -0.1180    4.3779   -2.3454 C.3     1  LIG1       -0.0440
     12 C          -2.6193    4.5915   -2.6416 C.3     1  LIG1       -0.0440
     13 C          -1.0229    0.1252    0.2595 C.ar    1  LIG1        0.1323
     14 O          -0.3960    0.0853   -0.9547 O.3     1  LIG1       -0.4811
     15 C          -0.1198   -1.1875   -1.5758 C.3     1  LIG1        0.1266
     16 C           1.4133   -1.3024   -1.7402 C.3     1  LIG1       -0.0060
     17 C           2.1748   -1.2378   -0.4073 C.3     1  LIG1       -0.0306
     18 C           3.6574   -1.3827   -0.6150 C.2     1  LIG1       -0.0851
     19 C           4.3620   -2.5308   -0.6247 C.2     1  LIG1       -0.0796
     20 C           3.7686   -3.9020   -0.4506 C.3     1  LIG1       -0.0440
     21 C           5.8515   -2.5184   -0.8425 C.3     1  LIG1       -0.0440
     22 C          -0.7889   -1.1304   -2.9568 C.3     1  LIG1       -0.0212
     23 C          -0.6543   -2.4048   -0.8564 C.2     1  LIG1       -0.0406
     24 C          -1.2930   -2.3394    0.3122 C.2     1  LIG1       -0.0513
     25 C          -1.4745   -1.0289    0.9130 C.ar    1  LIG1        0.0176
     26 C          -2.0950   -0.9296    2.1600 C.ar    1  LIG1       -0.0371
     27 H          -3.4547   -1.7874    6.3363 H       1  LIG1        0.0661
     28 H          -4.0247   -0.1103    6.2853 H       1  LIG1        0.0661
     29 H          -2.3537   -0.4839    6.8261 H       1  LIG1        0.0661
     30 H          -1.9744    2.4461    2.5791 H       1  LIG1        0.0630
     31 H           0.2300    2.4379   -0.3556 H       1  LIG1        0.0357
     32 H          -0.4217    3.3815    0.9642 H       1  LIG1        0.0357
     33 H          -2.7606    3.1391   -0.4194 H       1  LIG1        0.0575
     34 H           0.6862    4.1282   -1.6490 H       1  LIG1        0.0274
     35 H          -0.0474    5.4558   -2.5328 H       1  LIG1        0.0274
     36 H           0.0698    3.8531   -3.2872 H       1  LIG1        0.0274
     37 H          -3.5993    4.3465   -2.2192 H       1  LIG1        0.0274
     38 H          -2.5839    4.1896   -3.6595 H       1  LIG1        0.0274
     39 H          -2.5465    5.6830   -2.6972 H       1  LIG1        0.0274
     40 H           1.6609   -2.2387   -2.2599 H       1  LIG1        0.0310
     41 H           1.7722   -0.4837   -2.3790 H       1  LIG1        0.0310
     42 H           1.8142   -1.9973    0.2936 H       1  LIG1        0.0309
     43 H           1.9971   -0.2741    0.0848 H       1  LIG1        0.0309
     44 H           4.1844   -0.4406   -0.7650 H       1  LIG1        0.0571
     45 H           2.6934   -3.8894   -0.2565 H       1  LIG1        0.0274
     46 H           4.2461   -4.4167    0.3895 H       1  LIG1        0.0274
     47 H           3.9278   -4.4954   -1.3568 H       1  LIG1        0.0274
     48 H           6.2484   -1.5026   -0.9419 H       1  LIG1        0.0274
     49 H           6.1035   -3.0662   -1.7563 H       1  LIG1        0.0274
     50 H           6.3626   -2.9931    0.0014 H       1  LIG1        0.0274
     51 H          -1.8788   -1.0495   -2.8556 H       1  LIG1        0.0271
     52 H          -0.5681   -2.0190   -3.5586 H       1  LIG1        0.0271
     53 H          -0.4667   -0.2440   -3.5146 H       1  LIG1        0.0271
     54 H          -0.4919   -3.3747   -1.3191 H       1  LIG1        0.0611
     55 H          -1.6558   -3.2271    0.8165 H       1  LIG1        0.0623
     56 H          -2.4419   -1.8288    2.6630 H       1  LIG1        0.0633
@<TRIPOS>BOND
     1     1     2    2
     2     2     3    1
     3     3     4    1
     4     2     5    1
     5     5     6   ar
     6     6     7   ar
     7     7     8    1
     8     8     9    1
     9     9    10    2
    10    10    11    1
    11    10    12    1
    12     7    13   ar
    13    13    14    1
    14    14    15    1
    15    16    17    1
    16    17    18    1
    17    18    19    2
    18    19    20    1
    19    19    21    1
    20    15    23    1
    21    23    24    2
    22    13    25   ar
    23    24    25    1
    24    25    26   ar
    25     5    26   ar
    26    15    22    1
    27    15    16    1
    28     4    27    1
    29     4    28    1
    30     4    29    1
    31     6    30    1
    32     8    31    1
    33     8    32    1
    34     9    33    1
    35    11    34    1
    36    11    35    1
    37    11    36    1
    38    12    37    1
    39    12    38    1
    40    12    39    1
    41    16    40    1
    42    16    41    1
    43    17    42    1
    44    17    43    1
    45    18    44    1
    46    20    45    1
    47    20    46    1
    48    20    47    1
    49    21    48    1
    50    21    49    1
    51    21    50    1
    52    22    51    1
    53    22    52    1
    54    22    53    1
    55    23    54    1
    56    24    55    1
    57    26    56    1
