@<TRIPOS>MOLECULE
NuBBE_1940
 39 40 0 0 0
SMALL
GASTEIGER

@<TRIPOS>ATOM
      1 C          -2.6115    2.2511    0.2695 C.3     1  LIG1       -0.0587
      2 C          -1.1439    2.1943   -0.1407 C.3     1  LIG1       -0.0224
      3 H          -0.5925    2.9783    0.3955 H       1  LIG1        0.0343
      4 C          -0.4155    0.8761    0.0675 C.2     1  LIG1       -0.0667
      5 C          -0.6916    0.0160    1.0622 C.2     1  LIG1       -0.0772
      6 C          -0.1021   -1.3357    1.3814 C.3     1  LIG1       -0.0021
      7 H          -0.9535   -1.8671    1.8401 H       1  LIG1        0.0388
      8 C           0.2541   -2.2706    0.2086 C.3     1  LIG1       -0.0428
      9 C           1.1774   -1.7714   -0.8980 C.3     1  LIG1       -0.0491
     10 C           0.6509   -0.6231   -1.7729 C.3     1  LIG1       -0.0373
     11 H           1.3878   -0.5131   -2.5822 H       1  LIG1        0.0304
     12 C           0.6402    0.7124   -1.0066 C.3     1  LIG1       -0.0170
     13 H           1.6279    0.8433   -0.5446 H       1  LIG1        0.0348
     14 C           0.4283    1.9293   -1.9266 C.3     1  LIG1       -0.0457
     15 C          -0.9826    2.4157   -1.6419 C.3     1  LIG1       -0.0462
     16 C          -0.6771   -0.9736   -2.4530 C.3     1  LIG1       -0.0619
     17 C           0.9554   -1.2428    2.4808 C.2     1  LIG1       -0.0729
     18 C           0.7221   -1.7392    3.7107 C.2     1  LIG1       -0.0992
     19 C           2.2640   -0.5634    2.1873 C.3     1  LIG1       -0.0435
     20 H          -3.1859    1.4304   -0.1743 H       1  LIG1        0.0235
     21 H          -3.0652    3.1938   -0.0549 H       1  LIG1        0.0235
     22 H          -2.7212    2.1927    1.3573 H       1  LIG1        0.0235
     23 H          -1.4542    0.3110    1.7834 H       1  LIG1        0.0578
     24 H          -0.6825   -2.6116   -0.2525 H       1  LIG1        0.0274
     25 H           0.7058   -3.1815    0.6263 H       1  LIG1        0.0274
     26 H           1.3779   -2.6254   -1.5601 H       1  LIG1        0.0268
     27 H           2.1537   -1.4973   -0.4885 H       1  LIG1        0.0268
     28 H           0.5792    1.7103   -2.9883 H       1  LIG1        0.0271
     29 H           1.1441    2.7174   -1.6579 H       1  LIG1        0.0271
     30 H          -1.7133    1.8300   -2.2127 H       1  LIG1        0.0271
     31 H          -1.1105    3.4674   -1.9181 H       1  LIG1        0.0271
     32 H          -1.5121   -1.0105   -1.7473 H       1  LIG1        0.0233
     33 H          -0.6107   -1.9499   -2.9455 H       1  LIG1        0.0233
     34 H          -0.9262   -0.2407   -3.2266 H       1  LIG1        0.0233
     35 H           1.4619   -1.6705    4.5028 H       1  LIG1        0.0534
     36 H          -0.2151   -2.2257    3.9636 H       1  LIG1        0.0534
     37 H           2.8562   -0.4136    3.0974 H       1  LIG1        0.0274
     38 H           2.1085    0.4251    1.7484 H       1  LIG1        0.0274
     39 H           2.8717   -1.1679    1.5103 H       1  LIG1        0.0274
@<TRIPOS>BOND
     1     2     4    1
     2     4     5    2
     3     5     6    1
     4     6     8    1
     5     8     9    1
     6     9    10    1
     7    10    12    1
     8     4    12    1
     9    12    14    1
    10    14    15    1
    11     2    15    1
    12    17    18    2
    13    17    19    1
    14     1     2    1
    15     2     3    1
    16     6     7    1
    17     6    17    1
    18    10    11    1
    19    10    16    1
    20    12    13    1
    21     1    20    1
    22     1    21    1
    23     1    22    1
    24     5    23    1
    25     8    24    1
    26     8    25    1
    27     9    26    1
    28     9    27    1
    29    14    28    1
    30    14    29    1
    31    15    30    1
    32    15    31    1
    33    16    32    1
    34    16    33    1
    35    16    34    1
    36    18    35    1
    37    18    36    1
    38    19    37    1
    39    19    38    1
    40    19    39    1
