REMARK  Name = NuBBE_392
REMARK  18 active torsions:
REMARK  status: ('A' for Active; 'I' for Inactive)
REMARK    1  A    between atoms: C_1  and  C_2
REMARK    2  A    between atoms: C_5  and  O_9
REMARK    3  A    between atoms: O_9  and  C_10
REMARK    4  A    between atoms: C_13  and  C_21
REMARK    5  A    between atoms: C_15  and  O_20
REMARK    6  A    between atoms: C_17  and  O_19
REMARK    7  A    between atoms: C_21  and  O_22
REMARK    8  A    between atoms: C_23  and  O_25
REMARK    9  A    between atoms: C_34  and  C_53
REMARK   10  A    between atoms: C_39  and  C_41
REMARK   11  A    between atoms: C_41  and  C_43
REMARK   12  A    between atoms: C_41  and  C_52
REMARK   13  A    between atoms: C_44  and  C_45
REMARK   14  A    between atoms: C_45  and  C_47
REMARK   15  A    between atoms: C_45  and  C_50
REMARK   16  A    between atoms: C_47  and  C_48
REMARK   17  A    between atoms: C_47  and  C_49
REMARK   18  A    between atoms: C_50  and  C_51
REMARK                            x       y       z     vdW  Elec       q    Type
REMARK                         _______ _______ _______ _____ _____    ______ ____
ROOT
ATOM      1  C   LIG A   1       0.735  -3.486   3.179  0.00  0.00    +0.016 C 
ATOM      2  C   LIG A   1       0.753  -2.980   1.712  0.00  0.00    -0.008 C 
ATOM      3  C   LIG A   1      -0.675  -2.955   1.177  0.00  0.00    -0.065 C 
ATOM      4  C   LIG A   1      -1.169  -4.124   0.348  0.00  0.00    +0.062 C 
ATOM      5  C   LIG A   1      -0.192  -4.665  -0.717  0.00  0.00    +0.126 C 
ATOM      6  C   LIG A   1       1.249  -4.187  -0.527  0.00  0.00    +0.033 C 
ATOM      7  C   LIG A   1       1.641  -3.987   0.930  0.00  0.00    +0.013 C 
ATOM      8  C   LIG A   1      -1.472  -1.919   1.461  0.00  0.00    -0.027 C 
ATOM      9  C   LIG A   1      -1.056  -0.717   2.265  0.00  0.00    +0.031 C 
ATOM     10  C   LIG A   1       0.470  -0.507   2.490  0.00  0.00    +0.000 C 
ATOM     11  C   LIG A   1       1.335  -1.503   1.668  0.00  0.00    +0.003 C 
ATOM     12  C   LIG A   1       1.536  -0.990   0.230  0.00  0.00    +0.005 C 
ATOM     13  C   LIG A   1       2.071   0.428   0.167  0.00  0.00    +0.007 C 
ATOM     14  C   LIG A   1       1.215   1.491   0.895  0.00  0.00    -0.026 C 
ATOM     15  C   LIG A   1       0.867   0.995   2.332  0.00  0.00    -0.001 C 
ATOM     16  C   LIG A   1       2.092   1.431   3.143  0.00  0.00    +0.004 C 
ATOM     17  C   LIG A   1       2.323   2.857   2.637  0.00  0.00    +0.005 C 
ATOM     18  C   LIG A   1       2.162   2.753   1.107  0.00  0.00    +0.002 C 
ATOM     19  C   LIG A   1      -0.087   1.755   0.125  0.00  0.00    +0.012 C 
ENDROOT
BRANCH  18  20
ATOM     20  C   LIG A   1       1.902   4.083   0.326  0.00  0.00    +0.012 C 
ATOM     21  C   LIG A   1       3.160   4.979   0.323  0.00  0.00    +0.012 C 
BRANCH  20  22
ATOM     22  C   LIG A   1       0.713   4.896   0.813  0.00  0.00    -0.027 C 
ATOM     23  C   LIG A   1      -0.119   5.620   0.060  0.00  0.00    -0.027 C 
BRANCH  23  24
ATOM     24  C   LIG A   1      -1.305   6.429   0.613  0.00  0.00    +0.014 C 
BRANCH  24  25
ATOM     25  C   LIG A   1      -0.831   7.523   1.632  0.00  0.00    -0.010 C 
ATOM     26  C   LIG A   1       0.284   8.403   1.039  0.00  0.00    +0.008 C 
ATOM     27  C   LIG A   1      -1.923   8.492   2.106  0.00  0.00    +0.008 C 
ENDBRANCH  24  25
BRANCH  24  28
ATOM     28  C   LIG A   1      -2.345   5.405   1.145  0.00  0.00    +0.004 C 
ATOM     29  C   LIG A   1      -3.694   5.943   1.595  0.00  0.00    +0.004 C 
ENDBRANCH  24  28
ENDBRANCH  23  24
ENDBRANCH  20  22
ENDBRANCH  18  20
BRANCH   5  30
ATOM     30  O   LIG A   1      -0.671  -4.400  -2.054  0.00  0.00    -0.345 OA
BRANCH  30  31
ATOM     31  C   LIG A   1       0.135  -4.946  -3.114  0.00  0.00    +0.282 C 
ATOM     32  O   LIG A   1      -0.338  -4.489  -4.394  0.00  0.00    -0.341 OA
ATOM     33  C   LIG A   1      -1.446  -5.200  -4.968  0.00  0.00    +0.178 C 
ATOM     34  C   LIG A   1      -1.178  -6.710  -5.036  0.00  0.00    +0.177 C 
ATOM     35  C   LIG A   1      -0.831  -7.273  -3.655  0.00  0.00    +0.179 C 
ATOM     36  C   LIG A   1       0.341  -6.487  -3.052  0.00  0.00    +0.201 C 
BRANCH  35  37
ATOM     37  O   LIG A   1      -1.981  -7.272  -2.812  0.00  0.00    -0.386 OA
ATOM     38  H   LIG A   1      -1.732  -7.673  -1.960  0.00  0.00    +0.210 HD
ENDBRANCH  35  37
BRANCH  34  39
ATOM     39  O   LIG A   1      -0.060  -6.961  -5.912  0.00  0.00    -0.387 OA
ATOM     40  H   LIG A   1      -0.285  -6.586  -6.784  0.00  0.00    +0.210 HD
ENDBRANCH  34  39
BRANCH  36  41
ATOM     41  O   LIG A   1       1.561  -6.849  -3.723  0.00  0.00    -0.384 OA
ATOM     42  H   LIG A   1       1.367  -6.814  -4.685  0.00  0.00    +0.210 HD
ENDBRANCH  36  41
BRANCH  33  43
ATOM     43  C   LIG A   1      -2.776  -4.850  -4.291  0.00  0.00    +0.190 C 
BRANCH  43  44
ATOM     44  O   LIG A   1      -3.067  -3.466  -4.486  0.00  0.00    -0.392 OA
ATOM     45  H   LIG A   1      -2.309  -2.987  -4.097  0.00  0.00    +0.209 HD
ENDBRANCH  43  44
ENDBRANCH  33  43
ENDBRANCH  30  31
ENDBRANCH   5  30
TORSDOF 12
