@<TRIPOS>MOLECULE
NuBBE_2011
 76 82 0 0 0
SMALL
GASTEIGER

@<TRIPOS>ATOM
      1 O          -2.1819   -1.1725    0.8597 O.3     1  LIG1       -0.3849
      2 C          -1.3218   -0.2440    0.2394 C.3     1  LIG1        0.1083
      3 C          -1.6659    0.0159   -1.2282 C.3     1  LIG1        0.1182
      4 C          -1.2829   -1.2293   -2.1348 C.3     1  LIG1        0.0415
      5 C          -1.0771   -0.7504   -3.5934 C.3     1  LIG1       -0.0531
      6 C          -2.4586   -2.2702   -2.0486 C.3     1  LIG1        0.1390
      7 H          -2.5078   -2.6832   -1.0348 H       1  LIG1        0.0793
      8 O          -3.7474   -1.6820   -2.2978 O.3     1  LIG1       -0.4557
      9 C          -4.1163   -0.6164   -1.5623 C.2     1  LIG1        0.3106
     10 O          -5.2739   -0.4508   -1.2017 O.2     1  LIG1       -0.2507
     11 C          -3.1012    0.4733   -1.4906 C.3     1  LIG1        0.0774
     12 C          -2.3201   -3.4571   -2.9755 C.ar    1  LIG1        0.0310
     13 C          -2.8254   -3.5916   -4.3057 C.ar    1  LIG1       -0.0172
     14 C          -2.4625   -4.8424   -4.7431 C.ar    1  LIG1        0.0921
     15 O          -1.7828   -5.5018   -3.7728 O.2     1  LIG1       -0.4706
     16 C          -1.7182   -4.6720   -2.7025 C.ar    1  LIG1        0.0984
     17 C           0.0641   -1.9358   -1.6995 C.3     1  LIG1       -0.0408
     18 C           0.3413   -2.0257   -0.1906 C.3     1  LIG1       -0.0461
     19 C           0.1771   -0.6113    0.3178 C.3     1  LIG1        0.0005
     20 H           0.7165   -0.0283   -0.4290 H       1  LIG1        0.0336
     21 C           0.7353   -0.0556    1.6540 C.3     1  LIG1        0.0201
     22 C          -0.4158    0.9023    2.1567 C.3     1  LIG1        0.1281
     23 C          -1.3291    1.0916    0.9173 C.3     1  LIG1        0.0600
     24 H          -2.3351    1.3872    1.2382 H       1  LIG1        0.0395
     25 C          -0.8275    2.0050   -0.2189 C.3     1  LIG1        0.0951
     26 O          -0.8576    1.2168   -1.4690 O.3     1  LIG1       -0.3630
     27 C           0.5816    2.6222   -0.0513 C.3     1  LIG1        0.0877
     28 H           1.2517    2.2566   -0.8362 H       1  LIG1        0.0625
     29 O           0.4601    4.0278   -0.3112 O.3     1  LIG1       -0.3887
     30 C           1.2486    2.3973    1.3399 C.3     1  LIG1        0.0063
     31 C           1.9382    0.9777    1.4783 C.3     1  LIG1        0.0128
     32 H           2.4545    0.9917    2.4523 H       1  LIG1        0.0344
     33 C           3.0281    0.5851    0.4457 C.3     1  LIG1        0.1555
     34 H           2.6260    0.5269   -0.5675 H       1  LIG1        0.0713
     35 C           4.1802    1.5990    0.4227 C.2     1  LIG1        0.3361
     36 O           4.9764    1.7928    1.3295 O.2     1  LIG1       -0.2479
     37 O           4.1391    2.2648   -0.7661 O.3     1  LIG1       -0.4661
     38 C           4.8978    3.4712   -0.8572 C.3     1  LIG1        0.0817
     39 O           3.5126   -0.7186    0.7573 O.3     1  LIG1       -0.3803
     40 C           0.1775    2.2772    2.4383 C.3     1  LIG1       -0.0036
     41 C           2.1665    3.5691    1.7320 C.3     1  LIG1       -0.0566
     42 O          -1.2016    0.2693    3.1943 O.3     1  LIG1       -0.4572
     43 C          -0.7527    0.2428    4.4860 C.2     1  LIG1        0.3045
     44 O           0.0443    1.0072    4.9951 O.2     1  LIG1       -0.2511
     45 C          -1.3083   -0.9456    5.2151 C.3     1  LIG1        0.0333
     46 C           1.1282   -1.2036    2.5904 C.3     1  LIG1       -0.0552
     47 H          -2.1093   -1.0690    1.8290 H       1  LIG1        0.2103
     48 H          -2.0051   -0.3755   -4.0398 H       1  LIG1        0.0237
     49 H          -0.6998   -1.5574   -4.2323 H       1  LIG1        0.0237
     50 H          -0.3327    0.0532   -3.6451 H       1  LIG1        0.0237
     51 H          -3.4401    1.1876   -0.7388 H       1  LIG1        0.0407
     52 H          -3.1467    1.0122   -2.4501 H       1  LIG1        0.0407
     53 H          -3.3899   -2.8609   -4.8698 H       1  LIG1        0.0653
     54 H          -2.6109   -5.3877   -5.6646 H       1  LIG1        0.1029
     55 H          -1.2068   -5.0719   -1.8381 H       1  LIG1        0.1033
     56 H           0.1515   -2.9420   -2.1292 H       1  LIG1        0.0273
     57 H           0.9077   -1.3879   -2.1539 H       1  LIG1        0.0273
     58 H           1.3591   -2.3961   -0.0343 H       1  LIG1        0.0269
     59 H          -0.3410   -2.7307    0.2943 H       1  LIG1        0.0269
     60 H          -1.5631    2.8052   -0.3693 H       1  LIG1        0.0627
     61 H           0.2218    4.1274   -1.2523 H       1  LIG1        0.2099
     62 H           4.2024    4.2496   -1.1865 H       1  LIG1        0.0661
     63 H           5.6778    3.3573   -1.6142 H       1  LIG1        0.0661
     64 H           5.3387    3.7835    0.0931 H       1  LIG1        0.0661
     65 H           4.3006   -0.8836    0.2096 H       1  LIG1        0.2105
     66 H          -0.5737    3.0740    2.3988 H       1  LIG1        0.0310
     67 H           0.6550    2.3617    3.4150 H       1  LIG1        0.0310
     68 H           2.8525    3.8422    0.9299 H       1  LIG1        0.0236
     69 H           2.7563    3.3384    2.6252 H       1  LIG1        0.0236
     70 H           1.5788    4.4652    1.9630 H       1  LIG1        0.0236
     71 H          -2.2771   -0.7113    5.6552 H       1  LIG1        0.0342
     72 H          -0.5996   -1.2262    6.0035 H       1  LIG1        0.0342
     73 H          -1.3867   -1.8034    4.5412 H       1  LIG1        0.0342
     74 H           1.9013   -1.8412    2.1518 H       1  LIG1        0.0237
     75 H           0.2762   -1.8581    2.7982 H       1  LIG1        0.0237
     76 H           1.5288   -0.8372    3.5387 H       1  LIG1        0.0237
@<TRIPOS>BOND
     1     2     3    1
     2     3     4    1
     3     4     6    1
     4     6     8    1
     5     8     9    1
     6     9    11    1
     7     3    11    1
     8    12    13   ar
     9    13    14   ar
    10    14    15   ar
    11    15    16   ar
    12    12    16   ar
    13     4    17    1
    14    17    18    1
    15    18    19    1
    16     2    19    1
    17    19    21    1
    18    21    22    1
    19    22    23    1
    20     2    23    1
    21    23    25    1
    22    25    26    1
    23     3    26    1
    24    25    27    1
    25    27    30    1
    26    30    31    1
    27    21    31    1
    28    33    34    1
    29    33    35    1
    30    35    36    2
    31    35    37    1
    32    37    38    1
    33    33    39    1
    34    30    40    1
    35    22    40    1
    36    42    43    1
    37    43    44    2
    38    43    45    1
    39     1     2    1
    40     4     5    1
    41     9    10    2
    42    19    20    1
    43    21    46    1
    44    22    42    1
    45    23    24    1
    46    27    28    1
    47    27    29    1
    48    30    41    1
    49     6    12    1
    50     6     7    1
    51    31    33    1
    52    31    32    1
    53     1    47    1
    54     5    48    1
    55     5    49    1
    56     5    50    1
    57    11    51    1
    58    11    52    1
    59    13    53    1
    60    14    54    1
    61    16    55    1
    62    17    56    1
    63    17    57    1
    64    18    58    1
    65    18    59    1
    66    25    60    1
    67    29    61    1
    68    38    62    1
    69    38    63    1
    70    38    64    1
    71    39    65    1
    72    40    66    1
    73    40    67    1
    74    41    68    1
    75    41    69    1
    76    41    70    1
    77    45    71    1
    78    45    72    1
    79    45    73    1
    80    46    74    1
    81    46    75    1
    82    46    76    1
