@<TRIPOS>MOLECULE
NuBBE_992
 67 71 0 0 0
SMALL
GASTEIGER

@<TRIPOS>ATOM
      1 C          -2.5714    2.1646    2.7796 C.3     1  LIG1       -0.0586
      2 C          -1.0884    1.7246    2.7661 C.3     1  LIG1       -0.0191
      3 C          -0.3112    2.5885    1.7112 C.3     1  LIG1       -0.0252
      4 C          -0.1451    1.8279    0.3726 C.3     1  LIG1       -0.0339
      5 C           0.4920    2.6787   -0.7237 C.3     1  LIG1       -0.0494
      6 C           0.4125    1.9306   -2.0431 C.3     1  LIG1       -0.0492
      7 C           1.0376    0.5160   -2.0211 C.3     1  LIG1       -0.0292
      8 C           0.6256   -0.1492   -3.3597 C.3     1  LIG1       -0.0060
      9 C           0.5405   -1.6757   -3.3460 C.3     1  LIG1        0.1682
     10 H          -0.1173   -1.9953   -4.1619 H       1  LIG1        0.0801
     11 C          -0.0175   -2.2153   -1.9856 C.3     1  LIG1        0.2532
     12 C          -0.5979   -1.1256   -1.0686 C.3     1  LIG1        0.0250
     13 C           0.6750   -0.3410   -0.7557 C.3     1  LIG1        0.0064
     14 C           0.6717    0.5252    0.5328 C.3     1  LIG1       -0.0297
     15 C           0.2828   -0.2262    1.8204 C.3     1  LIG1       -0.0488
     16 C          -1.0560    0.2272    2.3710 C.3     1  LIG1       -0.0464
     17 C           1.6911   -1.5047   -0.5915 C.3     1  LIG1        0.0584
     18 O           1.1131   -2.6646   -1.2001 O.3     1  LIG1       -0.3358
     19 O          -0.8976   -3.3314   -2.1658 O.3     1  LIG1       -0.4287
     20 C          -2.0614   -3.0863   -2.8251 C.2     1  LIG1        0.3064
     21 C          -2.7883   -4.3728   -3.0703 C.3     1  LIG1        0.0333
     22 O          -2.4543   -1.9943   -3.1906 O.2     1  LIG1       -0.2511
     23 O           1.8655   -2.2028   -3.6081 O.3     1  LIG1       -0.4549
     24 C           2.2548   -2.2442   -4.9069 C.2     1  LIG1        0.3044
     25 C           3.7067   -2.5848   -4.9933 C.3     1  LIG1        0.0332
     26 O           1.5507   -1.9682   -5.8723 O.2     1  LIG1       -0.2512
     27 C           1.0233    3.0119    2.3367 C.3     1  LIG1        0.0097
     28 C           0.9034    2.6328    3.7791 C.2     1  LIG1        0.1372
     29 C          -0.4582    2.0836    4.1455 C.3     1  LIG1        0.0229
     30 H          -0.9945    2.9375    4.5827 H       1  LIG1        0.0383
     31 C          -0.3267    0.9949    5.2198 C.3     1  LIG1       -0.0459
     32 C          -1.6360    0.3857    5.7026 C.3     1  LIG1       -0.0646
     33 O           1.8158    2.8062    4.5803 O.2     1  LIG1       -0.2971
     34 H          -2.6727    3.2251    3.0393 H       1  LIG1        0.0235
     35 H          -3.1506    1.5886    3.5081 H       1  LIG1        0.0235
     36 H          -3.0362    2.0272    1.7969 H       1  LIG1        0.0235
     37 H          -0.8773    3.5087    1.5077 H       1  LIG1        0.0313
     38 H          -1.1582    1.5707    0.0303 H       1  LIG1        0.0307
     39 H           1.5364    2.9160   -0.4922 H       1  LIG1        0.0268
     40 H          -0.0415    3.6315   -0.8230 H       1  LIG1        0.0268
     41 H           0.8956    2.5253   -2.8282 H       1  LIG1        0.0268
     42 H          -0.6484    1.8635   -2.3203 H       1  LIG1        0.0268
     43 H           2.1280    0.6520   -2.0241 H       1  LIG1        0.0308
     44 H           1.3051    0.2064   -4.1432 H       1  LIG1        0.0306
     45 H          -0.3732    0.2050   -3.6472 H       1  LIG1        0.0306
     46 H          -1.0370   -1.5868   -0.1767 H       1  LIG1        0.0336
     47 H          -1.3812   -0.5159   -1.5278 H       1  LIG1        0.0336
     48 H           1.7259    0.8079    0.6697 H       1  LIG1        0.0310
     49 H           1.0605   -0.0641    2.5768 H       1  LIG1        0.0268
     50 H           0.2410   -1.3095    1.6752 H       1  LIG1        0.0268
     51 H          -1.3186   -0.4306    3.1954 H       1  LIG1        0.0271
     52 H          -1.8241    0.0265    1.6115 H       1  LIG1        0.0271
     53 H           1.9029   -1.7697    0.4481 H       1  LIG1        0.0567
     54 H           2.6579   -1.2971   -1.0606 H       1  LIG1        0.0567
     55 H          -3.1035   -4.8161   -2.1255 H       1  LIG1        0.0342
     56 H          -2.1435   -5.0593   -3.6266 H       1  LIG1        0.0342
     57 H          -3.6755   -4.1706   -3.6814 H       1  LIG1        0.0342
     58 H           3.9161   -3.4979   -4.4301 H       1  LIG1        0.0342
     59 H           4.2944   -1.7498   -4.6021 H       1  LIG1        0.0342
     60 H           3.9800   -2.7521   -6.0391 H       1  LIG1        0.0342
     61 H           1.1605    4.0947    2.2554 H       1  LIG1        0.0345
     62 H           1.8978    2.5125    1.9167 H       1  LIG1        0.0345
     63 H           0.1593    1.4412    6.0983 H       1  LIG1        0.0269
     64 H           0.3554    0.2036    4.8868 H       1  LIG1        0.0269
     65 H          -1.4384   -0.2938    6.5381 H       1  LIG1        0.0230
     66 H          -2.1463   -0.2049    4.9412 H       1  LIG1        0.0230
     67 H          -2.3311    1.1577    6.0416 H       1  LIG1        0.0230
@<TRIPOS>BOND
     1     1     2    1
     2     2     3    1
     3     3     4    1
     4     4     5    1
     5     5     6    1
     6     6     7    1
     7     7     8    1
     8     8     9    1
     9     9    11    1
    10    11    12    1
    11    12    13    1
    12    13    14    1
    13     4    14    1
    14    14    15    1
    15    15    16    1
    16     2    16    1
    17     7    13    1
    18    13    17    1
    19    17    18    1
    20    11    18    1
    21    11    19    1
    22    19    20    1
    23    20    21    1
    24    20    22    2
    25    23    24    1
    26    24    25    1
    27    24    26    2
    28     3    27    1
    29    27    28    1
    30    28    29    1
    31    29    30    1
    32     2    29    1
    33    29    31    1
    34    31    32    1
    35    28    33    2
    36     9    23    1
    37     9    10    1
    38     1    34    1
    39     1    35    1
    40     1    36    1
    41     3    37    1
    42     4    38    1
    43     5    39    1
    44     5    40    1
    45     6    41    1
    46     6    42    1
    47     7    43    1
    48     8    44    1
    49     8    45    1
    50    12    46    1
    51    12    47    1
    52    14    48    1
    53    15    49    1
    54    15    50    1
    55    16    51    1
    56    16    52    1
    57    17    53    1
    58    17    54    1
    59    21    55    1
    60    21    56    1
    61    21    57    1
    62    25    58    1
    63    25    59    1
    64    25    60    1
    65    27    61    1
    66    27    62    1
    67    31    63    1
    68    31    64    1
    69    32    65    1
    70    32    66    1
    71    32    67    1
