@<TRIPOS>MOLECULE
NuBBE_649
 30 32 0 0 0
SMALL
GASTEIGER

@<TRIPOS>ATOM
      1 O          -3.9490   -1.3091    0.0738 O.3     1  LIG1       -0.5059
      2 C          -2.6044   -1.0519    0.0549 C.ar    1  LIG1        0.1310
      3 C          -1.6226   -2.0653    0.0372 C.ar    1  LIG1        0.0595
      4 C          -0.2753   -1.6818    0.0442 C.ar    1  LIG1        0.1493
      5 O           0.7658   -2.6254    0.0247 O.2     1  LIG1       -0.4216
      6 C           0.5013   -3.9853    0.0022 C.ar    1  LIG1        0.3372
      7 C          -0.9151   -4.3827   -0.0398 C.ar    1  LIG1        0.0237
      8 C          -1.9147   -3.4948   -0.0260 C.ar    1  LIG1       -0.0408
      9 O           1.3891   -4.8293    0.0088 O.2     1  LIG1       -0.2452
     10 C           0.0715   -0.3443    0.0671 C.ar    1  LIG1        0.0412
     11 C          -0.9136    0.6247    0.0684 C.ar    1  LIG1        0.1317
     12 O          -0.4218    1.9036    0.0670 O.3     1  LIG1       -0.4837
     13 C           0.9853    1.7376    0.4168 C.3     1  LIG1        0.1249
     14 H           1.0369    1.8076    1.5146 H       1  LIG1        0.0784
     15 C           1.7779    2.9061   -0.1461 C.2     1  LIG1       -0.0395
     16 C           1.2415    4.2686    0.2157 C.3     1  LIG1       -0.0406
     17 C           2.8974    2.7995   -0.8839 C.2     1  LIG1       -0.0962
     18 C           1.3982    0.3110   -0.0030 C.3     1  LIG1        0.0204
     19 C          -2.2542    0.3018    0.0533 C.ar    1  LIG1        0.0227
     20 H          -4.1014   -2.2113    0.3930 H       1  LIG1        0.2922
     21 H          -1.0993   -5.4491   -0.0946 H       1  LIG1        0.0689
     22 H          -2.9384   -3.8409   -0.0885 H       1  LIG1        0.0628
     23 H           1.1516    4.3644    1.3028 H       1  LIG1        0.0275
     24 H           0.2557    4.4275   -0.2325 H       1  LIG1        0.0275
     25 H           1.8953    5.0757   -0.1320 H       1  LIG1        0.0275
     26 H           3.3389    1.8467   -1.1542 H       1  LIG1        0.0535
     27 H           3.4185    3.6820   -1.2462 H       1  LIG1        0.0535
     28 H           2.1344   -0.1154    0.6840 H       1  LIG1        0.0355
     29 H           1.7634    0.2533   -1.0331 H       1  LIG1        0.0355
     30 H          -3.0129    1.0766    0.0515 H       1  LIG1        0.0691
@<TRIPOS>BOND
     1     1     2    1
     2     2     3   ar
     3     3     4   ar
     4     4     5   ar
     5     5     6   ar
     6     6     7   ar
     7     7     8   ar
     8     3     8   ar
     9     6     9    2
    10     4    10   ar
    11    10    11   ar
    12    11    12    1
    13    12    13    1
    14    13    14    1
    15    13    15    1
    16    15    16    1
    17    15    17    2
    18    13    18    1
    19    10    18    1
    20    11    19   ar
    21     2    19   ar
    22     1    20    1
    23     7    21    1
    24     8    22    1
    25    16    23    1
    26    16    24    1
    27    16    25    1
    28    17    26    1
    29    17    27    1
    30    18    28    1
    31    18    29    1
    32    19    30    1
