REMARK  Name = NuBBE_1
REMARK  12 active torsions:
REMARK  status: ('A' for Active; 'I' for Inactive)
REMARK    1  A    between atoms: C_2  and  O_3
REMARK    2  A    between atoms: C_2  and  C_14
REMARK    3  A    between atoms: O_3  and  C_4
REMARK    4  A    between atoms: C_4  and  C_5
REMARK    5  A    between atoms: C_6  and  C_7
REMARK    6  A    between atoms: C_6  and  C_8
REMARK    7  A    between atoms: C_8  and  C_9
REMARK    8  A    between atoms: C_9  and  C_10
REMARK    9  A    between atoms: C_11  and  C_12
REMARK   10  A    between atoms: C_11  and  C_13
REMARK   11  A    between atoms: C_16  and  O_17
REMARK   12  A    between atoms: C_18  and  O_19
REMARK                            x       y       z     vdW  Elec       q    Type
REMARK                         _______ _______ _______ _____ _____    ______ ____
ROOT
ATOM      1  O   LIG A   1      -1.351   3.324  -0.718  0.00  0.00    -0.245 OA
ATOM      2  C   LIG A   1      -0.662   2.518  -1.378  0.00  0.00    +0.340 C 
ENDROOT
BRANCH   2   3
ATOM      3  C   LIG A   1       0.665   2.852  -1.904  0.00  0.00    +0.063 A 
ATOM      4  C   LIG A   1       1.605   1.836  -2.151  0.00  0.00    +0.064 A 
ATOM      5  C   LIG A   1       2.855   2.180  -2.635  0.00  0.00    +0.159 A 
ATOM      6  C   LIG A   1       3.180   3.514  -2.873  0.00  0.00    +0.158 A 
ATOM      7  C   LIG A   1       2.260   4.527  -2.637  0.00  0.00    +0.050 A 
ATOM      8  C   LIG A   1       0.996   4.196  -2.145  0.00  0.00    +0.019 A 
BRANCH   5   9
ATOM      9  O   LIG A   1       3.806   1.232  -2.893  0.00  0.00    -0.503 OA
ATOM     10  H   LIG A   1       3.432   0.361  -2.672  0.00  0.00    +0.292 HD
ENDBRANCH   5   9
BRANCH   6  11
ATOM     11  O   LIG A   1       4.422   3.834  -3.338  0.00  0.00    -0.503 OA
ATOM     12  H   LIG A   1       4.888   2.977  -3.405  0.00  0.00    +0.292 HD
ENDBRANCH   6  11
ENDBRANCH   2   3
BRANCH   2  13
ATOM     13  O   LIG A   1      -1.018   1.268  -1.731  0.00  0.00    -0.457 OA
BRANCH  13  14
ATOM     14  C   LIG A   1      -2.307   0.826  -1.305  0.00  0.00    +0.260 C 
BRANCH  14  15
ATOM     15  C   LIG A   1      -2.374   0.742   0.197  0.00  0.00    +0.012 C 
ATOM     16  C   LIG A   1      -2.042  -0.324   0.941  0.00  0.00    -0.073 C 
ATOM     17  C   LIG A   1      -1.527  -1.523   0.259  0.00  0.00    +0.038 C 
BRANCH  16  18
ATOM     18  C   LIG A   1      -2.037  -0.324   2.466  0.00  0.00    +0.034 C 
BRANCH  18  19
ATOM     19  C   LIG A   1      -0.927  -1.100   3.248  0.00  0.00    +0.031 C 
BRANCH  19  20
ATOM     20  C   LIG A   1      -0.871  -2.606   3.063  0.00  0.00    -0.028 C 
ATOM     21  C   LIG A   1      -0.105  -3.331   2.211  0.00  0.00    -0.080 C 
ATOM     22  C   LIG A   1       0.901  -2.800   1.216  0.00  0.00    +0.038 C 
ATOM     23  C   LIG A   1      -0.323  -4.808   2.039  0.00  0.00    +0.038 C 
ENDBRANCH  19  20
ENDBRANCH  18  19
ENDBRANCH  16  18
ENDBRANCH  14  15
ENDBRANCH  13  14
ENDBRANCH   2  13
TORSDOF 9
