@<TRIPOS>MOLECULE
NuBBE_960
 80 84 0 0 0
SMALL
GASTEIGER

@<TRIPOS>ATOM
      1 C          -0.2385    0.1456   -2.6586 C.3     1  LIG1       -0.0520
      2 C          -0.1474   -0.1982   -1.1522 C.3     1  LIG1        0.0373
      3 C          -0.2849    1.1056   -0.2490 C.3     1  LIG1       -0.0072
      4 H          -1.2777    1.5442   -0.5046 H       1  LIG1        0.0355
      5 C          -0.5222    0.8765    1.2543 C.2     1  LIG1       -0.0644
      6 C          -1.2576   -0.2331    1.5989 C.2     1  LIG1       -0.0705
      7 C          -1.4618   -1.4052    0.5830 C.3     1  LIG1        0.0739
      8 H          -0.4370   -1.5205    0.9444 H       1  LIG1        0.0457
      9 C          -1.5013   -0.6948   -0.7422 C.2     1  LIG1        0.1503
     10 O          -2.5090   -0.2867   -1.2911 O.2     1  LIG1       -0.2960
     11 C          -1.1263   -2.8817    0.1018 C.3     1  LIG1        0.1217
     12 H          -0.8933   -3.4558    1.0148 H       1  LIG1        0.0750
     13 C           0.1738   -2.8745   -0.8944 C.3     1  LIG1        0.0074
     14 C           0.9242   -1.4177   -0.8950 C.3     1  LIG1       -0.0098
     15 H           1.5599   -1.4121   -1.7915 H       1  LIG1        0.0322
     16 C           1.9416   -1.2425    0.2760 C.3     1  LIG1        0.0493
     17 C           3.1752   -2.1607    0.2141 C.2     1  LIG1        0.3071
     18 O           3.9376   -2.2430   -0.7392 O.2     1  LIG1       -0.2509
     19 O           3.2315   -2.9361    1.3414 O.3     1  LIG1       -0.4679
     20 C           3.9118   -4.2060    1.2710 C.3     1  LIG1        0.0817
     21 C           1.0297   -4.0682   -0.4177 C.3     1  LIG1       -0.0561
     22 C          -0.0484   -3.1901   -2.3930 C.3     1  LIG1       -0.0561
     23 O          -2.3631   -3.4502   -0.4038 O.3     1  LIG1       -0.4565
     24 C          -2.4537   -4.1771   -1.5261 C.2     1  LIG1        0.3349
     25 O          -1.8520   -5.2581   -1.7403 O.2     1  LIG1       -0.2453
     26 C          -3.3392   -3.4986   -2.5159 C.2     1  LIG1        0.0293
     27 C          -3.2370   -3.8037   -3.8278 C.2     1  LIG1       -0.0774
     28 C          -4.1183   -3.3080   -4.9316 C.3     1  LIG1       -0.0461
     29 C          -4.3014   -2.5268   -1.9227 C.3     1  LIG1       -0.0333
     30 C           0.1588    1.8424    2.2577 C.3     1  LIG1       -0.0005
     31 H           1.0035    1.2104    2.5729 H       1  LIG1        0.0357
     32 C           0.8258    3.1921    1.7271 C.3     1  LIG1        0.0163
     33 C           0.4967    3.4396    0.2382 C.3     1  LIG1       -0.0428
     34 C           0.5904    2.2520   -0.6893 C.3     1  LIG1       -0.0450
     35 C           2.3649    3.0857    2.0179 C.3     1  LIG1       -0.0553
     36 C           0.3011    4.4552    2.5311 C.3     1  LIG1        0.1368
     37 H          -0.7779    4.5852    2.3580 H       1  LIG1        0.0792
     38 O           0.4637    4.2303    3.9504 O.3     1  LIG1       -0.4559
     39 C           0.1748    3.0093    4.4592 C.2     1  LIG1        0.3083
     40 O           0.5186    2.6830    5.5891 O.2     1  LIG1       -0.2508
     41 C          -0.6110    2.0971    3.5534 C.3     1  LIG1        0.0521
     42 C           0.9628    5.7940    2.1579 C.ar    1  LIG1        0.0310
     43 C           0.6777    7.0824    2.7196 C.ar    1  LIG1       -0.0172
     44 C           1.5109    7.9918    2.1063 C.ar    1  LIG1        0.0921
     45 O           2.2900    7.3744    1.1940 O.2     1  LIG1       -0.4706
     46 C           1.9613    6.0658    1.2334 C.ar    1  LIG1        0.0984
     47 H          -0.9791    0.9321   -2.8571 H       1  LIG1        0.0239
     48 H          -0.5627   -0.7009   -3.2684 H       1  LIG1        0.0239
     49 H           0.7257    0.4887   -3.0387 H       1  LIG1        0.0239
     50 H          -1.5148   -0.4523    2.6337 H       1  LIG1        0.0580
     51 H           1.4659   -1.4313    1.2404 H       1  LIG1        0.0381
     52 H           2.3149   -0.2163    0.2936 H       1  LIG1        0.0381
     53 H           4.2912   -4.4497    0.2744 H       1  LIG1        0.0661
     54 H           3.1870   -4.9810    1.5527 H       1  LIG1        0.0661
     55 H           4.7193   -4.2352    2.0062 H       1  LIG1        0.0661
     56 H           1.3167   -3.9568    0.6248 H       1  LIG1        0.0236
     57 H           1.9120   -4.2101   -1.0507 H       1  LIG1        0.0236
     58 H           0.4653   -5.0087   -0.4438 H       1  LIG1        0.0236
     59 H           0.8141   -2.9344   -3.0145 H       1  LIG1        0.0236
     60 H          -0.9035   -2.6546   -2.7934 H       1  LIG1        0.0236
     61 H          -0.1460   -4.2598   -2.5850 H       1  LIG1        0.0236
     62 H          -2.4733   -4.5115   -4.1542 H       1  LIG1        0.0574
     63 H          -4.8490   -2.5631   -4.6111 H       1  LIG1        0.0272
     64 H          -4.6749   -4.1571   -5.3401 H       1  LIG1        0.0272
     65 H          -3.5264   -2.8655   -5.7386 H       1  LIG1        0.0272
     66 H          -4.9036   -3.0151   -1.1601 H       1  LIG1        0.0280
     67 H          -4.9232   -1.9965   -2.6407 H       1  LIG1        0.0280
     68 H          -3.7848   -1.7599   -1.3818 H       1  LIG1        0.0280
     69 H           1.1458    4.1916   -0.2071 H       1  LIG1        0.0272
     70 H          -0.5174    3.8637    0.1687 H       1  LIG1        0.0272
     71 H           1.6173    1.9344   -0.8550 H       1  LIG1        0.0271
     72 H           0.2066    2.6106   -1.6595 H       1  LIG1        0.0271
     73 H           2.7463    2.0625    2.0100 H       1  LIG1        0.0237
     74 H           2.6088    3.4939    3.0098 H       1  LIG1        0.0237
     75 H           2.9770    3.6333    1.3017 H       1  LIG1        0.0237
     76 H          -1.6007    2.5288    3.3817 H       1  LIG1        0.0384
     77 H          -0.7554    1.1550    4.0971 H       1  LIG1        0.0384
     78 H          -0.0386    7.3227    3.4918 H       1  LIG1        0.0653
     79 H           1.6753    9.0562    2.1948 H       1  LIG1        0.1029
     80 H           2.5365    5.4735    0.5386 H       1  LIG1        0.1033
@<TRIPOS>BOND
     1     1     2    1
     2     2     3    1
     3     3     4    1
     4     3     5    1
     5     5     6    2
     6     6     7    1
     7     7     8    1
     8     7     9    1
     9     2     9    1
    10     9    10    2
    11     7    11    1
    12    11    13    1
    13    13    14    1
    14    14    15    1
    15     2    14    1
    16    14    16    1
    17    16    17    1
    18    17    18    2
    19    17    19    1
    20    19    20    1
    21    13    21    1
    22    13    22    1
    23    23    24    1
    24    24    25    2
    25    24    26    1
    26    26    27    2
    27    27    28    1
    28    26    29    1
    29     5    30    1
    30    30    31    1
    31    30    32    1
    32    32    33    1
    33    33    34    1
    34     3    34    1
    35    32    35    1
    36    32    36    1
    37    36    37    1
    38    36    38    1
    39    38    39    1
    40    39    40    2
    41    39    41    1
    42    30    41    1
    43    36    42    1
    44    42    43   ar
    45    43    44   ar
    46    44    45   ar
    47    45    46   ar
    48    42    46   ar
    49    11    23    1
    50    11    12    1
    51     1    47    1
    52     1    48    1
    53     1    49    1
    54     6    50    1
    55    16    51    1
    56    16    52    1
    57    20    53    1
    58    20    54    1
    59    20    55    1
    60    21    56    1
    61    21    57    1
    62    21    58    1
    63    22    59    1
    64    22    60    1
    65    22    61    1
    66    27    62    1
    67    28    63    1
    68    28    64    1
    69    28    65    1
    70    29    66    1
    71    29    67    1
    72    29    68    1
    73    33    69    1
    74    33    70    1
    75    34    71    1
    76    34    72    1
    77    35    73    1
    78    35    74    1
    79    35    75    1
    80    41    76    1
    81    41    77    1
    82    43    78    1
    83    44    79    1
    84    46    80    1
