@<TRIPOS>MOLECULE
NuBBE_75
 79 83 0 0 0
SMALL
GASTEIGER

@<TRIPOS>ATOM
      1 C           1.2708    2.4497    0.9416 C.3     1  LIG1       -0.0590
      2 C           1.8951    1.9857   -0.4061 C.3     1  LIG1       -0.0246
      3 C           1.5111    2.6192   -1.8222 C.3     1  LIG1       -0.0235
      4 C           1.5206    4.1717   -1.8922 C.3     1  LIG1        0.0267
      5 C           1.2193    4.7287   -3.3052 C.3     1  LIG1       -0.0528
      6 C           3.0146    4.4786   -1.6168 C.2     1  LIG1        0.1392
      7 C           3.5676    3.9593   -0.3020 C.3     1  LIG1        0.0069
      8 C           3.4116    2.4264   -0.2519 C.3     1  LIG1       -0.0404
      9 O           3.7556    4.9363   -2.4478 O.2     1  LIG1       -0.2968
     10 C           0.4902    4.8318   -0.9627 C.3     1  LIG1       -0.0528
     11 H           2.3425    2.3127   -2.4820 H       1  LIG1        0.0315
     12 C           0.3384    1.9915   -2.5425 C.3     1  LIG1       -0.0483
     13 C           0.5606    0.4551   -2.6936 C.3     1  LIG1       -0.0465
     14 C           0.3069   -0.2032   -1.2910 C.3     1  LIG1       -0.0228
     15 C           1.6910    0.4055   -0.4842 C.3     1  LIG1       -0.0294
     16 H           2.4697    0.1314   -1.2122 H       1  LIG1        0.0312
     17 C           2.3219   -0.3319    0.7844 C.3     1  LIG1       -0.0486
     18 C           2.1836   -1.8841    0.8452 C.3     1  LIG1       -0.0457
     19 C           0.6814   -2.1685    0.6616 C.3     1  LIG1       -0.0135
     20 H           0.4937   -1.2065    1.0962 H       1  LIG1        0.0351
     21 C           0.3833   -1.8105   -1.0712 C.3     1  LIG1       -0.0199
     22 C          -0.8638   -2.5915   -1.5290 C.3     1  LIG1       -0.0458
     23 C          -1.4929   -3.1626   -0.3261 C.3     1  LIG1       -0.0434
     24 C          -1.8018   -2.1198    0.8057 C.3     1  LIG1       -0.0107
     25 C          -0.6681   -2.5685    1.6787 C.2     1  LIG1       -0.0634
     26 C          -1.1244   -2.8775    2.9418 C.2     1  LIG1       -0.0783
     27 C          -2.7435   -3.0860    3.2682 C.3     1  LIG1       -0.0166
     28 C          -3.6263   -1.8540    3.7356 C.3     1  LIG1       -0.0563
     29 C          -3.4061   -3.5300    1.9384 C.3     1  LIG1       -0.0436
     30 C          -3.2837   -2.3662    0.9990 C.3     1  LIG1       -0.0431
     31 C          -3.0118   -4.2214    4.2777 C.3     1  LIG1       -0.0563
     32 C          -1.6273   -0.5657    1.2218 C.3     1  LIG1       -0.0558
     33 C           1.4452   -2.3424   -2.0766 C.3     1  LIG1       -0.0585
     34 C          -1.2655    0.1842   -1.3280 C.3     1  LIG1       -0.0588
     35 H           1.2776    3.5256    1.1153 H       1  LIG1        0.0235
     36 H           1.8901    2.0977    1.7825 H       1  LIG1        0.0235
     37 H           0.2652    2.0634    1.1091 H       1  LIG1        0.0235
     38 H           1.8101    4.2264   -4.0775 H       1  LIG1        0.0239
     39 H           1.4519    5.8000   -3.3504 H       1  LIG1        0.0239
     40 H           0.1608    4.6248   -3.5736 H       1  LIG1        0.0239
     41 H           3.0648    4.4760    0.5178 H       1  LIG1        0.0342
     42 H           4.6257    4.2374   -0.2462 H       1  LIG1        0.0342
     43 H           3.8555    2.0685    0.6834 H       1  LIG1        0.0275
     44 H           4.0059    1.9791   -1.0610 H       1  LIG1        0.0275
     45 H          -0.4122    5.1337   -1.5085 H       1  LIG1        0.0239
     46 H           0.8882    5.7136   -0.4547 H       1  LIG1        0.0239
     47 H           0.0759    4.1558   -0.2191 H       1  LIG1        0.0239
     48 H           0.1975    2.3991   -3.5454 H       1  LIG1        0.0269
     49 H          -0.5512    2.3158   -2.0027 H       1  LIG1        0.0269
     50 H           1.5641    0.2595   -3.0812 H       1  LIG1        0.0271
     51 H          -0.1070    0.0692   -3.4746 H       1  LIG1        0.0271
     52 H           1.8692    0.0576    1.7044 H       1  LIG1        0.0268
     53 H           3.3858   -0.0802    0.8565 H       1  LIG1        0.0268
     54 H           2.6072   -2.2821    1.7709 H       1  LIG1        0.0271
     55 H           2.7882   -2.3068    0.0333 H       1  LIG1        0.0271
     56 H          -0.6182   -3.4407   -2.1825 H       1  LIG1        0.0271
     57 H          -1.6117   -2.0465   -2.1010 H       1  LIG1        0.0271
     58 H          -0.8309   -3.9930    0.0140 H       1  LIG1        0.0274
     59 H          -2.3592   -3.7641   -0.6275 H       1  LIG1        0.0274
     60 H          -0.4565   -2.9677    3.7952 H       1  LIG1        0.0577
     61 H          -3.2045   -0.8784    3.4918 H       1  LIG1        0.0238
     62 H          -3.8825   -1.8527    4.7979 H       1  LIG1        0.0238
     63 H          -4.6194   -1.8858    3.2450 H       1  LIG1        0.0238
     64 H          -4.4644   -3.7910    2.0358 H       1  LIG1        0.0274
     65 H          -2.9002   -4.4238    1.5497 H       1  LIG1        0.0274
     66 H          -3.7973   -1.4677    1.3499 H       1  LIG1        0.0274
     67 H          -3.7832   -2.5393    0.0381 H       1  LIG1        0.0274
     68 H          -3.5276   -3.8598    5.1763 H       1  LIG1        0.0238
     69 H          -2.0952   -4.7101    4.6046 H       1  LIG1        0.0238
     70 H          -3.6774   -4.9855    3.8557 H       1  LIG1        0.0238
     71 H          -0.7527   -0.0265    0.8598 H       1  LIG1        0.0238
     72 H          -1.4960   -0.4353    2.3087 H       1  LIG1        0.0238
     73 H          -2.4780    0.0719    0.9774 H       1  LIG1        0.0238
     74 H           1.6527   -3.4060   -1.9273 H       1  LIG1        0.0235
     75 H           2.3874   -1.7964   -2.0788 H       1  LIG1        0.0235
     76 H           1.0456   -2.2429   -3.1009 H       1  LIG1        0.0235
     77 H          -1.5642    1.1833   -1.0181 H       1  LIG1        0.0235
     78 H          -1.9633   -0.4849   -0.8500 H       1  LIG1        0.0235
     79 H          -1.6761    0.0315   -2.3449 H       1  LIG1        0.0235
@<TRIPOS>BOND
     1     1     2    1
     2     2     3    1
     3     3     4    1
     4     4     5    1
     5     4     6    1
     6     6     7    1
     7     7     8    1
     8     2     8    1
     9     6     9    2
    10     4    10    1
    11     3    11    1
    12     3    12    1
    13    12    13    1
    14    13    14    1
    15    14    15    1
    16    15    16    1
    17     2    15    1
    18    15    17    1
    19    17    18    1
    20    18    19    1
    21    19    20    1
    22    19    21    1
    23    21    22    1
    24    22    23    1
    25    23    24    1
    26    24    25    1
    27    19    25    1
    28    25    26    2
    29    26    27    1
    30    27    28    1
    31    27    29    1
    32    29    30    1
    33    27    31    1
    34    30    24    1
    35    24    32    1
    36    14    21    1
    37    21    33    1
    38    14    34    1
    39     1    35    1
    40     1    36    1
    41     1    37    1
    42     5    38    1
    43     5    39    1
    44     5    40    1
    45     7    41    1
    46     7    42    1
    47     8    43    1
    48     8    44    1
    49    10    45    1
    50    10    46    1
    51    10    47    1
    52    12    48    1
    53    12    49    1
    54    13    50    1
    55    13    51    1
    56    17    52    1
    57    17    53    1
    58    18    54    1
    59    18    55    1
    60    22    56    1
    61    22    57    1
    62    23    58    1
    63    23    59    1
    64    26    60    1
    65    28    61    1
    66    28    62    1
    67    28    63    1
    68    29    64    1
    69    29    65    1
    70    30    66    1
    71    30    67    1
    72    31    68    1
    73    31    69    1
    74    31    70    1
    75    32    71    1
    76    32    72    1
    77    32    73    1
    78    33    74    1
    79    33    75    1
    80    33    76    1
    81    34    77    1
    82    34    78    1
    83    34    79    1
