REMARK  Name = NuBBE_1676
REMARK  16 active torsions:
REMARK  status: ('A' for Active; 'I' for Inactive)
REMARK    1  A    between atoms: C_1  and  C_2
REMARK    2  A    between atoms: C_2  and  C_3
REMARK    3  A    between atoms: C_3  and  C_4
REMARK    4  A    between atoms: C_4  and  C_5
REMARK    5  A    between atoms: C_5  and  C_6
REMARK    6  A    between atoms: C_6  and  C_7
REMARK    7  A    between atoms: C_7  and  C_8
REMARK    8  A    between atoms: C_8  and  C_9
REMARK    9  A    between atoms: C_9  and  C_10
REMARK   10  A    between atoms: C_10  and  C_11
REMARK   11  A    between atoms: C_11  and  C_12
REMARK   12  A    between atoms: C_12  and  C_13
REMARK   13  A    between atoms: C_13  and  C_14
REMARK   14  A    between atoms: C_14  and  C_15
REMARK   15  A    between atoms: C_15  and  C_16
REMARK   16  A    between atoms: C_20  and  O_21
REMARK                            x       y       z     vdW  Elec       q    Type
REMARK                         _______ _______ _______ _____ _____    ______ ____
ROOT
ATOM      1  C   LIG A   1       2.513  -1.652   2.287  0.00  0.00    +0.000 C 
ENDROOT
BRANCH   1   2
ATOM      2  C   LIG A   1       3.910  -1.356   1.673  0.00  0.00    -0.000 C 
BRANCH   2   3
ATOM      3  C   LIG A   1       4.261   0.095   1.214  0.00  0.00    -0.000 C 
BRANCH   3   4
ATOM      4  C   LIG A   1       3.660   0.711  -0.101  0.00  0.00    -0.000 C 
BRANCH   4   5
ATOM      5  C   LIG A   1       2.157   1.021  -0.093  0.00  0.00    -0.000 C 
BRANCH   5   6
ATOM      6  C   LIG A   1       1.409   1.724  -1.212  0.00  0.00    -0.000 C 
BRANCH   6   7
ATOM      7  C   LIG A   1      -0.136   1.886  -1.007  0.00  0.00    -0.000 C 
BRANCH   7   8
ATOM      8  C   LIG A   1      -0.634   2.550   0.281  0.00  0.00    -0.000 C 
BRANCH   8   9
ATOM      9  C   LIG A   1      -2.169   2.734   0.366  0.00  0.00    -0.000 C 
BRANCH   9  10
ATOM     10  C   LIG A   1      -3.047   1.492   0.607  0.00  0.00    -0.000 C 
BRANCH  10  12
ATOM     11  C   LIG A   1      -4.893   2.782   1.832  0.00  0.00    +0.004 C 
ATOM     12  C   LIG A   1      -4.547   1.830   0.696  0.00  0.00    -0.003 C 
ENDBRANCH  10  12
ENDBRANCH   9  10
ENDBRANCH   8   9
ENDBRANCH   7   8
ENDBRANCH   6   7
ENDBRANCH   5   6
ENDBRANCH   4   5
ENDBRANCH   3   4
ENDBRANCH   2   3
ENDBRANCH   1   2
BRANCH   1  13
ATOM     13  C   LIG A   1       1.422  -1.389   1.290  0.00  0.00    +0.000 C 
BRANCH  13  14
ATOM     14  C   LIG A   1      -0.058  -1.594   1.518  0.00  0.00    +0.005 C 
BRANCH  14  15
ATOM     15  C   LIG A   1      -0.914  -1.194   0.304  0.00  0.00    +0.035 C 
BRANCH  15  16
ATOM     16  C   LIG A   1      -0.667  -1.848  -1.036  0.00  0.00    -0.044 A 
ATOM     17  C   LIG A   1      -0.859  -3.240  -1.008  0.00  0.00    +0.004 A 
ATOM     18  C   LIG A   1      -0.630  -4.010  -2.147  0.00  0.00    +0.004 A 
ATOM     19  C   LIG A   1      -0.195  -3.469  -3.343  0.00  0.00    +0.045 A 
ATOM     20  C   LIG A   1      -0.031  -2.062  -3.388  0.00  0.00    +0.117 A 
ATOM     21  C   LIG A   1      -0.299  -1.303  -2.263  0.00  0.00    +0.049 A 
BRANCH  20  22
ATOM     22  O   LIG A   1       0.413  -1.474  -4.525  0.00  0.00    -0.507 OA
ATOM     23  H   LIG A   1       0.765  -2.147  -5.129  0.00  0.00    +0.292 HD
ENDBRANCH  20  22
ENDBRANCH  15  16
ENDBRANCH  14  15
ENDBRANCH  13  14
ENDBRANCH   1  13
TORSDOF 15
