REMARK  Name = NuBBE_543
REMARK  19 active torsions:
REMARK  status: ('A' for Active; 'I' for Inactive)
REMARK    1  A    between atoms: C_1  and  C_2
REMARK    2  A    between atoms: C_2  and  C_58
REMARK    3  A    between atoms: C_5  and  C_39
REMARK    4  A    between atoms: C_8  and  C_38
REMARK    5  A    between atoms: C_9  and  C_37
REMARK    6  A    between atoms: C_14  and  C_15
REMARK    7  A    between atoms: C_14  and  C_36
REMARK    8  A    between atoms: C_15  and  O_16
REMARK    9  A    between atoms: C_17  and  O_35
REMARK   10  A    between atoms: C_19  and  O_34
REMARK   11  A    between atoms: C_22  and  C_33
REMARK   12  A    between atoms: C_30  and  O_32
REMARK   13  A    between atoms: C_39  and  O_40
REMARK   14  A    between atoms: O_40  and  C_41
REMARK   15  A    between atoms: C_44  and  C_52
REMARK   16  A    between atoms: C_46  and  O_51
REMARK   17  A    between atoms: C_48  and  O_50
REMARK   18  A    between atoms: C_52  and  O_53
REMARK   19  A    between atoms: C_54  and  O_56
REMARK                            x       y       z     vdW  Elec       q    Type
REMARK                         _______ _______ _______ _____ _____    ______ ____
ROOT
ATOM      1  C   LIG A   1      -3.829  -4.037   3.180  0.00  0.00    +0.013 C 
ATOM      2  C   LIG A   1      -2.918  -2.805   3.379  0.00  0.00    -0.008 C 
ATOM      3  C   LIG A   1      -3.790  -1.529   3.332  0.00  0.00    +0.010 C 
ATOM      4  C   LIG A   1      -2.993  -0.220   3.255  0.00  0.00    +0.019 C 
ATOM      5  C   LIG A   1      -1.971  -0.182   2.090  0.00  0.00    +0.077 C 
ATOM      6  C   LIG A   1      -1.095   1.077   2.243  0.00  0.00    +0.019 C 
ATOM      7  C   LIG A   1      -0.106   1.175   1.087  0.00  0.00    +0.012 C 
ATOM      8  C   LIG A   1       0.848  -0.044   0.919  0.00  0.00    -0.005 C 
ATOM      9  C   LIG A   1       1.275  -0.246  -0.625  0.00  0.00    -0.019 C 
ATOM     10  C   LIG A   1       1.569   1.098  -1.356  0.00  0.00    +0.008 C 
ATOM     11  C   LIG A   1       3.010   1.434  -1.646  0.00  0.00    +0.005 C 
ATOM     12  C   LIG A   1       3.715   0.230  -2.273  0.00  0.00    +0.006 C 
ATOM     13  C   LIG A   1       4.959   0.635  -3.141  0.00  0.00    +0.023 C 
ATOM     14  C   LIG A   1       5.705  -0.640  -3.612  0.00  0.00    +0.151 C 
ATOM     15  C   LIG A   1       5.960  -1.659  -2.496  0.00  0.00    +0.144 C 
ATOM     16  C   LIG A   1       4.653  -2.086  -1.822  0.00  0.00    +0.041 C 
ATOM     17  C   LIG A   1       3.875  -0.897  -1.186  0.00  0.00    -0.022 C 
ATOM     18  C   LIG A   1       2.394  -1.367  -0.798  0.00  0.00    +0.006 C 
ATOM     19  C   LIG A   1       2.275  -2.491   0.276  0.00  0.00    +0.031 C 
ATOM     20  C   LIG A   1       0.991  -2.496   1.083  0.00  0.00    -0.026 C 
ATOM     21  C   LIG A   1       0.269  -1.390   1.385  0.00  0.00    -0.060 C 
ATOM     22  C   LIG A   1      -1.014  -1.419   2.238  0.00  0.00    +0.061 C 
ATOM     23  C   LIG A   1      -1.790  -2.780   2.302  0.00  0.00    +0.128 C 
ATOM     24  C   LIG A   1       4.690  -0.455   0.050  0.00  0.00    +0.012 C 
ATOM     25  C   LIG A   1       5.904   1.622  -2.418  0.00  0.00    +0.016 C 
ATOM     26  C   LIG A   1       0.023  -0.821  -1.423  0.00  0.00    +0.012 C 
ATOM     27  C   LIG A   1       2.027   0.292   1.870  0.00  0.00    +0.016 C 
ATOM     28  C   LIG A   1      -2.283  -2.945   4.783  0.00  0.00    +0.013 C 
ENDROOT
BRANCH  23  29
ATOM     29  O   LIG A   1      -2.283  -3.175   1.024  0.00  0.00    -0.391 OA
ATOM     30  H   LIG A   1      -2.950  -2.529   0.718  0.00  0.00    +0.210 HD
ENDBRANCH  23  29
BRANCH  15  31
ATOM     31  O   LIG A   1       6.580  -2.815  -3.072  0.00  0.00    -0.389 OA
ATOM     32  H   LIG A   1       7.276  -2.450  -3.656  0.00  0.00    +0.210 HD
ENDBRANCH  15  31
BRANCH  14  33
ATOM     33  O   LIG A   1       6.967  -0.328  -4.221  0.00  0.00    -0.389 OA
ATOM     34  H   LIG A   1       6.786   0.422  -4.831  0.00  0.00    +0.210 HD
ENDBRANCH  14  33
BRANCH   5  35
ATOM     35  C   LIG A   1      -2.773  -0.087   0.772  0.00  0.00    +0.316 C 
ATOM     36  O   LIG A   1      -3.305  -1.062   0.220  0.00  0.00    -0.250 OA
BRANCH  35  37
ATOM     37  O   LIG A   1      -2.925   1.183   0.326  0.00  0.00    -0.432 OA
BRANCH  37  38
ATOM     38  C   LIG A   1      -3.629   1.476  -0.909  0.00  0.00    +0.342 C 
ATOM     39  O   LIG A   1      -3.664   2.930  -1.028  0.00  0.00    -0.331 OA
ATOM     40  C   LIG A   1      -4.830   3.559  -0.454  0.00  0.00    +0.179 C 
ATOM     41  C   LIG A   1      -5.331   2.737   0.738  0.00  0.00    +0.177 C 
ATOM     42  C   LIG A   1      -5.928   1.443   0.151  0.00  0.00    +0.180 C 
ATOM     43  C   LIG A   1      -5.048   0.857  -0.967  0.00  0.00    +0.214 C 
BRANCH  42  44
ATOM     44  O   LIG A   1      -6.084   0.466   1.187  0.00  0.00    -0.386 OA
ATOM     45  H   LIG A   1      -6.282   0.953   2.008  0.00  0.00    +0.210 HD
ENDBRANCH  42  44
BRANCH  41  46
ATOM     46  O   LIG A   1      -6.316   3.385   1.538  0.00  0.00    -0.387 OA
ATOM     47  H   LIG A   1      -5.853   4.062   2.070  0.00  0.00    +0.210 HD
ENDBRANCH  41  46
BRANCH  43  48
ATOM     48  O   LIG A   1      -5.657   1.098  -2.247  0.00  0.00    -0.383 OA
ATOM     49  H   LIG A   1      -6.418   0.490  -2.298  0.00  0.00    +0.210 HD
ENDBRANCH  43  48
BRANCH  40  50
ATOM     50  C   LIG A   1      -4.525   5.025  -0.112  0.00  0.00    +0.190 C 
BRANCH  50  51
ATOM     51  O   LIG A   1      -3.502   5.160   0.872  0.00  0.00    -0.392 OA
ATOM     52  H   LIG A   1      -2.980   4.338   0.875  0.00  0.00    +0.209 HD
ENDBRANCH  50  51
ENDBRANCH  40  50
ENDBRANCH  37  38
ENDBRANCH  35  37
ENDBRANCH   5  35
BRANCH  13  53
ATOM     53  C   LIG A   1       4.442   1.358  -4.432  0.00  0.00    +0.165 C 
BRANCH  53  54
ATOM     54  O   LIG A   1       5.524   1.712  -5.292  0.00  0.00    -0.394 OA
ATOM     55  H   LIG A   1       5.156   2.309  -5.970  0.00  0.00    +0.209 HD
ENDBRANCH  53  54
ENDBRANCH  13  53
TORSDOF 13
