@<TRIPOS>MOLECULE
NuBBE_1303
 53 55 0 0 0
SMALL
GASTEIGER

@<TRIPOS>ATOM
      1 O          -1.7896    0.9064    0.7009 O.2     1  LIG1       -0.2870
      2 C          -0.6279    0.6662    0.3489 C.2     1  LIG1        0.1931
      3 C          -0.1475   -0.7433    0.2229 C.2     1  LIG1       -0.0135
      4 C          -0.9466   -1.7968    0.4238 C.2     1  LIG1       -0.0508
      5 C          -0.5042   -3.1824    0.1840 C.ar    1  LIG1       -0.0212
      6 C           0.8193   -3.6042    0.3401 C.ar    1  LIG1       -0.0509
      7 C           1.1748   -4.9327    0.0885 C.ar    1  LIG1       -0.0157
      8 C           0.2212   -5.8647   -0.3387 C.ar    1  LIG1        0.1615
      9 C          -1.1119   -5.4539   -0.4975 C.ar    1  LIG1        0.1620
     10 O          -2.0561   -6.3806   -0.8518 O.3     1  LIG1       -0.4914
     11 C          -3.1690   -5.8956   -1.5946 C.3     1  LIG1        0.0790
     12 C          -1.4603   -4.1237   -0.2121 C.ar    1  LIG1       -0.0092
     13 O           0.7325   -7.1250   -0.5197 O.3     1  LIG1       -0.4915
     14 C           0.0861   -7.9485   -1.4826 C.3     1  LIG1        0.0790
     15 C           0.3446    1.7582    0.0166 C.ar    1  LIG1        0.1054
     16 C           0.3050    2.9779    0.7311 C.ar    1  LIG1        0.1467
     17 O          -0.6191    3.1261    1.7373 O.3     1  LIG1       -0.4807
     18 C          -1.0598    4.4688    2.0290 C.3     1  LIG1        0.1235
     19 C          -2.1702    4.8583    1.0430 C.3     1  LIG1       -0.0215
     20 C           0.0652    5.4721    1.9686 C.2     1  LIG1       -0.0408
     21 C           1.1617    5.2483    1.2371 C.2     1  LIG1       -0.0478
     22 C           1.2351    4.0070    0.4593 C.ar    1  LIG1        0.0591
     23 C           2.2126    3.8250   -0.5357 C.ar    1  LIG1        0.1342
     24 C           2.2340    2.6324   -1.2593 C.ar    1  LIG1        0.0231
     25 C           1.3009    1.6258   -0.9956 C.ar    1  LIG1        0.1347
     26 O           1.3303    0.5146   -1.7990 O.3     1  LIG1       -0.5058
     27 O           3.0845    4.8638   -0.7492 O.3     1  LIG1       -0.4943
     28 C           4.0792    4.6937   -1.7516 C.3     1  LIG1        0.0788
     29 C          -1.6300    4.4152    3.4509 C.3     1  LIG1       -0.0215
     30 H           0.8758   -0.8895   -0.0827 H       1  LIG1        0.0656
     31 H          -1.9880   -1.6524    0.7124 H       1  LIG1        0.0625
     32 H           1.5941   -2.9144    0.6632 H       1  LIG1        0.0625
     33 H           2.2104   -5.2404    0.2166 H       1  LIG1        0.0655
     34 H          -3.7612   -6.7607   -1.9062 H       1  LIG1        0.0660
     35 H          -2.8425   -5.3652   -2.4959 H       1  LIG1        0.0660
     36 H          -3.8185   -5.2683   -0.9780 H       1  LIG1        0.0660
     37 H          -2.4925   -3.7978   -0.2872 H       1  LIG1        0.0661
     38 H           0.6889   -8.8533   -1.6088 H       1  LIG1        0.0660
     39 H           0.0262   -7.4467   -2.4543 H       1  LIG1        0.0660
     40 H          -0.8935   -8.2885   -1.1393 H       1  LIG1        0.0660
     41 H          -1.7995    4.8732    0.0109 H       1  LIG1        0.0271
     42 H          -2.5824    5.8490    1.2650 H       1  LIG1        0.0271
     43 H          -2.9860    4.1274    1.0657 H       1  LIG1        0.0271
     44 H          -0.0435    6.4098    2.5058 H       1  LIG1        0.0611
     45 H           1.9622    5.9764    1.1694 H       1  LIG1        0.0624
     46 H           2.9638    2.4726   -2.0437 H       1  LIG1        0.0691
     47 H           2.0617    0.5726   -2.4359 H       1  LIG1        0.2922
     48 H           4.6452    5.6264   -1.8273 H       1  LIG1        0.0660
     49 H           3.6289    4.5018   -2.7314 H       1  LIG1        0.0660
     50 H           4.7777    3.8970   -1.4743 H       1  LIG1        0.0660
     51 H          -2.3785    3.6187    3.5386 H       1  LIG1        0.0271
     52 H          -2.0984    5.3618    3.7423 H       1  LIG1        0.0271
     53 H          -0.8451    4.1821    4.1805 H       1  LIG1        0.0271
@<TRIPOS>BOND
     1     1     2    2
     2     2     3    1
     3     3     4    2
     4     4     5    1
     5     5     6   ar
     6     6     7   ar
     7     7     8   ar
     8     8     9   ar
     9     9    10    1
    10    10    11    1
    11     9    12   ar
    12     5    12   ar
    13     8    13    1
    14    13    14    1
    15     2    15    1
    16    15    16   ar
    17    16    17    1
    18    17    18    1
    19    18    19    1
    20    18    20    1
    21    20    21    2
    22    21    22    1
    23    16    22   ar
    24    22    23   ar
    25    23    24   ar
    26    24    25   ar
    27    15    25   ar
    28    25    26    1
    29    23    27    1
    30    27    28    1
    31    18    29    1
    32     3    30    1
    33     4    31    1
    34     6    32    1
    35     7    33    1
    36    11    34    1
    37    11    35    1
    38    11    36    1
    39    12    37    1
    40    14    38    1
    41    14    39    1
    42    14    40    1
    43    19    41    1
    44    19    42    1
    45    19    43    1
    46    20    44    1
    47    21    45    1
    48    24    46    1
    49    26    47    1
    50    28    48    1
    51    28    49    1
    52    28    50    1
    53    29    51    1
    54    29    52    1
    55    29    53    1
