@<TRIPOS>MOLECULE
NuBBE_1172
 28 31 0 0 0
SMALL
GASTEIGER

@<TRIPOS>ATOM
      1 O          -3.6133    0.6914   -0.0003 O.2     1  LIG1       -0.2445
      2 C          -2.3897    0.6613    0.0002 C.ar    1  LIG1        0.3454
      3 O          -1.6266    1.8320    0.0007 O.2     1  LIG1       -0.4178
      4 C          -1.6475   -0.6255    0.0004 C.ar    1  LIG1        0.0744
      5 C          -2.3503   -1.8408    0.0001 C.ar    1  LIG1       -0.0017
      6 C          -1.6349   -3.0356    0.0000 C.ar    1  LIG1        0.1628
      7 O          -2.2627   -4.2504   -0.0000 O.3     1  LIG1       -0.5032
      8 C          -0.2401   -3.0311    0.0001 C.ar    1  LIG1        0.2022
      9 O           0.4381   -4.2151   -0.0004 O.3     1  LIG1       -0.5009
     10 C           0.4430   -1.8219    0.0005 C.ar    1  LIG1        0.1854
     11 C          -0.2505   -0.6168    0.0007 C.ar    1  LIG1        0.0468
     12 C           0.4795    0.6180    0.0008 C.ar    1  LIG1        0.0468
     13 C          -0.2154    1.8228    0.0006 C.ar    1  LIG1        0.1854
     14 C           0.4609    3.0354   -0.0003 C.ar    1  LIG1        0.2022
     15 O          -0.1928    4.2348   -0.0004 O.3     1  LIG1       -0.5009
     16 C           1.8525    3.0377   -0.0011 C.ar    1  LIG1        0.1628
     17 O           2.5338    4.2200   -0.0032 O.3     1  LIG1       -0.5032
     18 C           2.5709    1.8462   -0.0002 C.ar    1  LIG1       -0.0017
     19 C           1.8768    0.6284    0.0007 C.ar    1  LIG1        0.0744
     20 C           2.6236   -0.6556    0.0013 C.ar    1  LIG1        0.3454
     21 O           1.8555   -1.8206    0.0009 O.2     1  LIG1       -0.4178
     22 O           3.8473   -0.6823    0.0021 O.2     1  LIG1       -0.2445
     23 H          -3.4374   -1.8380   -0.0002 H       1  LIG1        0.0664
     24 H          -3.2266   -4.1111    0.0017 H       1  LIG1        0.2923
     25 H          -0.2489   -4.9106   -0.0011 H       1  LIG1        0.2924
     26 H          -1.1506    4.0420    0.0023 H       1  LIG1        0.2924
     27 H           1.8470    4.9169   -0.0052 H       1  LIG1        0.2923
     28 H           3.6585    1.8685   -0.0006 H       1  LIG1        0.0664
@<TRIPOS>BOND
     1     1     2    2
     2     2     3   ar
     3     2     4   ar
     4     4     5   ar
     5     5     6   ar
     6     6     7    1
     7     6     8   ar
     8     8     9    1
     9     8    10   ar
    10    10    11   ar
    11     4    11   ar
    12    11    12   ar
    13    12    13   ar
    14     3    13   ar
    15    13    14   ar
    16    14    15    1
    17    14    16   ar
    18    16    17    1
    19    16    18   ar
    20    18    19   ar
    21    12    19   ar
    22    19    20   ar
    23    20    21   ar
    24    10    21   ar
    25    20    22    2
    26     5    23    1
    27     7    24    1
    28     9    25    1
    29    15    26    1
    30    17    27    1
    31    18    28    1
