@<TRIPOS>MOLECULE
NuBBE_1077
 41 43 0 0 0
SMALL
GASTEIGER

@<TRIPOS>ATOM
      1 C          -2.2471    1.3825    1.1082 C.3     1  LIG1        0.0126
      2 N          -1.1635    1.4324    0.0940 N.ar    1  LIG1       -0.3369
      3 C          -0.4075    0.2085    0.0322 C.ar    1  LIG1        0.1027
      4 C           0.9914    0.2639    0.1749 C.ar    1  LIG1        0.0946
      5 C           1.6615    1.5820    0.2737 C.ar    1  LIG1        0.2010
      6 O           2.8733    1.6433    0.4093 O.2     1  LIG1       -0.2864
      7 C           1.7676   -0.9054    0.2569 C.ar    1  LIG1        0.1755
      8 O           3.1150   -0.8411    0.5248 O.3     1  LIG1       -0.5027
      9 C           1.1741   -2.1612    0.0888 C.ar    1  LIG1        0.2079
     10 O           1.8262   -3.3417    0.3417 O.3     1  LIG1       -0.4884
     11 C           3.1686   -3.4469   -0.1155 C.3     1  LIG1        0.0791
     12 C          -0.1934   -2.2405   -0.2365 C.ar    1  LIG1        0.2094
     13 O          -0.8241   -3.3985   -0.6224 O.3     1  LIG1       -0.4884
     14 C          -0.0730   -4.5210   -1.0552 C.3     1  LIG1        0.0791
     15 C          -1.0021   -1.0703   -0.1957 C.ar    1  LIG1        0.1897
     16 O          -2.3652   -1.0661   -0.4316 O.3     1  LIG1       -0.4895
     17 C          -3.1088   -2.2611   -0.1798 C.3     1  LIG1        0.0791
     18 C          -0.5255    2.7107    0.0643 C.ar    1  LIG1        0.0950
     19 C           0.8647    2.8128    0.1698 C.ar    1  LIG1        0.0495
     20 C           1.5247    4.0527    0.1866 C.ar    1  LIG1       -0.0487
     21 C           0.7904    5.2306    0.0917 C.ar    1  LIG1       -0.0575
     22 C          -0.5917    5.1632   -0.0536 C.ar    1  LIG1       -0.0181
     23 C          -1.2280    3.9192   -0.0952 C.ar    1  LIG1        0.1409
     24 O          -2.5684    3.9278   -0.3736 O.3     1  LIG1       -0.5047
     25 H          -2.2895    0.4348    1.6574 H       1  LIG1        0.0456
     26 H          -3.2210    1.5307    0.6294 H       1  LIG1        0.0456
     27 H          -2.1253    2.1557    1.8800 H       1  LIG1        0.0456
     28 H           3.3893    0.1047    0.5322 H       1  LIG1        0.2923
     29 H           3.8605   -3.1922    0.6920 H       1  LIG1        0.0660
     30 H           3.3576   -2.8524   -1.0154 H       1  LIG1        0.0660
     31 H           3.3385   -4.4958   -0.3766 H       1  LIG1        0.0660
     32 H           0.2382   -5.1224   -0.1952 H       1  LIG1        0.0660
     33 H           0.7715   -4.2414   -1.6918 H       1  LIG1        0.0660
     34 H          -0.7388   -5.1427   -1.6608 H       1  LIG1        0.0660
     35 H          -4.0527   -1.9786    0.2927 H       1  LIG1        0.0660
     36 H          -2.6372   -2.9543    0.5240 H       1  LIG1        0.0660
     37 H          -3.3402   -2.7617   -1.1277 H       1  LIG1        0.0660
     38 H           2.6085    4.0988    0.2711 H       1  LIG1        0.0625
     39 H           1.2976    6.1924    0.1063 H       1  LIG1        0.0619
     40 H          -1.1709    6.0760   -0.1670 H       1  LIG1        0.0655
     41 H          -2.7455    3.0723   -0.8080 H       1  LIG1        0.2922
@<TRIPOS>BOND
     1     1     2    1
     2     2     3   ar
     3     3     4   ar
     4     4     5   ar
     5     5     6    2
     6     4     7   ar
     7     7     8    1
     8     7     9   ar
     9     9    10    1
    10    10    11    1
    11     9    12   ar
    12    12    13    1
    13    13    14    1
    14    12    15   ar
    15     3    15   ar
    16    15    16    1
    17    16    17    1
    18     2    18   ar
    19    18    19   ar
    20     5    19   ar
    21    19    20   ar
    22    20    21   ar
    23    21    22   ar
    24    18    23   ar
    25    22    23   ar
    26    23    24    1
    27     1    25    1
    28     1    26    1
    29     1    27    1
    30     8    28    1
    31    11    29    1
    32    11    30    1
    33    11    31    1
    34    14    32    1
    35    14    33    1
    36    14    34    1
    37    17    35    1
    38    17    36    1
    39    17    37    1
    40    20    38    1
    41    21    39    1
    42    22    40    1
    43    24    41    1
