REMARK  Name = NuBBE_1482
REMARK  13 active torsions:
REMARK  status: ('A' for Active; 'I' for Inactive)
REMARK    1  A    between atoms: C_3  and  C_4
REMARK    2  A    between atoms: C_4  and  C_5
REMARK    3  A    between atoms: C_7  and  O_8
REMARK    4  A    between atoms: O_8  and  C_9
REMARK    5  A    between atoms: C_10  and  O_11
REMARK    6  A    between atoms: O_11  and  C_12
REMARK    7  A    between atoms: C_13  and  O_14
REMARK    8  A    between atoms: O_14  and  C_15
REMARK    9  A    between atoms: C_16  and  O_17
REMARK   10  A    between atoms: C_19  and  N_20
REMARK   11  A    between atoms: N_20  and  C_21
REMARK   12  A    between atoms: C_22  and  O_23
REMARK   13  A    between atoms: C_24  and  O_25
REMARK                            x       y       z     vdW  Elec       q    Type
REMARK                         _______ _______ _______ _____ _____    ______ ____
ROOT
ATOM      1  C   LIG A   1       0.159   0.229  -1.234  0.00  0.00    +0.199 C 
ATOM      2  O   LIG A   1       0.316  -0.322  -2.348  0.00  0.00    -0.286 OA
ENDROOT
BRANCH   1   4
ATOM      3  C   LIG A   1       0.233   2.456  -0.095  0.00  0.00    +0.017 A 
ATOM      4  C   LIG A   1       0.834   1.556  -1.004  0.00  0.00    +0.047 A 
ATOM      5  C   LIG A   1       1.998   1.966  -1.737  0.00  0.00    +0.084 A 
ATOM      6  C   LIG A   1       2.458   3.282  -1.505  0.00  0.00    +0.180 A 
ATOM      7  C   LIG A   1       1.896   4.114  -0.541  0.00  0.00    +0.160 A 
ATOM      8  C   LIG A   1       0.791   3.708   0.176  0.00  0.00    +0.050 A 
BRANCH   5   9
ATOM      9  N   LIG A   1       2.575   1.171  -2.753  0.00  0.00    -0.343 N 
ATOM     10  C   LIG A   1       4.017   1.177  -2.989  0.00  0.00    +0.125 C 
ATOM     11  H   LIG A   1       2.188   0.219  -2.718  0.00  0.00    +0.146 HD
ENDBRANCH   5   9
BRANCH   6  12
ATOM     12  O   LIG A   1       3.390   3.884  -2.319  0.00  0.00    -0.502 OA
ATOM     13  H   LIG A   1       3.176   3.519  -3.200  0.00  0.00    +0.292 HD
ENDBRANCH   6  12
BRANCH   7  14
ATOM     14  O   LIG A   1       2.382   5.379  -0.371  0.00  0.00    -0.503 OA
ATOM     15  H   LIG A   1       3.113   5.449  -1.020  0.00  0.00    +0.292 HD
ENDBRANCH   7  14
ENDBRANCH   1   4
BRANCH   1  16
ATOM     16  C   LIG A   1      -0.699  -0.524  -0.252  0.00  0.00    +0.071 A 
ATOM     17  C   LIG A   1      -1.764  -1.280  -0.767  0.00  0.00    +0.065 A 
ATOM     18  C   LIG A   1      -2.455  -2.199   0.032  0.00  0.00    +0.166 A 
ATOM     19  C   LIG A   1      -2.091  -2.384   1.383  0.00  0.00    +0.207 A 
ATOM     20  C   LIG A   1      -1.066  -1.589   1.948  0.00  0.00    +0.208 A 
ATOM     21  C   LIG A   1      -0.397  -0.652   1.109  0.00  0.00    +0.173 A 
BRANCH  18  22
ATOM     22  O   LIG A   1      -3.522  -2.944  -0.421  0.00  0.00    -0.491 OA
ATOM     23  C   LIG A   1      -3.522  -3.264  -1.807  0.00  0.00    +0.277 C 
ENDBRANCH  18  22
BRANCH  19  24
ATOM     24  O   LIG A   1      -2.606  -3.525   1.963  0.00  0.00    -0.488 OA
ATOM     25  C   LIG A   1      -3.255  -3.433   3.222  0.00  0.00    +0.277 C 
ENDBRANCH  19  24
BRANCH  20  26
ATOM     26  O   LIG A   1      -0.761  -1.833   3.269  0.00  0.00    -0.488 OA
ATOM     27  C   LIG A   1       0.280  -1.071   3.874  0.00  0.00    +0.277 C 
ENDBRANCH  20  26
BRANCH  21  28
ATOM     28  O   LIG A   1       0.620   0.126   1.593  0.00  0.00    -0.503 OA
ATOM     29  H   LIG A   1       0.199   0.942   1.919  0.00  0.00    +0.292 HD
ENDBRANCH  21  28
ENDBRANCH   1  16
TORSDOF 9
