@<TRIPOS>MOLECULE
NuBBE_293
 35 37 0 0 0
SMALL
GASTEIGER

@<TRIPOS>ATOM
      1 O          -3.4929    2.5809    0.5785 O.3     1  LIG1       -0.5058
      2 C          -2.1374    2.4361    0.4474 C.ar    1  LIG1        0.1343
      3 C          -1.5227    1.2029    0.2094 C.ar    1  LIG1        0.1007
      4 C          -2.3047   -0.0362    0.0488 C.2     1  LIG1        0.1740
      5 C          -1.5503   -1.2696   -0.3643 C.3     1  LIG1        0.0520
      6 C          -0.1534   -1.2111    0.2392 C.3     1  LIG1        0.1322
      7 C           0.6734   -2.4185   -0.1769 C.ar    1  LIG1       -0.0067
      8 C           1.4298   -2.4111   -1.3625 C.ar    1  LIG1       -0.0516
      9 C           2.2052   -3.5146   -1.7282 C.ar    1  LIG1       -0.0198
     10 C           2.2175   -4.6403   -0.9142 C.ar    1  LIG1        0.1169
     11 O           2.9653   -5.7362   -1.2282 O.3     1  LIG1       -0.5068
     12 C           1.4637   -4.6804    0.2520 C.ar    1  LIG1       -0.0198
     13 C           0.6909   -3.5750    0.6200 C.ar    1  LIG1       -0.0516
     14 O           0.5439   -0.0229   -0.1748 O.3     1  LIG1       -0.4828
     15 O          -3.5245   -0.0094    0.1838 O.2     1  LIG1       -0.2917
     16 C          -0.1392    1.1365    0.0701 C.ar    1  LIG1        0.1389
     17 C           0.6223    2.3036    0.1431 C.ar    1  LIG1        0.0227
     18 C           0.0126    3.5354    0.4020 C.ar    1  LIG1        0.1271
     19 O           0.8683    4.6009    0.4671 O.3     1  LIG1       -0.4949
     20 C           0.3692    5.7689    1.1107 C.3     1  LIG1        0.0788
     21 C          -1.3740    3.5997    0.5473 C.ar    1  LIG1        0.0225
     22 H          -3.9083    1.6952    0.4698 H       1  LIG1        0.2922
     23 H          -1.5270   -1.2938   -1.4595 H       1  LIG1        0.0385
     24 H          -2.0911   -2.1515   -0.0016 H       1  LIG1        0.0385
     25 H          -0.2056   -1.1915    1.3377 H       1  LIG1        0.0789
     26 H           1.4335   -1.5324   -2.0051 H       1  LIG1        0.0623
     27 H           2.7919   -3.4713   -2.6404 H       1  LIG1        0.0654
     28 H           3.4415   -5.5596   -2.0563 H       1  LIG1        0.2921
     29 H           1.4836   -5.5691    0.8771 H       1  LIG1        0.0654
     30 H           0.1127   -3.6253    1.5401 H       1  LIG1        0.0623
     31 H           1.7014    2.2542    0.0156 H       1  LIG1        0.0691
     32 H           1.1939    6.4834    1.1932 H       1  LIG1        0.0660
     33 H           0.0211    5.5415    2.1242 H       1  LIG1        0.0660
     34 H          -0.4203    6.2420    0.5185 H       1  LIG1        0.0660
     35 H          -1.8905    4.5387    0.7166 H       1  LIG1        0.0691
@<TRIPOS>BOND
     1     1     2    1
     2     2     3   ar
     3     3     4    1
     4     4     5    1
     5     5     6    1
     6     6     7    1
     7     7     8   ar
     8     8     9   ar
     9     9    10   ar
    10    10    11    1
    11    10    12   ar
    12    12    13   ar
    13     7    13   ar
    14     6    14    1
    15     4    15    2
    16     3    16   ar
    17    14    16    1
    18    16    17   ar
    19    17    18   ar
    20    18    19    1
    21    19    20    1
    22    18    21   ar
    23     2    21   ar
    24     1    22    1
    25     5    23    1
    26     5    24    1
    27     6    25    1
    28     8    26    1
    29     9    27    1
    30    11    28    1
    31    12    29    1
    32    13    30    1
    33    17    31    1
    34    20    32    1
    35    20    33    1
    36    20    34    1
    37    21    35    1
