@<TRIPOS>MOLECULE
NuBBE_474
 32 33 0 0 0
SMALL
GASTEIGER

@<TRIPOS>ATOM
      1 O          -0.8005   -1.8182    2.4836 O.2     1  LIG1       -0.2452
      2 C          -1.0923   -0.6680    2.1920 C.2     1  LIG1        0.3382
      3 C          -0.2777    0.1719    1.2740 C.2     1  LIG1        0.0767
      4 C          -0.4644    1.5027    1.2286 C.2     1  LIG1        0.0982
      5 O           0.2676    2.3908    0.4820 O.2     1  LIG1       -0.4705
      6 C           1.5010    1.8640   -0.0082 C.3     1  LIG1        0.2022
      7 H           2.2121    1.8324    0.8268 H       1  LIG1        0.1056
      8 C           1.3615    0.4696   -0.6184 C.3     1  LIG1        0.0335
      9 C           0.7875   -0.5029    0.4356 C.3     1  LIG1        0.0285
     10 C           0.2872   -1.6842   -0.4220 C.3     1  LIG1        0.0631
     11 H          -0.6328   -2.1401   -0.0452 H       1  LIG1        0.0599
     12 C           0.0972   -1.1657   -1.8507 C.3     1  LIG1       -0.0232
     13 C           0.3742    0.3397   -1.7960 C.3     1  LIG1       -0.0324
     14 H          -0.5667    0.8587   -1.5733 H       1  LIG1        0.0304
     15 C           0.8933    0.8577   -3.1312 C.3     1  LIG1       -0.0619
     16 O           1.2934   -2.6957   -0.4369 O.3     1  LIG1       -0.3912
     17 H           1.5918   -0.8234    1.1113 H       1  LIG1        0.0382
     18 H           2.3499    0.1209   -0.9484 H       1  LIG1        0.0370
     19 O           2.0258    2.7814   -0.9513 O.3     1  LIG1       -0.3575
     20 O          -2.1954   -0.0031    2.6138 O.3     1  LIG1       -0.4646
     21 C          -3.0379   -0.7285    3.5111 C.3     1  LIG1        0.0820
     22 H          -1.2306    2.0399    1.7766 H       1  LIG1        0.1029
     23 H          -0.9258   -1.3458   -2.1989 H       1  LIG1        0.0293
     24 H           0.7739   -1.6732   -2.5489 H       1  LIG1        0.0293
     25 H           1.8810    0.4472   -3.3637 H       1  LIG1        0.0233
     26 H           0.9698    1.9477   -3.1348 H       1  LIG1        0.0233
     27 H           0.2126    0.5780   -3.9418 H       1  LIG1        0.0233
     28 H           0.9158   -3.4751   -0.8816 H       1  LIG1        0.2098
     29 H           1.2381    3.2126   -1.3225 H       1  LIG1        0.2135
     30 H          -3.6565   -0.0043    4.0482 H       1  LIG1        0.0661
     31 H          -2.4600   -1.2937    4.2478 H       1  LIG1        0.0661
     32 H          -3.6932   -1.3934    2.9423 H       1  LIG1        0.0661
@<TRIPOS>BOND
     1     1     2    2
     2     3     4    2
     3     4     5    1
     4     5     6    1
     5     6     8    1
     6     8     9    1
     7     9    10    1
     8    10    12    1
     9    12    13    1
    10     3     9    1
    11    13     8    1
    12     2    20    1
    13    20    21    1
    14     2     3    1
    15     8    18    1
    16     9    17    1
    17    10    16    1
    18    10    11    1
    19    13    15    1
    20    13    14    1
    21     6    19    1
    22     6     7    1
    23     4    22    1
    24    12    23    1
    25    12    24    1
    26    15    25    1
    27    15    26    1
    28    15    27    1
    29    16    28    1
    30    19    29    1
    31    21    30    1
    32    21    31    1
    33    21    32    1
