@<TRIPOS>MOLECULE
NuBBE_1437
 29 30 0 0 0
SMALL
GASTEIGER

@<TRIPOS>ATOM
      1 O          -3.3921   -1.0118    0.4409 O.2     1  LIG1       -0.2676
      2 C          -2.1765   -0.8777    0.2999 C.ar    1  LIG1        0.2551
      3 C          -1.3819   -2.1027    0.1043 C.ar    1  LIG1        0.0453
      4 C          -0.0556   -2.0775   -0.0612 C.ar    1  LIG1        0.1344
      5 O           0.7550   -3.1783   -0.2549 O.3     1  LIG1       -0.4943
      6 C           0.1428   -4.4624   -0.2850 C.3     1  LIG1        0.0788
      7 N          -1.5071    0.3365    0.3074 N.ar    1  LIG1       -0.3079
      8 C          -2.3185    1.5280    0.4928 C.3     1  LIG1        0.0154
      9 C          -0.0756    0.4265    0.1431 C.ar    1  LIG1        0.0972
     10 C           0.6454   -0.7783   -0.0417 C.ar    1  LIG1        0.0439
     11 C           2.0433   -0.7443   -0.2054 C.ar    1  LIG1       -0.0489
     12 C           2.7399    0.4563   -0.1808 C.ar    1  LIG1       -0.0575
     13 C           2.0474    1.6455    0.0016 C.ar    1  LIG1       -0.0179
     14 C           0.6505    1.6496    0.1464 C.ar    1  LIG1        0.1442
     15 O          -0.0197    2.8294    0.3583 O.3     1  LIG1       -0.4930
     16 C           0.5193    3.9927   -0.2619 C.3     1  LIG1        0.0789
     17 H          -1.9670   -3.0119    0.1046 H       1  LIG1        0.0709
     18 H           0.9277   -5.2051   -0.4562 H       1  LIG1        0.0660
     19 H          -0.5749   -4.5355   -1.1085 H       1  LIG1        0.0660
     20 H          -0.3343   -4.6905    0.6736 H       1  LIG1        0.0660
     21 H          -3.3826    1.2901    0.5863 H       1  LIG1        0.0457
     22 H          -2.2191    2.1813   -0.3793 H       1  LIG1        0.0457
     23 H          -2.0259    2.0333    1.4179 H       1  LIG1        0.0457
     24 H           2.6073   -1.6645   -0.3457 H       1  LIG1        0.0625
     25 H           3.8209    0.4619   -0.2932 H       1  LIG1        0.0619
     26 H           2.6249    2.5634    0.0486 H       1  LIG1        0.0655
     27 H          -0.2644    4.7564   -0.2726 H       1  LIG1        0.0660
     28 H           0.8134    3.8018   -1.2997 H       1  LIG1        0.0660
     29 H           1.3574    4.3878    0.3203 H       1  LIG1        0.0660
@<TRIPOS>BOND
     1     1     2    2
     2     2     3   ar
     3     3     4   ar
     4     4     5    1
     5     5     6    1
     6     2     7   ar
     7     7     8    1
     8     7     9   ar
     9     9    10   ar
    10     4    10   ar
    11    10    11   ar
    12    11    12   ar
    13    12    13   ar
    14    13    14   ar
    15     9    14   ar
    16    14    15    1
    17    15    16    1
    18     3    17    1
    19     6    18    1
    20     6    19    1
    21     6    20    1
    22     8    21    1
    23     8    22    1
    24     8    23    1
    25    11    24    1
    26    12    25    1
    27    13    26    1
    28    16    27    1
    29    16    28    1
    30    16    29    1
