@<TRIPOS>MOLECULE
NuBBE_283
 74 78 0 0 0
SMALL
GASTEIGER

@<TRIPOS>ATOM
      1 O          -2.5141    3.0273   -1.8610 O.3     1  LIG1       -0.5027
      2 C          -1.5933    3.9708   -1.4895 C.ar    1  LIG1        0.1767
      3 C          -0.6532    3.7388   -0.4792 C.ar    1  LIG1        0.1128
      4 C          -0.5995    2.4723    0.2635 C.ar    1  LIG1        0.2383
      5 C           0.2690    2.4097    1.4821 C.ar    1  LIG1        0.2138
      6 O           0.1580    1.3578    2.3733 O.3     1  LIG1       -0.4532
      7 C          -0.1917    0.0198    1.9888 C.3     1  LIG1        0.2311
      8 H          -1.2156    0.0267    1.6006 H       1  LIG1        0.1084
      9 O           0.6803   -0.5090    0.9803 O.3     1  LIG1       -0.3313
     10 C           0.4791   -1.8924    0.6362 C.3     1  LIG1        0.1144
     11 H           1.4690   -2.3588    0.7310 H       1  LIG1        0.0647
     12 C          -0.4715   -2.6661    1.5745 C.3     1  LIG1        0.1120
     13 H          -1.5195   -2.3775    1.4282 H       1  LIG1        0.0647
     14 C          -0.0222   -2.3450    2.9839 C.3     1  LIG1        0.1152
     15 H           1.0361   -2.6164    3.1019 H       1  LIG1        0.0648
     16 C          -0.2320   -0.8641    3.2895 C.3     1  LIG1        0.1454
     17 H          -1.2026   -0.7023    3.7746 H       1  LIG1        0.0683
     18 O           0.7424   -0.5082    4.2903 O.3     1  LIG1       -0.3829
     19 O          -0.7187   -3.1586    3.9368 O.3     1  LIG1       -0.3864
     20 O          -0.4021   -4.0895    1.4154 O.3     1  LIG1       -0.3865
     21 C           0.0832   -2.0725   -0.8377 C.3     1  LIG1        0.0796
     22 O          -0.0759   -3.4763   -1.0927 O.3     1  LIG1       -0.3461
     23 C          -0.4407   -3.7686   -2.4506 C.3     1  LIG1        0.1879
     24 H           0.3538   -3.3780   -3.0961 H       1  LIG1        0.0937
     25 O          -1.6885   -3.1346   -2.7198 O.3     1  LIG1       -0.3431
     26 C          -2.2493   -3.4377   -4.0001 C.3     1  LIG1        0.0873
     27 H          -3.2347   -2.9561   -3.9950 H       1  LIG1        0.0621
     28 C          -2.4713   -4.9563   -4.1405 C.3     1  LIG1        0.1095
     29 H          -2.8805   -5.1800   -5.1315 H       1  LIG1        0.0646
     30 C          -1.1807   -5.7381   -3.8972 C.3     1  LIG1        0.1140
     31 H          -1.3947   -6.8131   -3.8521 H       1  LIG1        0.0648
     32 C          -0.5308   -5.3126   -2.5753 C.3     1  LIG1        0.1341
     33 H          -1.1152   -5.7008   -1.7308 H       1  LIG1        0.0671
     34 O           0.7787   -5.9153   -2.5104 O.3     1  LIG1       -0.3841
     35 O          -0.2575   -5.5607   -4.9774 O.3     1  LIG1       -0.3864
     36 O          -3.4281   -5.4044   -3.1633 O.3     1  LIG1       -0.3866
     37 C          -1.4538   -2.7922   -5.1315 C.3     1  LIG1       -0.0361
     38 C           1.0645    3.4724    1.7252 C.ar    1  LIG1        0.1810
     39 O           1.1621    4.5724    0.8620 O.2     1  LIG1       -0.4507
     40 C           0.2444    4.7329   -0.1323 C.ar    1  LIG1        0.1468
     41 C           0.2487    5.9722   -0.7869 C.ar    1  LIG1        0.0268
     42 C          -0.6898    6.2027   -1.7820 C.ar    1  LIG1        0.1655
     43 O          -0.7570    7.3979   -2.4451 O.3     1  LIG1       -0.5031
     44 C          -1.6078    5.2111   -2.1308 C.ar    1  LIG1        0.2015
     45 O          -2.5251    5.4805   -3.1098 O.3     1  LIG1       -0.5009
     46 C           1.9567    3.6738    2.9123 C.ar    1  LIG1        0.0247
     47 C           2.0014    2.7785    3.9938 C.ar    1  LIG1       -0.0473
     48 C           2.8717    2.9453    5.0728 C.ar    1  LIG1       -0.0159
     49 C           3.7088    4.0422    5.0969 C.ar    1  LIG1        0.1583
     50 C           3.6596    4.9754    4.0714 C.ar    1  LIG1        0.1589
     51 O           4.4731    6.0717    4.1142 O.3     1  LIG1       -0.5033
     52 C           2.8024    4.8020    2.9895 C.ar    1  LIG1       -0.0057
     53 O           4.6057    4.2343    6.1072 O.3     1  LIG1       -0.5033
     54 O          -1.3124    1.5461   -0.1041 O.2     1  LIG1       -0.2830
     55 H          -2.3408    2.2099   -1.3451 H       1  LIG1        0.2923
     56 H           0.6497   -1.1849    4.9906 H       1  LIG1        0.2102
     57 H          -0.7188   -4.0530    3.5309 H       1  LIG1        0.2100
     58 H          -0.4658   -4.2497    0.4483 H       1  LIG1        0.2100
     59 H           0.8630   -1.6609   -1.4883 H       1  LIG1        0.0587
     60 H          -0.8496   -1.5348   -1.0395 H       1  LIG1        0.0587
     61 H           0.6619   -6.7999   -2.1177 H       1  LIG1        0.2101
     62 H           0.6100   -5.8556   -4.6311 H       1  LIG1        0.2100
     63 H          -4.0615   -4.6825   -3.0005 H       1  LIG1        0.2100
     64 H          -0.3990   -3.0771   -5.1334 H       1  LIG1        0.0255
     65 H          -1.4690   -1.7025   -5.0191 H       1  LIG1        0.0255
     66 H          -1.8820   -3.0449   -6.1058 H       1  LIG1        0.0255
     67 H           0.9690    6.7318   -0.4994 H       1  LIG1        0.0692
     68 H          -0.0729    7.9930   -2.0907 H       1  LIG1        0.2923
     69 H          -2.3373    6.3972   -3.3890 H       1  LIG1        0.2924
     70 H           1.3669    1.9048    4.0440 H       1  LIG1        0.0626
     71 H           2.8652    2.1997    5.8604 H       1  LIG1        0.0655
     72 H           4.9543    5.9792    4.9613 H       1  LIG1        0.2923
     73 H           2.8204    5.5613    2.2109 H       1  LIG1        0.0662
     74 H           4.6170    3.4195    6.6399 H       1  LIG1        0.2923
@<TRIPOS>BOND
     1     1     2    1
     2     2     3   ar
     3     3     4   ar
     4     4     5   ar
     5     5     6    1
     6     6     7    1
     7     7     8    1
     8     7     9    1
     9     9    10    1
    10    10    11    1
    11    10    12    1
    12    12    14    1
    13    14    15    1
    14    14    16    1
    15     7    16    1
    16    14    19    1
    17    10    21    1
    18    21    22    1
    19    23    25    1
    20    25    26    1
    21    26    28    1
    22    28    29    1
    23    28    30    1
    24    30    32    1
    25    23    32    1
    26    28    36    1
    27     5    38   ar
    28    38    39   ar
    29    39    40   ar
    30     3    40   ar
    31    40    41   ar
    32    41    42   ar
    33    42    43    1
    34    42    44   ar
    35     2    44   ar
    36    44    45    1
    37    38    46    1
    38    46    47   ar
    39    47    48   ar
    40    48    49   ar
    41    49    50   ar
    42    50    51    1
    43    50    52   ar
    44    46    52   ar
    45    49    53    1
    46     4    54    2
    47    12    20    1
    48    12    13    1
    49    16    18    1
    50    16    17    1
    51    23    24    1
    52    23    22    1
    53    26    37    1
    54    26    27    1
    55    30    35    1
    56    30    31    1
    57    32    34    1
    58    32    33    1
    59     1    55    1
    60    18    56    1
    61    19    57    1
    62    20    58    1
    63    21    59    1
    64    21    60    1
    65    34    61    1
    66    35    62    1
    67    36    63    1
    68    37    64    1
    69    37    65    1
    70    37    66    1
    71    41    67    1
    72    43    68    1
    73    45    69    1
    74    47    70    1
    75    48    71    1
    76    51    72    1
    77    52    73    1
    78    53    74    1
