@<TRIPOS>MOLECULE
NuBBE_2268
 41 44 0 0 0
SMALL
GASTEIGER

@<TRIPOS>ATOM
      1 C           3.5103    0.2021    0.0033 C.ar    1  LIG1       -0.0426
      2 C           2.1127   -0.0659    0.0156 C.ar    1  LIG1       -0.0120
      3 C           1.1620    0.9952    0.0427 C.ar    1  LIG1        0.0128
      4 C           1.6843    2.3347    0.0570 C.ar    1  LIG1       -0.0406
      5 C           3.0689    2.5713    0.0444 C.ar    1  LIG1       -0.0579
      6 C           3.9690    1.5202    0.0177 C.ar    1  LIG1       -0.0580
      7 C           0.8019    3.5619    0.0863 C.3     1  LIG1       -0.0391
      8 C          -0.2363    0.6751    0.0541 C.ar    1  LIG1        0.0984
      9 C          -0.6723   -0.6750    0.0388 C.ar    1  LIG1        0.0979
     10 C           0.2772   -1.6969    0.0119 C.ar    1  LIG1        0.0054
     11 C           1.6415   -1.3857   -0.0004 C.ar    1  LIG1       -0.0442
     12 C          -0.0986   -3.1344   -0.0212 C.2     1  LIG1       -0.0483
     13 C           0.2848   -3.9563    0.9702 C.2     1  LIG1       -0.0951
     14 C          -0.8990   -3.6111   -1.1997 C.3     1  LIG1       -0.0396
     15 N          -1.9909   -0.9896    0.0614 N.ar    1  LIG1       -0.2430
     16 C          -2.8933   -0.0012    0.0914 C.ar    1  LIG1        0.0899
     17 C          -2.4818    1.3362    0.1002 C.ar    1  LIG1        0.0899
     18 N          -1.1769    1.6524    0.0815 N.ar    1  LIG1       -0.2430
     19 C          -3.4426    2.3413    0.1289 C.ar    1  LIG1       -0.0342
     20 C          -4.8057    2.0423    0.1495 C.ar    1  LIG1       -0.0596
     21 C          -5.2131    0.7153    0.1414 C.ar    1  LIG1       -0.0596
     22 C          -4.2523   -0.2962    0.1126 C.ar    1  LIG1       -0.0342
     23 C           4.5452   -0.8969   -0.0251 C.3     1  LIG1       -0.0391
     24 H           3.4554    3.5886    0.0554 H       1  LIG1        0.0620
     25 H           5.0344    1.7395    0.0086 H       1  LIG1        0.0620
     26 H           0.1932    3.5776    0.9956 H       1  LIG1        0.0278
     27 H           0.1715    3.6049   -0.8071 H       1  LIG1        0.0278
     28 H           1.3943    4.4841    0.0932 H       1  LIG1        0.0278
     29 H           2.3448   -2.2162   -0.0343 H       1  LIG1        0.0630
     30 H           0.8526   -3.6028    1.8255 H       1  LIG1        0.0538
     31 H           0.0171   -5.0083    0.9618 H       1  LIG1        0.0538
     32 H          -0.4723   -3.2353   -2.1360 H       1  LIG1        0.0278
     33 H          -1.9414   -3.2861   -1.1356 H       1  LIG1        0.0278
     34 H          -0.9020   -4.7050   -1.2640 H       1  LIG1        0.0278
     35 H          -3.1180    3.3787    0.1355 H       1  LIG1        0.0639
     36 H          -5.5398    2.8437    0.1717 H       1  LIG1        0.0618
     37 H          -6.2703    0.4631    0.1576 H       1  LIG1        0.0618
     38 H          -4.5640   -1.3377    0.1066 H       1  LIG1        0.0639
     39 H           4.4497   -1.5338    0.8602 H       1  LIG1        0.0278
     40 H           5.5639   -0.4936   -0.0251 H       1  LIG1        0.0278
     41 H           4.4358   -1.5001   -0.9321 H       1  LIG1        0.0278
@<TRIPOS>BOND
     1     1     2   ar
     2     2     3   ar
     3     3     4   ar
     4     4     5   ar
     5     5     6   ar
     6     1     6   ar
     7     4     7    1
     8     3     8   ar
     9     8     9   ar
    10     9    10   ar
    11    10    11   ar
    12     2    11   ar
    13    10    12    1
    14    12    13    2
    15    12    14    1
    16     9    15   ar
    17    15    16   ar
    18    16    17   ar
    19    17    18   ar
    20     8    18   ar
    21    17    19   ar
    22    19    20   ar
    23    20    21   ar
    24    21    22   ar
    25    16    22   ar
    26     1    23    1
    27     5    24    1
    28     6    25    1
    29     7    26    1
    30     7    27    1
    31     7    28    1
    32    11    29    1
    33    13    30    1
    34    13    31    1
    35    14    32    1
    36    14    33    1
    37    14    34    1
    38    19    35    1
    39    20    36    1
    40    21    37    1
    41    22    38    1
    42    23    39    1
    43    23    40    1
    44    23    41    1
