REMARK  Name = NuBBE_1693
REMARK  9 active torsions:
REMARK  status: ('A' for Active; 'I' for Inactive)
REMARK    1  A    between atoms: O_1  and  C_2
REMARK    2  A    between atoms: C_6  and  C_7
REMARK    3  A    between atoms: C_6  and  C_8
REMARK    4  A    between atoms: C_14  and  C_15
REMARK    5  A    between atoms: C_17  and  O_18
REMARK    6  A    between atoms: O_18  and  C_19
REMARK    7  A    between atoms: C_20  and  O_21
REMARK    8  A    between atoms: C_22  and  O_23
REMARK    9  A    between atoms: O_23  and  C_24
REMARK                            x       y       z     vdW  Elec       q    Type
REMARK                         _______ _______ _______ _____ _____    ______ ____
ROOT
ATOM      1  C   LIG A   1      -2.674   2.111  -0.187  0.00  0.00    +0.142 A 
ATOM      2  C   LIG A   1      -1.886   3.277  -0.137  0.00  0.00    +0.059 A 
ATOM      3  C   LIG A   1      -2.468   4.612  -0.046  0.00  0.00    +0.015 C 
ATOM      4  C   LIG A   1      -1.650   5.667  -0.083  0.00  0.00    +0.020 C 
ATOM      5  C   LIG A   1      -0.150   5.549  -0.202  0.00  0.00    +0.123 C 
ATOM      6  C   LIG A   1       0.303   6.107  -1.556  0.00  0.00    +0.060 C 
ATOM      7  C   LIG A   1       0.507   6.348   0.931  0.00  0.00    +0.060 C 
ATOM      8  O   LIG A   1       0.374   4.209  -0.096  0.00  0.00    -0.481 OA
ATOM      9  C   LIG A   1      -0.492   3.151  -0.130  0.00  0.00    +0.136 A 
ATOM     10  C   LIG A   1       0.104   1.889  -0.132  0.00  0.00    +0.093 A 
ATOM     11  C   LIG A   1      -0.686   0.740  -0.157  0.00  0.00    +0.146 A 
ATOM     12  O   LIG A   1      -0.015  -0.458  -0.140  0.00  0.00    -0.454 OA
ATOM     13  C   LIG A   1      -0.750  -1.633  -0.120  0.00  0.00    +0.140 A 
ATOM     14  C   LIG A   1      -2.088  -1.668  -0.180  0.00  0.00    +0.098 A 
ATOM     15  C   LIG A   1      -2.076   0.842  -0.199  0.00  0.00    +0.106 A 
ATOM     16  C   LIG A   1      -2.851  -0.415  -0.278  0.00  0.00    +0.197 A 
ATOM     17  O   LIG A   1      -4.067  -0.474  -0.434  0.00  0.00    -0.287 OA
ENDROOT
BRANCH  13  18
ATOM     18  C   LIG A   1       0.061  -2.866   0.014  0.00  0.00    +0.025 A 
ATOM     19  C   LIG A   1      -0.359  -4.095  -0.526  0.00  0.00    +0.061 A 
ATOM     20  C   LIG A   1       0.401  -5.263  -0.380  0.00  0.00    +0.166 A 
ATOM     21  C   LIG A   1       1.590  -5.197   0.343  0.00  0.00    +0.201 A 
ATOM     22  C   LIG A   1       2.043  -3.981   0.880  0.00  0.00    +0.166 A 
ATOM     23  C   LIG A   1       1.284  -2.823   0.704  0.00  0.00    +0.061 A 
BRANCH  20  24
ATOM     24  O   LIG A   1      -0.175  -6.379  -0.925  0.00  0.00    -0.491 OA
ATOM     25  C   LIG A   1       0.718  -7.367  -1.425  0.00  0.00    +0.277 C 
ENDBRANCH  20  24
BRANCH  21  26
ATOM     26  O   LIG A   1       2.341  -6.315   0.598  0.00  0.00    -0.501 OA
ATOM     27  H   LIG A   1       3.064  -6.011   1.181  0.00  0.00    +0.292 HD
ENDBRANCH  21  26
BRANCH  22  28
ATOM     28  O   LIG A   1       3.228  -4.071   1.570  0.00  0.00    -0.491 OA
ATOM     29  C   LIG A   1       3.727  -2.872   2.148  0.00  0.00    +0.277 C 
ENDBRANCH  22  28
ENDBRANCH  13  18
BRANCH   1  30
ATOM     30  O   LIG A   1      -4.040   2.213  -0.200  0.00  0.00    -0.505 OA
ATOM     31  H   LIG A   1      -4.291   2.906  -0.832  0.00  0.00    +0.292 HD
ENDBRANCH   1  30
TORSDOF 5
