REMARK  Name = NuBBE_415
REMARK  9 active torsions:
REMARK  status: ('A' for Active; 'I' for Inactive)
REMARK    1  A    between atoms: C_3  and  C_4
REMARK    2  A    between atoms: C_5  and  C_12
REMARK    3  A    between atoms: C_7  and  O_11
REMARK    4  A    between atoms: C_16  and  C_35
REMARK    5  A    between atoms: C_19  and  C_34
REMARK    6  A    between atoms: C_20  and  C_33
REMARK    7  A    between atoms: C_23  and  C_32
REMARK    8  A    between atoms: C_26  and  C_27
REMARK    9  A    between atoms: C_26  and  C_30
REMARK                            x       y       z     vdW  Elec       q    Type
REMARK                         _______ _______ _______ _____ _____    ______ ____
ROOT
ATOM      1  C   LIG A   1       0.043  -2.868  -0.857  0.00  0.00    +0.002 C 
ATOM      2  C   LIG A   1       1.257  -3.470  -0.008  0.00  0.00    -0.024 C 
ATOM      3  C   LIG A   1       2.649  -3.717  -0.686  0.00  0.00    +0.012 C 
ATOM      4  C   LIG A   1       0.835  -4.840   0.606  0.00  0.00    +0.021 C 
ATOM      5  C   LIG A   1       0.434  -5.732  -0.591  0.00  0.00    +0.118 C 
ATOM      6  C   LIG A   1      -0.882  -5.287  -1.179  0.00  0.00    +0.032 C 
ATOM      7  C   LIG A   1      -0.691  -3.889  -1.776  0.00  0.00    +0.007 C 
ATOM      8  C   LIG A   1      -0.257  -4.750   1.688  0.00  0.00    +0.010 C 
ATOM      9  C   LIG A   1       1.573  -2.422   1.066  0.00  0.00    +0.007 C 
ATOM     10  C   LIG A   1       2.123  -1.164   0.375  0.00  0.00    +0.005 C 
ATOM     11  C   LIG A   1       1.016  -0.508  -0.500  0.00  0.00    +0.002 C 
ATOM     12  C   LIG A   1       0.362  -1.474  -1.555  0.00  0.00    -0.025 C 
ATOM     13  C   LIG A   1      -0.935  -0.704  -1.904  0.00  0.00    +0.008 C 
ATOM     14  C   LIG A   1      -0.570   0.697  -2.403  0.00  0.00    +0.008 C 
ATOM     15  C   LIG A   1      -0.360   1.923  -1.268  0.00  0.00    -0.023 C 
ATOM     16  C   LIG A   1       1.200   1.076  -0.879  0.00  0.00    -0.023 C 
ATOM     17  C   LIG A   1       1.977   1.653   0.349  0.00  0.00    +0.008 C 
ATOM     18  C   LIG A   1       1.444   2.923   0.817  0.00  0.00    +0.007 C 
ATOM     19  C   LIG A   1       0.015   2.647   1.307  0.00  0.00    -0.029 C 
ATOM     20  C   LIG A   1      -0.786   3.007   0.057  0.00  0.00    +0.002 C 
ATOM     21  C   LIG A   1      -2.192   3.600   0.582  0.00  0.00    +0.011 C 
ATOM     22  C   LIG A   1      -2.094   4.625   1.820  0.00  0.00    -0.035 C 
ATOM     23  C   LIG A   1      -2.908   4.081   3.045  0.00  0.00    +0.011 C 
ATOM     24  C   LIG A   1      -0.635   4.812   2.280  0.00  0.00    +0.007 C 
ATOM     25  C   LIG A   1      -0.080   3.478   2.598  0.00  0.00    +0.007 C 
ATOM     26  C   LIG A   1      -2.619   6.034   1.495  0.00  0.00    +0.011 C 
ATOM     27  C   LIG A   1      -0.591   1.265   1.696  0.00  0.00    +0.011 C 
ATOM     28  C   LIG A   1       2.328   1.223  -1.960  0.00  0.00    +0.012 C 
ATOM     29  C   LIG A   1      -1.704   2.345  -2.037  0.00  0.00    +0.012 C 
ATOM     30  C   LIG A   1       1.061  -1.782  -2.909  0.00  0.00    +0.012 C 
ENDROOT
BRANCH   5  31
ATOM     31  O   LIG A   1       0.421  -7.115  -0.221  0.00  0.00    -0.392 OA
ATOM     32  H   LIG A   1       1.308  -7.450  -0.493  0.00  0.00    +0.210 HD
ENDBRANCH   5  31
TORSDOF 1
