@<TRIPOS>MOLECULE
NuBBE_374
 72 71 0 0 0
SMALL
GASTEIGER

@<TRIPOS>ATOM
      1 C           5.4941   -1.3314   -8.2903 C.3     1  LIG1       -0.0353
      2 C           6.2421   -1.2315   -6.9650 C.3     1  LIG1        0.0708
      3 C           5.4207   -1.7060   -5.7917 C.2     1  LIG1       -0.0559
      4 C           5.9322   -2.2315   -4.6643 C.2     1  LIG1       -0.0602
      5 C           5.1506   -2.6953   -3.5231 C.2     1  LIG1       -0.0458
      6 C           4.1665   -3.7941   -3.8206 C.3     1  LIG1       -0.0396
      7 C           5.3778   -2.1699   -2.3033 C.2     1  LIG1        0.0030
      8 C           4.6890   -2.6050   -1.0594 C.2     1  LIG1        0.2372
      9 N           4.0079   -1.5754   -0.4587 N.am    1  LIG1       -0.3109
     10 C           3.2541   -1.7189    0.7902 C.3     1  LIG1        0.0237
     11 C           2.0150   -0.7633    0.8561 C.3     1  LIG1        0.0394
     12 C           1.1675   -1.0862   -0.3733 C.3     1  LIG1       -0.0516
     13 C           1.3119   -0.9540    2.2432 C.2     1  LIG1        0.1474
     14 C          -0.2218   -0.7040    2.5164 C.3     1  LIG1        0.0394
     15 C          -0.5971   -1.5907    3.7370 C.3     1  LIG1       -0.0516
     16 C          -0.4664    0.7845    2.9018 C.3     1  LIG1        0.0237
     17 N          -1.8756    1.1226    3.1478 N.am    1  LIG1       -0.3109
     18 C          -2.7172    1.6442    2.1719 C.2     1  LIG1        0.2372
     19 C          -4.1373    1.7349    2.6377 C.2     1  LIG1        0.0030
     20 C          -5.0076    2.7530    2.4666 C.2     1  LIG1       -0.0458
     21 C          -6.3594    2.5966    3.0186 C.2     1  LIG1       -0.0602
     22 C          -7.1530    3.5989    3.4398 C.2     1  LIG1       -0.0559
     23 C          -8.4984    3.4665    4.0971 C.3     1  LIG1        0.0708
     24 C          -9.5696    4.2709    3.3724 C.3     1  LIG1       -0.0353
     25 O          -8.9005    2.1049    4.1443 O.3     1  LIG1       -0.3880
     26 C          -4.7306    4.0515    1.7514 C.3     1  LIG1       -0.0396
     27 O          -2.3789    1.9289    1.0493 O.2     1  LIG1       -0.2708
     28 H          -2.2541    0.9247    4.0616 H       1  LIG1        0.1490
     29 C          -1.1755   -1.1604    1.4096 C.3     1  LIG1       -0.0516
     30 O           2.0423   -1.1840    3.2226 O.2     1  LIG1       -0.2962
     31 C           2.4899    0.6983    0.7700 C.3     1  LIG1       -0.0516
     32 H           4.0592   -0.6675   -0.8962 H       1  LIG1        0.1490
     33 O           4.7485   -3.7470   -0.6374 O.2     1  LIG1       -0.2708
     34 O           7.4359   -1.9999   -7.0678 O.3     1  LIG1       -0.3880
     35 H           4.5357   -0.8038   -8.2584 H       1  LIG1        0.0258
     36 H           5.3119   -2.3760   -8.5665 H       1  LIG1        0.0258
     37 H           6.0971   -0.8972   -9.0966 H       1  LIG1        0.0258
     38 H           6.5295   -0.1872   -6.7988 H       1  LIG1        0.0635
     39 H           4.3455   -1.5617   -5.8755 H       1  LIG1        0.0597
     40 H           7.0137   -2.3288   -4.5649 H       1  LIG1        0.0618
     41 H           4.6283   -4.5621   -4.4525 H       1  LIG1        0.0278
     42 H           3.2957   -3.3924   -4.3487 H       1  LIG1        0.0278
     43 H           3.8055   -4.3015   -2.9228 H       1  LIG1        0.0278
     44 H           6.0923   -1.3655   -2.1621 H       1  LIG1        0.0672
     45 H           3.9591   -1.5314    1.6089 H       1  LIG1        0.0471
     46 H           2.9293   -2.7635    0.8851 H       1  LIG1        0.0471
     47 H           0.8732   -2.1419   -0.3899 H       1  LIG1        0.0240
     48 H           1.6935   -0.8784   -1.3105 H       1  LIG1        0.0240
     49 H           0.2902   -0.4528   -0.4242 H       1  LIG1        0.0240
     50 H          -1.6493   -1.4642    4.0166 H       1  LIG1        0.0240
     51 H           0.0038   -1.3581    4.6225 H       1  LIG1        0.0240
     52 H          -0.4437   -2.6509    3.5014 H       1  LIG1        0.0240
     53 H          -0.0802    1.4608    2.1353 H       1  LIG1        0.0471
     54 H           0.0723    1.0211    3.8314 H       1  LIG1        0.0471
     55 H          -4.4636    0.8335    3.1485 H       1  LIG1        0.0672
     56 H          -6.7027    1.5697    3.1442 H       1  LIG1        0.0618
     57 H          -6.8091    4.6282    3.3860 H       1  LIG1        0.0597
     58 H          -8.4154    3.8256    5.1292 H       1  LIG1        0.0635
     59 H          -9.6523    3.9650    2.3233 H       1  LIG1        0.0258
     60 H          -9.3604    5.3453    3.4034 H       1  LIG1        0.0258
     61 H         -10.5487    4.0935    3.8307 H       1  LIG1        0.0258
     62 H          -8.9756    1.8054    3.2225 H       1  LIG1        0.2102
     63 H          -3.6737    4.2012    1.5274 H       1  LIG1        0.0278
     64 H          -5.0359    4.9197    2.3460 H       1  LIG1        0.0278
     65 H          -5.2969    4.0866    0.8123 H       1  LIG1        0.0278
     66 H          -0.8580   -2.1149    0.9814 H       1  LIG1        0.0240
     67 H          -1.2752   -0.4146    0.6200 H       1  LIG1        0.0240
     68 H          -2.1944   -1.3090    1.7824 H       1  LIG1        0.0240
     69 H           3.0174    0.9063   -0.1668 H       1  LIG1        0.0240
     70 H           3.1676    0.9531    1.5927 H       1  LIG1        0.0240
     71 H           1.6446    1.3885    0.8048 H       1  LIG1        0.0240
     72 H           7.1664   -2.9126   -7.2719 H       1  LIG1        0.2102
@<TRIPOS>BOND
     1     1     2    1
     2     2     3    1
     3     3     4    2
     4     4     5    1
     5     5     6    1
     6     5     7    2
     7     7     8    1
     8     8     9   am
     9     9    10    1
    10    10    11    1
    11    11    12    1
    12    11    13    1
    13    13    14    1
    14    14    15    1
    15    14    16    1
    16    16    17    1
    17    17    18   am
    18    18    19    1
    19    19    20    2
    20    20    21    1
    21    21    22    2
    22    22    23    1
    23    23    24    1
    24    23    25    1
    25    20    26    1
    26    18    27    2
    27    17    28    1
    28    14    29    1
    29    13    30    2
    30    11    31    1
    31     9    32    1
    32     8    33    2
    33     2    34    1
    34     1    35    1
    35     1    36    1
    36     1    37    1
    37     2    38    1
    38     3    39    1
    39     4    40    1
    40     6    41    1
    41     6    42    1
    42     6    43    1
    43     7    44    1
    44    10    45    1
    45    10    46    1
    46    12    47    1
    47    12    48    1
    48    12    49    1
    49    15    50    1
    50    15    51    1
    51    15    52    1
    52    16    53    1
    53    16    54    1
    54    19    55    1
    55    21    56    1
    56    22    57    1
    57    23    58    1
    58    24    59    1
    59    24    60    1
    60    24    61    1
    61    25    62    1
    62    26    63    1
    63    26    64    1
    64    26    65    1
    65    29    66    1
    66    29    67    1
    67    29    68    1
    68    31    69    1
    69    31    70    1
    70    31    71    1
    71    34    72    1
