REMARK  Name = NuBBE_2357
REMARK  5 active torsions:
REMARK  status: ('A' for Active; 'I' for Inactive)
REMARK    1  A    between atoms: C_1  and  C_2
REMARK    2  A    between atoms: C_9  and  C_10
REMARK    3  A    between atoms: C_10  and  O_11
REMARK    4  A    between atoms: C_19  and  C_20
REMARK    5  A    between atoms: C_19  and  C_21
REMARK                            x       y       z     vdW  Elec       q    Type
REMARK                         _______ _______ _______ _____ _____    ______ ____
ROOT
ATOM      1  C   LIG A   1      -2.137  -0.147  -1.175  0.00  0.00    +0.012 C 
ATOM      2  C   LIG A   1      -1.113  -0.455  -0.045  0.00  0.00    -0.025 C 
ATOM      3  C   LIG A   1       0.030  -1.396  -0.568  0.00  0.00    +0.001 C 
ATOM      4  C   LIG A   1       0.897  -0.774  -1.692  0.00  0.00    +0.005 C 
ATOM      5  C   LIG A   1       0.897   0.747  -1.774  0.00  0.00    +0.012 C 
ATOM      6  C   LIG A   1       0.739   1.426  -0.426  0.00  0.00    -0.007 C 
ATOM      7  C   LIG A   1       0.629   2.933  -0.583  0.00  0.00    -0.018 C 
ATOM      8  C   LIG A   1       1.261   3.554   0.423  0.00  0.00    -0.045 C 
ATOM      9  C   LIG A   1      -0.471   0.928   0.450  0.00  0.00    +0.005 C 
ATOM     10  C   LIG A   1      -0.075   0.954   1.966  0.00  0.00    +0.005 C 
ATOM     11  C   LIG A   1       0.860   2.095   2.420  0.00  0.00    +0.008 C 
ATOM     12  C   LIG A   1       1.868   2.529   1.352  0.00  0.00    +0.018 C 
ATOM     13  C   LIG A   1       2.068   1.378   0.367  0.00  0.00    +0.019 C 
ATOM     14  C   LIG A   1      -0.383  -2.895  -0.877  0.00  0.00    -0.032 C 
ATOM     15  C   LIG A   1       0.839  -3.804  -0.583  0.00  0.00    +0.011 C 
ATOM     16  C   LIG A   1      -0.785  -3.167  -2.345  0.00  0.00    +0.011 C 
ATOM     17  C   LIG A   1      -1.558  -3.364   0.014  0.00  0.00    +0.007 C 
ATOM     18  C   LIG A   1      -1.614  -2.616   1.331  0.00  0.00    +0.001 C 
ATOM     19  C   LIG A   1      -1.954  -1.149   1.089  0.00  0.00    +0.007 C 
ENDROOT
BRANCH   8  20
ATOM     20  C   LIG A   1       1.403   5.018   0.642  0.00  0.00    +0.186 C 
BRANCH  20  21
ATOM     21  O   LIG A   1       0.714   5.390   1.823  0.00  0.00    -0.391 OA
ATOM     22  H   LIG A   1      -0.192   5.048   1.731  0.00  0.00    +0.210 HD
ENDBRANCH  20  21
ENDBRANCH   8  20
TORSDOF 2
