@<TRIPOS>MOLECULE
NuBBE_2170
 46 49 0 0 0
SMALL
GASTEIGER

@<TRIPOS>ATOM
      1 C          -2.3393   -0.3628    3.6720 C.3     1  LIG1        0.0790
      2 O          -2.7918    0.7499    2.9109 O.3     1  LIG1       -0.4914
      3 C          -1.9732    1.1580    1.8853 C.ar    1  LIG1        0.1621
      4 C          -2.0321    2.4983    1.5263 C.ar    1  LIG1        0.1622
      5 O          -2.8347    3.3355    2.2630 O.3     1  LIG1       -0.4914
      6 C          -2.8518    4.7092    1.8868 C.3     1  LIG1        0.0790
      7 C          -1.2432    2.9340    0.4620 C.ar    1  LIG1       -0.0051
      8 C          -1.1336    0.2852    1.1694 C.ar    1  LIG1       -0.0079
      9 C          -0.3577    0.6936    0.0371 C.ar    1  LIG1       -0.0027
     10 C          -0.4329    2.0585   -0.2917 C.ar    1  LIG1        0.0281
     11 C           0.3246    2.5763   -1.3599 C.ar    1  LIG1        0.1278
     12 O           0.2167    3.8967   -1.7233 O.3     1  LIG1       -0.5059
     13 C           1.2019    1.7855   -2.1003 C.ar    1  LIG1       -0.0049
     14 C           2.0374    2.4260   -3.1789 C.3     1  LIG1       -0.0360
     15 C           1.2509    0.3927   -1.8367 C.ar    1  LIG1       -0.0358
     16 C           2.1670   -0.4533   -2.7007 C.3     1  LIG1       -0.0388
     17 C           0.4834   -0.1854   -0.7601 C.ar    1  LIG1       -0.0066
     18 C           0.5525   -1.6599   -0.4589 C.ar    1  LIG1       -0.0134
     19 C           1.7851   -2.3308   -0.3273 C.ar    1  LIG1       -0.0084
     20 C           1.8012   -3.6862   -0.0560 C.ar    1  LIG1        0.1668
     21 C           0.6497   -4.3946    0.1721 C.ar    1  LIG1        0.1663
     22 O           0.8893   -5.6981    0.4707 O.3     1  LIG1       -0.4526
     23 C           2.3262   -5.7447    0.3437 C.3     1  LIG1        0.2332
     24 O           2.9137   -4.4656    0.0262 O.3     1  LIG1       -0.4526
     25 C          -0.5830   -3.7950    0.0865 C.ar    1  LIG1       -0.0156
     26 C          -0.6259   -2.4407   -0.2796 C.ar    1  LIG1       -0.0503
     27 H          -2.9779   -0.4456    4.5567 H       1  LIG1        0.0660
     28 H          -1.3093   -0.2147    4.0137 H       1  LIG1        0.0660
     29 H          -2.4380   -1.2979    3.1109 H       1  LIG1        0.0660
     30 H          -3.3432    4.8352    0.9144 H       1  LIG1        0.0660
     31 H          -1.8428    5.1385    1.8730 H       1  LIG1        0.0660
     32 H          -3.4228    5.2678    2.6317 H       1  LIG1        0.0660
     33 H          -1.2209    3.9873    0.2198 H       1  LIG1        0.0662
     34 H          -1.0826   -0.7418    1.4933 H       1  LIG1        0.0662
     35 H          -0.7333    4.1040   -1.7663 H       1  LIG1        0.2922
     36 H           2.0089    3.5189   -3.1504 H       1  LIG1        0.0279
     37 H           1.6795    2.1173   -4.1662 H       1  LIG1        0.0279
     38 H           3.0905    2.1501   -3.0578 H       1  LIG1        0.0279
     39 H           2.3373   -0.0096   -3.6858 H       1  LIG1        0.0278
     40 H           1.7396   -1.4368   -2.9059 H       1  LIG1        0.0278
     41 H           3.1438   -0.5516   -2.2159 H       1  LIG1        0.0278
     42 H           2.7302   -1.8124   -0.4411 H       1  LIG1        0.0661
     43 H           2.5827   -6.4626   -0.4450 H       1  LIG1        0.1166
     44 H           2.7555   -6.0950    1.2891 H       1  LIG1        0.1166
     45 H          -1.4906   -4.3538    0.2878 H       1  LIG1        0.0655
     46 H          -1.6066   -1.9796   -0.3943 H       1  LIG1        0.0625
@<TRIPOS>BOND
     1     1     2    1
     2     2     3    1
     3     3     4   ar
     4     4     5    1
     5     5     6    1
     6     4     7   ar
     7     3     8   ar
     8     8     9   ar
     9     9    10   ar
    10     7    10   ar
    11    10    11   ar
    12    11    12    1
    13    11    13   ar
    14    13    14    1
    15    13    15   ar
    16    15    16    1
    17    15    17   ar
    18     9    17   ar
    19    17    18    1
    20    18    19   ar
    21    19    20   ar
    22    20    21   ar
    23    21    22    1
    24    22    23    1
    25    23    24    1
    26    20    24    1
    27    21    25   ar
    28    25    26   ar
    29    18    26   ar
    30     1    27    1
    31     1    28    1
    32     1    29    1
    33     6    30    1
    34     6    31    1
    35     6    32    1
    36     7    33    1
    37     8    34    1
    38    12    35    1
    39    14    36    1
    40    14    37    1
    41    14    38    1
    42    16    39    1
    43    16    40    1
    44    16    41    1
    45    19    42    1
    46    23    43    1
    47    23    44    1
    48    25    45    1
    49    26    46    1
