REMARK  Name = NuBBE_1719
REMARK  10 active torsions:
REMARK  status: ('A' for Active; 'I' for Inactive)
REMARK    1  A    between atoms: C_1  and  C_2
REMARK    2  A    between atoms: C_7  and  C_9
REMARK    3  A    between atoms: C_9  and  O_11
REMARK    4  A    between atoms: O_11  and  C_12
REMARK    5  A    between atoms: C_19  and  O_35
REMARK    6  A    between atoms: C_21  and  O_31
REMARK    7  A    between atoms: C_25  and  C_26
REMARK    8  A    between atoms: C_25  and  C_27
REMARK    9  A    between atoms: O_31  and  C_32
REMARK   10  A    between atoms: C_32  and  C_34
REMARK                            x       y       z     vdW  Elec       q    Type
REMARK                         _______ _______ _______ _____ _____    ______ ____
ROOT
ATOM      1  C   LIG A   1      -2.401   0.400   1.337  0.00  0.00    +0.012 C 
ATOM      2  C   LIG A   1      -0.870   0.688   1.190  0.00  0.00    -0.022 C 
ATOM      3  C   LIG A   1      -0.512   1.003  -0.319  0.00  0.00    +0.009 C 
ATOM      4  C   LIG A   1      -0.749  -0.243  -1.256  0.00  0.00    +0.043 C 
ATOM      5  C   LIG A   1      -0.459   0.017  -2.793  0.00  0.00    +0.137 C 
ATOM      6  C   LIG A   1      -0.927   1.376  -3.209  0.00  0.00    +0.008 A 
ATOM      7  C   LIG A   1      -1.221   2.362  -2.303  0.00  0.00    +0.109 A 
ATOM      8  C   LIG A   1      -1.237   2.290  -0.832  0.00  0.00    +0.079 C 
ATOM      9  O   LIG A   1      -1.519   3.529  -2.919  0.00  0.00    -0.468 OA
ATOM     10  C   LIG A   1      -1.400   3.292  -4.254  0.00  0.00    +0.195 A 
ATOM     11  C   LIG A   1      -1.054   1.978  -4.486  0.00  0.00    +0.045 A 
ATOM     12  C   LIG A   1      -0.043  -1.515  -0.730  0.00  0.00    +0.160 C 
ATOM     13  C   LIG A   1      -0.201  -1.800   0.780  0.00  0.00    +0.209 C 
ATOM     14  C   LIG A   1      -0.060  -0.562   1.724  0.00  0.00    +0.044 C 
ATOM     15  C   LIG A   1       1.412  -0.281   2.272  0.00  0.00    -0.028 C 
ATOM     16  C   LIG A   1       1.833  -1.430   3.230  0.00  0.00    +0.011 C 
ATOM     17  C   LIG A   1       2.529  -0.182   1.219  0.00  0.00    +0.011 C 
ATOM     18  C   LIG A   1       1.441   1.016   3.117  0.00  0.00    +0.007 C 
ATOM     19  C   LIG A   1       0.830   2.203   2.395  0.00  0.00    +0.001 C 
ATOM     20  C   LIG A   1      -0.630   1.914   2.117  0.00  0.00    +0.007 C 
ENDROOT
BRANCH   5  21
ATOM     21  C   LIG A   1       1.001  -0.169  -3.214  0.00  0.00    +0.315 C 
ATOM     22  O   LIG A   1       1.445  -1.204  -3.703  0.00  0.00    -0.250 OA
BRANCH  21  23
ATOM     23  O   LIG A   1       1.736   0.942  -2.924  0.00  0.00    -0.468 OA
ATOM     24  C   LIG A   1       3.146   0.757  -2.947  0.00  0.00    +0.280 C 
ENDBRANCH  21  23
ENDBRANCH   5  21
BRANCH  12  25
ATOM     25  O   LIG A   1       1.345  -1.454  -1.008  0.00  0.00    -0.388 OA
ATOM     26  H   LIG A   1       1.656  -2.368  -1.160  0.00  0.00    +0.210 HD
ENDBRANCH  12  25
BRANCH  13  27
ATOM     27  O   LIG A   1      -1.502  -2.394   1.020  0.00  0.00    -0.459 OA
BRANCH  27  28
ATOM     28  C   LIG A   1      -1.599  -3.735   0.798  0.00  0.00    +0.304 C 
ATOM     29  O   LIG A   1      -0.720  -4.440   0.345  0.00  0.00    -0.251 OA
ATOM     30  C   LIG A   1      -2.978  -4.213   1.152  0.00  0.00    +0.136 C 
ENDBRANCH  27  28
ENDBRANCH  13  27
TORSDOF 5
