REMARK  Name = NuBBE_2432
REMARK  5 active torsions:
REMARK  status: ('A' for Active; 'I' for Inactive)
REMARK    1  A    between atoms: O_1  and  C_2
REMARK    2  A    between atoms: O_1  and  C_3
REMARK    3  A    between atoms: C_7  and  C_12
REMARK    4  A    between atoms: C_19  and  O_21
REMARK    5  A    between atoms: O_21  and  C_22
REMARK                            x       y       z     vdW  Elec       q    Type
REMARK                         _______ _______ _______ _____ _____    ______ ____
ROOT
ATOM      1  C   LIG A   1      -1.911  -2.091  -0.311  0.00  0.00    +0.138 A 
ATOM      2  C   LIG A   1      -1.297  -0.829  -0.346  0.00  0.00    +0.101 A 
ATOM      3  C   LIG A   1       0.095  -0.728  -0.273  0.00  0.00    +0.139 A 
ATOM      4  O   LIG A   1       0.796   0.444  -0.226  0.00  0.00    -0.483 OA
ATOM      5  C   LIG A   1       0.057   1.647  -0.490  0.00  0.00    +0.211 C 
ATOM      6  C   LIG A   1      -1.310   1.629   0.173  0.00  0.00    +0.129 C 
ATOM      7  C   LIG A   1      -2.052   0.446  -0.383  0.00  0.00    +0.174 C 
ATOM      8  O   LIG A   1      -3.190   0.544  -0.818  0.00  0.00    -0.292 OA
ATOM      9  C   LIG A   1       0.884  -1.876  -0.197  0.00  0.00    +0.092 A 
ATOM     10  C   LIG A   1       0.289  -3.133  -0.211  0.00  0.00    +0.127 A 
ATOM     11  C   LIG A   1      -1.104  -3.236  -0.251  0.00  0.00    +0.092 A 
ENDROOT
BRANCH   5  12
ATOM     12  C   LIG A   1       0.891   2.819   0.007  0.00  0.00    -0.007 A 
ATOM     13  C   LIG A   1       0.810   4.069  -0.625  0.00  0.00    +0.007 A 
ATOM     14  C   LIG A   1       1.578   5.147  -0.172  0.00  0.00    +0.000 A 
ATOM     15  C   LIG A   1       2.433   4.992   0.917  0.00  0.00    +0.000 A 
ATOM     16  C   LIG A   1       2.520   3.760   1.559  0.00  0.00    +0.000 A 
ATOM     17  C   LIG A   1       1.750   2.685   1.113  0.00  0.00    +0.007 A 
ENDBRANCH   5  12
BRANCH   1  18
ATOM     18  O   LIG A   1      -3.278  -2.152  -0.354  0.00  0.00    -0.494 OA
ATOM     19  C   LIG A   1      -3.889  -3.256   0.305  0.00  0.00    +0.277 C 
ENDBRANCH   1  18
BRANCH  10  20
ATOM     20  O   LIG A   1       0.967  -4.320  -0.146  0.00  0.00    -0.495 OA
ATOM     21  C   LIG A   1       2.290  -4.299  -0.676  0.00  0.00    +0.277 C 
ENDBRANCH  10  20
TORSDOF 3
