@<TRIPOS>MOLECULE
NuBBE_1255
 80 86 0 0 0
SMALL
GASTEIGER

@<TRIPOS>ATOM
      1 C          -2.4739    1.9493    0.6479 C.3     1  LIG1        0.1226
      2 C          -1.0865    1.9037    0.0391 C.3     1  LIG1        0.1361
      3 C          -0.7585    0.4690   -0.4490 C.3     1  LIG1        0.1729
      4 C          -1.1192    0.3146   -1.9610 C.3     1  LIG1        0.1840
      5 C          -0.7657    1.6000   -2.7177 C.3     1  LIG1        0.1938
      6 C          -1.4439    2.8136   -2.1242 C.3     1  LIG1        0.1981
      7 O          -0.9142    3.0083   -0.8435 O.3     1  LIG1       -0.3374
      8 O          -1.2166    3.9850   -2.8894 O.3     1  LIG1       -0.3641
      9 O           0.6874    1.6657   -2.5675 O.3     1  LIG1       -0.4488
     10 C           1.3691    1.9721   -3.6789 C.2     1  LIG1        0.3406
     11 O           0.9398    2.6678   -4.5849 O.2     1  LIG1       -0.2449
     12 C           2.7939    1.6372   -3.4886 C.ar    1  LIG1        0.0740
     13 C           3.4693    2.9154   -3.4017 C.ar    1  LIG1       -0.0017
     14 C           4.8331    3.0110   -3.3456 C.ar    1  LIG1        0.1628
     15 C           5.5312    1.8410   -3.3701 C.ar    1  LIG1        0.2012
     16 C           4.8876    0.5778   -3.4412 C.ar    1  LIG1        0.1708
     17 C           3.4661    0.3483   -3.4739 C.ar    1  LIG1        0.0458
     18 C           2.8328   -1.1548   -3.5247 C.ar    1  LIG1        0.0458
     19 C           3.5910   -2.3732   -3.3879 C.ar    1  LIG1        0.1708
     20 C           3.0490   -3.6927   -3.4404 C.ar    1  LIG1        0.2012
     21 C           1.7198   -3.9341   -3.6171 C.ar    1  LIG1        0.1628
     22 C           0.9159   -2.8526   -3.7569 C.ar    1  LIG1       -0.0017
     23 C           1.4493   -1.5235   -3.6819 C.ar    1  LIG1        0.0740
     24 C           0.2787   -0.6787   -3.7060 C.2     1  LIG1        0.3405
     25 O          -0.1478   -0.1465   -4.7108 O.2     1  LIG1       -0.2449
     26 O          -0.2671   -0.7585   -2.4590 O.3     1  LIG1       -0.4501
     27 O           1.2003   -5.1853   -3.6184 O.3     1  LIG1       -0.5032
     28 O           3.8757   -4.7841   -3.3071 O.3     1  LIG1       -0.5009
     29 O           4.9347   -2.5224   -3.1436 O.3     1  LIG1       -0.5028
     30 O           5.8382   -0.4142   -3.5375 O.3     1  LIG1       -0.5028
     31 O           6.9088    1.8667   -3.3609 O.3     1  LIG1       -0.5009
     32 O           5.5195    4.1834   -3.3132 O.3     1  LIG1       -0.5032
     33 O          -1.4463   -0.5181    0.4358 O.3     1  LIG1       -0.4512
     34 C          -0.8102   -0.8112    1.6188 C.2     1  LIG1        0.3405
     35 O           0.3825   -0.6295    1.8112 O.2     1  LIG1       -0.2449
     36 C          -1.5916   -1.6227    2.6227 C.ar    1  LIG1        0.0740
     37 C          -1.2513   -2.9977    2.3860 C.ar    1  LIG1       -0.0017
     38 C          -1.5483   -3.9904    3.3014 C.ar    1  LIG1        0.1628
     39 C          -2.1725   -3.6412    4.4716 C.ar    1  LIG1        0.2012
     40 C          -2.5181   -2.3108    4.7323 C.ar    1  LIG1        0.1708
     41 C          -2.3032   -1.2174    3.8336 C.ar    1  LIG1        0.0458
     42 C          -2.7833    0.1808    4.3350 C.ar    1  LIG1        0.0458
     43 C          -3.9703    0.4132    5.0909 C.ar    1  LIG1        0.1708
     44 C          -4.3445    1.6794    5.6048 C.ar    1  LIG1        0.2012
     45 C          -3.5625    2.7996    5.4164 C.ar    1  LIG1        0.1628
     46 C          -2.4127    2.6631    4.6927 C.ar    1  LIG1       -0.0017
     47 C          -2.1019    1.3978    4.1297 C.ar    1  LIG1        0.0740
     48 C          -1.4355    1.6273    2.8760 C.2     1  LIG1        0.3401
     49 O          -0.2854    1.9035    2.7611 O.2     1  LIG1       -0.2449
     50 O          -2.5084    1.6139    2.0311 O.3     1  LIG1       -0.4584
     51 O          -3.9621    4.0325    5.8190 O.3     1  LIG1       -0.5032
     52 O          -5.5216    1.8326    6.2926 O.3     1  LIG1       -0.5009
     53 O          -4.9212   -0.5509    5.3485 O.3     1  LIG1       -0.5028
     54 O          -3.0641   -2.1184    5.9905 O.3     1  LIG1       -0.5028
     55 O          -2.4370   -4.5818    5.4350 O.3     1  LIG1       -0.5009
     56 O          -1.1943   -5.2961    3.1347 O.3     1  LIG1       -0.5032
     57 H          -3.1291    1.2129    0.1582 H       1  LIG1        0.0725
     58 H          -2.9825    2.9093    0.5017 H       1  LIG1        0.0725
     59 H          -0.3174    2.1282    0.7593 H       1  LIG1        0.0670
     60 H           0.3231    0.2978   -0.3627 H       1  LIG1        0.0801
     61 H          -2.1659    0.0186   -2.0889 H       1  LIG1        0.0812
     62 H          -1.0651    1.5581   -3.7677 H       1  LIG1        0.0825
     63 H          -2.5300    2.6737   -2.0759 H       1  LIG1        0.0948
     64 H          -0.3949    3.8533   -3.3981 H       1  LIG1        0.2126
     65 H           2.8840    3.8367   -3.4057 H       1  LIG1        0.0664
     66 H          -0.1555   -3.0176   -3.8806 H       1  LIG1        0.0664
     67 H           1.9717   -5.7718   -3.4845 H       1  LIG1        0.2923
     68 H           4.7635   -4.3751   -3.2196 H       1  LIG1        0.2924
     69 H           5.3604   -1.6673   -3.3076 H       1  LIG1        0.2923
     70 H           6.7091    0.0488   -3.4736 H       1  LIG1        0.2923
     71 H           7.1385    2.8213   -3.3395 H       1  LIG1        0.2924
     72 H           4.8912    4.9258   -3.3739 H       1  LIG1        0.2923
     73 H          -0.6756   -3.2592    1.4974 H       1  LIG1        0.0664
     74 H          -1.8543    3.5559    4.4020 H       1  LIG1        0.0664
     75 H          -4.8581    3.9025    6.1880 H       1  LIG1        0.2923
     76 H          -5.9014    0.9305    6.3059 H       1  LIG1        0.2924
     77 H          -4.4157   -1.3553    5.5811 H       1  LIG1        0.2923
     78 H          -2.9737   -2.9893    6.4425 H       1  LIG1        0.2923
     79 H          -2.0982   -5.4228    5.0604 H       1  LIG1        0.2924
     80 H          -0.6580   -5.3817    2.3261 H       1  LIG1        0.2923
@<TRIPOS>BOND
     1     1     2    1
     2     2     3    1
     3     3     4    1
     4     4     5    1
     5     5     6    1
     6     6     7    1
     7     2     7    1
     8     6     8    1
     9     5     9    1
    10     9    10    1
    11    10    11    2
    12    10    12    1
    13    12    13   ar
    14    13    14   ar
    15    14    15   ar
    16    15    16   ar
    17    16    17   ar
    18    12    17   ar
    19    17    18    1
    20    18    19   ar
    21    19    20   ar
    22    20    21   ar
    23    21    22   ar
    24    22    23   ar
    25    18    23   ar
    26    23    24    1
    27    24    25    2
    28    24    26    1
    29     4    26    1
    30    21    27    1
    31    20    28    1
    32    19    29    1
    33    16    30    1
    34    15    31    1
    35    14    32    1
    36     3    33    1
    37    33    34    1
    38    34    35    2
    39    34    36    1
    40    36    37   ar
    41    37    38   ar
    42    38    39   ar
    43    39    40   ar
    44    40    41   ar
    45    36    41   ar
    46    41    42    1
    47    42    43   ar
    48    43    44   ar
    49    44    45   ar
    50    45    46   ar
    51    46    47   ar
    52    42    47   ar
    53    47    48    1
    54    48    49    2
    55    48    50    1
    56     1    50    1
    57    45    51    1
    58    44    52    1
    59    43    53    1
    60    40    54    1
    61    39    55    1
    62    38    56    1
    63     1    57    1
    64     1    58    1
    65     2    59    1
    66     3    60    1
    67     4    61    1
    68     5    62    1
    69     6    63    1
    70     8    64    1
    71    13    65    1
    72    22    66    1
    73    27    67    1
    74    28    68    1
    75    29    69    1
    76    30    70    1
    77    31    71    1
    78    32    72    1
    79    37    73    1
    80    46    74    1
    81    51    75    1
    82    52    76    1
    83    53    77    1
    84    54    78    1
    85    55    79    1
    86    56    80    1
