REMARK  Name = NuBBE_2039
REMARK  13 active torsions:
REMARK  status: ('A' for Active; 'I' for Inactive)
REMARK    1  A    between atoms: C_1  and  C_3
REMARK    2  A    between atoms: C_1  and  C_13
REMARK    3  A    between atoms: C_3  and  C_4
REMARK    4  A    between atoms: C_4  and  C_5
REMARK    5  A    between atoms: C_8  and  O_11
REMARK    6  A    between atoms: O_11  and  C_12
REMARK    7  A    between atoms: C_14  and  O_15
REMARK    8  A    between atoms: O_15  and  C_16
REMARK    9  A    between atoms: C_16  and  C_18
REMARK   10  A    between atoms: C_20  and  O_25
REMARK   11  A    between atoms: C_22  and  O_23
REMARK   12  A    between atoms: O_23  and  C_24
REMARK   13  A    between atoms: O_25  and  C_26
REMARK                            x       y       z     vdW  Elec       q    Type
REMARK                         _______ _______ _______ _____ _____    ______ ____
ROOT
ATOM      1  C   LIG A   1       0.836   1.341  -1.135  0.00  0.00    +0.101 A 
ATOM      2  C   LIG A   1       1.437   2.558  -0.761  0.00  0.00    +0.149 A 
ATOM      3  C   LIG A   1       2.774   2.591  -0.375  0.00  0.00    +0.092 A 
ATOM      4  C   LIG A   1       3.579   1.464  -0.493  0.00  0.00    +0.127 A 
ATOM      5  C   LIG A   1       3.028   0.280  -0.979  0.00  0.00    +0.092 A 
ATOM      6  C   LIG A   1       1.663   0.212  -1.297  0.00  0.00    +0.138 A 
ENDROOT
BRANCH   1   7
ATOM      7  C   LIG A   1      -0.658   1.260  -1.274  0.00  0.00    +0.171 C 
ATOM      8  O   LIG A   1      -1.310   2.265  -1.555  0.00  0.00    -0.292 OA
BRANCH   7   9
ATOM      9  C   LIG A   1      -1.386  -0.032  -0.926  0.00  0.00    +0.084 C 
BRANCH   9  10
ATOM     10  C   LIG A   1      -1.633  -0.131   0.573  0.00  0.00    +0.043 C 
BRANCH  10  11
ATOM     11  C   LIG A   1      -2.325  -1.422   0.937  0.00  0.00    -0.047 A 
ATOM     12  C   LIG A   1      -3.721  -1.506   0.911  0.00  0.00    +0.007 A 
ATOM     13  C   LIG A   1      -4.364  -2.695   1.262  0.00  0.00    +0.046 A 
ATOM     14  C   LIG A   1      -3.625  -3.813   1.652  0.00  0.00    +0.120 A 
ATOM     15  C   LIG A   1      -2.232  -3.750   1.639  0.00  0.00    +0.046 A 
ATOM     16  C   LIG A   1      -1.586  -2.562   1.281  0.00  0.00    +0.007 A 
BRANCH  14  17
ATOM     17  O   LIG A   1      -4.363  -4.915   1.988  0.00  0.00    -0.495 OA
ATOM     18  C   LIG A   1      -3.737  -5.824   2.887  0.00  0.00    +0.277 C 
ENDBRANCH  14  17
ENDBRANCH  10  11
ENDBRANCH   9  10
ENDBRANCH   7   9
ENDBRANCH   1   7
BRANCH   6  19
ATOM     19  O   LIG A   1       1.153  -0.891  -1.931  0.00  0.00    -0.494 OA
ATOM     20  C   LIG A   1       1.546  -2.155  -1.401  0.00  0.00    +0.277 C 
ENDBRANCH   6  19
BRANCH   4  21
ATOM     21  O   LIG A   1       4.916   1.441  -0.196  0.00  0.00    -0.495 OA
ATOM     22  C   LIG A   1       5.462   2.693   0.227  0.00  0.00    +0.277 C 
ENDBRANCH   4  21
BRANCH   2  23
ATOM     23  O   LIG A   1       0.696   3.765  -0.810  0.00  0.00    -0.425 OA
BRANCH  23  24
ATOM     24  C   LIG A   1       1.293   4.947  -1.265  0.00  0.00    +0.309 C 
ATOM     25  O   LIG A   1       2.500   5.216  -1.281  0.00  0.00    -0.251 OA
ATOM     26  C   LIG A   1       0.245   5.890  -1.755  0.00  0.00    +0.136 C 
ENDBRANCH  23  24
ENDBRANCH   2  23
TORSDOF 9
