REMARK  Name = NuBBE_1854
REMARK  3 active torsions:
REMARK  status: ('A' for Active; 'I' for Inactive)
REMARK    1  A    between atoms: C_1  and  O_2
REMARK    2  A    between atoms: O_2  and  C_3
REMARK    3  A    between atoms: N_10  and  C_11
REMARK                            x       y       z     vdW  Elec       q    Type
REMARK                         _______ _______ _______ _____ _____    ______ ____
ROOT
ATOM      1  C   LIG A   1      -0.500  -3.001   1.492  0.00  0.00    +0.121 A 
ATOM      2  C   LIG A   1       0.308  -3.687   0.584  0.00  0.00    +0.048 A 
ATOM      3  C   LIG A   1       0.944  -3.032  -0.477  0.00  0.00    +0.030 A 
ATOM      4  C   LIG A   1       0.742  -1.654  -0.595  0.00  0.00    +0.047 A 
ATOM      5  N   LIG A   1       1.229  -0.763  -1.530  0.00  0.00    -0.357 N 
ATOM      6  C   LIG A   1       0.771   0.493  -1.251  0.00  0.00    +0.034 A 
ATOM      7  C   LIG A   1       1.104   1.730  -2.012  0.00  0.00    +0.137 C 
ATOM      8  N   LIG A   1       0.140   2.803  -1.679  0.00  0.00    -0.299 NA
ATOM      9  C   LIG A   1       0.586   4.074  -2.241  0.00  0.00    +0.105 C 
ATOM     10  C   LIG A   1      -0.063   2.916  -0.213  0.00  0.00    +0.089 C 
ATOM     11  C   LIG A   1      -0.693   1.640   0.406  0.00  0.00    +0.053 C 
ATOM     12  C   LIG A   1      -0.025   0.421  -0.128  0.00  0.00    -0.017 A 
ATOM     13  C   LIG A   1      -0.056  -0.933   0.298  0.00  0.00    +0.007 A 
ATOM     14  C   LIG A   1      -0.688  -1.620   1.357  0.00  0.00    +0.056 A 
ATOM     15  H   LIG A   1       1.831  -1.014  -2.301  0.00  0.00    +0.166 HD
ENDROOT
BRANCH   1  17
ATOM     16  C   LIG A   1      -1.915  -3.149   3.398  0.00  0.00    +0.277 C 
ATOM     17  O   LIG A   1      -1.050  -3.789   2.469  0.00  0.00    -0.495 OA
ENDBRANCH   1  17
TORSDOF 1
