REMARK  Name = NuBBE_2476
REMARK  16 active torsions:
REMARK  status: ('A' for Active; 'I' for Inactive)
REMARK    1  A    between atoms: C_1  and  O_2
REMARK    2  A    between atoms: O_2  and  C_3
REMARK    3  A    between atoms: C_5  and  C_6
REMARK    4  A    between atoms: C_6  and  C_7
REMARK    5  A    between atoms: C_9  and  C_11
REMARK    6  A    between atoms: C_11  and  O_12
REMARK    7  A    between atoms: O_12  and  C_13
REMARK    8  A    between atoms: C_13  and  C_14
REMARK    9  A    between atoms: C_16  and  C_18
REMARK   10  A    between atoms: C_21  and  O_22
REMARK   11  A    between atoms: O_22  and  C_23
REMARK   12  A    between atoms: C_24  and  O_25
REMARK   13  A    between atoms: O_25  and  C_26
REMARK   14  A    between atoms: C_32  and  O_33
REMARK   15  A    between atoms: O_33  and  C_34
REMARK   16  A    between atoms: C_34  and  C_35
REMARK                            x       y       z     vdW  Elec       q    Type
REMARK                         _______ _______ _______ _____ _____    ______ ____
ROOT
ATOM      1  C   LIG A   1       0.551  -0.005  -0.456  0.00  0.00    +0.028 C 
ATOM      2  C   LIG A   1       0.160  -1.380   0.110  0.00  0.00    +0.066 C 
ATOM      3  C   LIG A   1      -1.350  -1.211   0.354  0.00  0.00    +0.155 C 
ATOM      4  O   LIG A   1      -1.583   0.201   0.541  0.00  0.00    -0.371 OA
ATOM      5  C   LIG A   1      -0.322   0.872   0.444  0.00  0.00    +0.165 C 
ENDROOT
BRANCH   3   6
ATOM      6  C   LIG A   1      -1.866  -1.932   1.571  0.00  0.00    -0.015 A 
ATOM      7  C   LIG A   1      -2.868  -2.897   1.465  0.00  0.00    +0.010 A 
ATOM      8  C   LIG A   1      -3.336  -3.551   2.607  0.00  0.00    +0.050 A 
ATOM      9  C   LIG A   1      -2.799  -3.262   3.868  0.00  0.00    +0.162 A 
ATOM     10  C   LIG A   1      -1.806  -2.276   3.991  0.00  0.00    +0.162 A 
ATOM     11  C   LIG A   1      -1.356  -1.624   2.842  0.00  0.00    +0.055 A 
BRANCH   9  12
ATOM     12  O   LIG A   1      -3.232  -3.861   5.026  0.00  0.00    -0.491 OA
ATOM     13  C   LIG A   1      -3.705  -5.196   4.891  0.00  0.00    +0.277 C 
ENDBRANCH   9  12
BRANCH  10  14
ATOM     14  O   LIG A   1      -1.321  -2.018   5.250  0.00  0.00    -0.491 OA
ATOM     15  C   LIG A   1      -0.293  -1.037   5.354  0.00  0.00    +0.277 C 
ENDBRANCH  10  14
ENDBRANCH   3   6
BRANCH   1  16
ATOM     16  C   LIG A   1       0.224   0.181  -1.952  0.00  0.00    +0.041 C 
BRANCH  16  19
ATOM     17  C   LIG A   1      -0.013   3.872  -2.921  0.00  0.00    +0.163 A 
ATOM     18  C   LIG A   1      -0.339   2.596  -2.458  0.00  0.00    +0.053 A 
ATOM     19  C   LIG A   1       0.592   1.544  -2.501  0.00  0.00    -0.043 A 
ATOM     20  C   LIG A   1       1.856   1.780  -3.052  0.00  0.00    +0.007 A 
ATOM     21  C   LIG A   1       2.186   3.041  -3.556  0.00  0.00    +0.050 A 
ATOM     22  C   LIG A   1       1.251   4.077  -3.489  0.00  0.00    +0.173 A 
BRANCH  17  24
ATOM     23  C   LIG A   1      -2.099   4.780  -2.211  0.00  0.00    +0.277 C 
ATOM     24  O   LIG A   1      -0.831   4.970  -2.829  0.00  0.00    -0.491 OA
ENDBRANCH  17  24
BRANCH  22  25
ATOM     25  O   LIG A   1       1.547   5.410  -3.845  0.00  0.00    -0.422 OA
BRANCH  25  26
ATOM     26  C   LIG A   1       2.746   5.753  -4.448  0.00  0.00    +0.309 C 
ATOM     27  C   LIG A   1       3.343   6.875  -3.655  0.00  0.00    +0.136 C 
ATOM     28  O   LIG A   1       3.278   5.190  -5.393  0.00  0.00    -0.251 OA
ENDBRANCH  25  26
ENDBRANCH  22  25
ENDBRANCH  16  19
ENDBRANCH   1  16
BRANCH   2  29
ATOM     29  C   LIG A   1       0.476  -2.653  -0.670  0.00  0.00    +0.238 C 
BRANCH  29  30
ATOM     30  O   LIG A   1       1.883  -2.860  -0.885  0.00  0.00    -0.464 OA
BRANCH  30  31
ATOM     31  C   LIG A   1       2.558  -3.479   0.141  0.00  0.00    +0.304 C 
ATOM     32  C   LIG A   1       3.849  -4.055  -0.374  0.00  0.00    +0.136 C 
ATOM     33  O   LIG A   1       2.165  -3.588   1.286  0.00  0.00    -0.251 OA
ENDBRANCH  30  31
ENDBRANCH  29  30
ENDBRANCH   2  29
TORSDOF 11
