@<TRIPOS>MOLECULE
NuBBE_1687
 53 53 0 0 0
SMALL
GASTEIGER

@<TRIPOS>ATOM
      1 C           2.3579    4.1323   -3.1874 C.2     1  LIG1       -0.1023
      2 C           2.7343    3.1138   -2.3321 C.2     1  LIG1       -0.0874
      3 C           4.0815    2.7149   -1.8301 C.3     1  LIG1       -0.0168
      4 C           4.1657    1.8566   -0.5556 C.2     1  LIG1       -0.0839
      5 C           3.6349    0.6517   -0.3188 C.2     1  LIG1       -0.0839
      6 C           2.7226   -0.1057   -1.1963 C.3     1  LIG1       -0.0165
      7 C           1.2848    0.2811   -1.0667 C.2     1  LIG1       -0.0842
      8 C           0.7380    1.4400   -0.6369 C.2     1  LIG1       -0.0876
      9 C           1.3237    2.5318    0.2392 C.3     1  LIG1       -0.0348
     10 C           0.3065    3.5579    0.6749 C.3     1  LIG1       -0.0496
     11 C          -0.4663    3.0868    1.8937 C.3     1  LIG1       -0.0528
     12 C          -1.4514    1.8903    1.7349 C.3     1  LIG1       -0.0530
     13 C          -0.9109    0.4437    1.5387 C.3     1  LIG1       -0.0528
     14 C          -1.9150   -0.6924    1.2618 C.3     1  LIG1       -0.0491
     15 C          -1.2128   -2.0008    0.7502 C.3     1  LIG1       -0.0275
     16 C          -2.0563   -3.2556    0.5712 C.ar    1  LIG1       -0.0405
     17 C          -3.4464   -3.2724    0.7379 C.ar    1  LIG1       -0.0168
     18 C          -4.1687   -4.4540    0.5340 C.ar    1  LIG1        0.1206
     19 O          -5.5258   -4.4885    0.6846 O.3     1  LIG1       -0.5066
     20 C          -3.5409   -5.6386    0.1675 C.ar    1  LIG1        0.0213
     21 C          -2.1641   -5.6337    0.0014 C.ar    1  LIG1        0.1206
     22 O          -1.4884   -6.7677   -0.3490 O.3     1  LIG1       -0.5066
     23 C          -1.4266   -4.4605    0.1873 C.ar    1  LIG1       -0.0168
     24 H           1.2932    4.2971   -3.3183 H       1  LIG1        0.0532
     25 H           3.0663    4.6999   -3.7270 H       1  LIG1        0.0532
     26 H           1.8703    2.5744   -2.0704 H       1  LIG1        0.0569
     27 H           4.6505    3.6230   -1.5995 H       1  LIG1        0.0350
     28 H           4.5818    2.1663   -2.6258 H       1  LIG1        0.0350
     29 H           4.7470    2.2926    0.2606 H       1  LIG1        0.0572
     30 H           3.7967    0.1881    0.6786 H       1  LIG1        0.0572
     31 H           2.8496   -1.1824   -1.0305 H       1  LIG1        0.0350
     32 H           2.9864    0.0685   -2.2456 H       1  LIG1        0.0350
     33 H           0.6066   -0.4838   -1.4495 H       1  LIG1        0.0572
     34 H          -0.3280    1.5618   -0.8505 H       1  LIG1        0.0569
     35 H           2.0389    3.1683   -0.2539 H       1  LIG1        0.0307
     36 H           1.8674    2.1188    1.0952 H       1  LIG1        0.0307
     37 H          -0.3390    3.8698   -0.1569 H       1  LIG1        0.0268
     38 H           0.8751    4.4663    0.9414 H       1  LIG1        0.0268
     39 H          -1.0422    3.9657    2.2170 H       1  LIG1        0.0265
     40 H           0.2542    2.8889    2.6958 H       1  LIG1        0.0265
     41 H          -2.1523    2.1506    0.9322 H       1  LIG1        0.0265
     42 H          -2.0175    1.8752    2.6692 H       1  LIG1        0.0265
     43 H          -0.1462    0.1997    2.2811 H       1  LIG1        0.0265
     44 H          -0.3952    0.3618    0.6245 H       1  LIG1        0.0265
     45 H          -2.5997   -0.3638    0.4668 H       1  LIG1        0.0268
     46 H          -2.4867   -0.8796    2.1687 H       1  LIG1        0.0268
     47 H          -0.3800   -2.2425    1.4228 H       1  LIG1        0.0313
     48 H          -0.7660   -1.8067   -0.2359 H       1  LIG1        0.0313
     49 H          -3.9696   -2.3654    1.0188 H       1  LIG1        0.0657
     50 H          -5.8274   -3.6127    0.9760 H       1  LIG1        0.2921
     51 H          -4.1349   -6.5337    0.0149 H       1  LIG1        0.0691
     52 H          -2.1247   -7.4990   -0.4270 H       1  LIG1        0.2921
     53 H          -0.3515   -4.4984    0.0229 H       1  LIG1        0.0657
@<TRIPOS>BOND
     1     1     2    2
     2     2     3    1
     3     3     4    1
     4     4     5    2
     5     5     6    1
     6     6     7    1
     7     7     8    2
     8     8     9    1
     9     9    10    1
    10    10    11    1
    11    11    12    1
    12    12    13    1
    13    13    14    1
    14    14    15    1
    15    15    16    1
    16    16    17   ar
    17    17    18   ar
    18    18    19    1
    19    18    20   ar
    20    20    21   ar
    21    21    22    1
    22    21    23   ar
    23    16    23   ar
    24     1    24    1
    25     1    25    1
    26     2    26    1
    27     3    27    1
    28     3    28    1
    29     4    29    1
    30     5    30    1
    31     6    31    1
    32     6    32    1
    33     7    33    1
    34     8    34    1
    35     9    35    1
    36     9    36    1
    37    10    37    1
    38    10    38    1
    39    11    39    1
    40    11    40    1
    41    12    41    1
    42    12    42    1
    43    13    43    1
    44    13    44    1
    45    14    45    1
    46    14    46    1
    47    15    47    1
    48    15    48    1
    49    17    49    1
    50    19    50    1
    51    20    51    1
    52    22    52    1
    53    23    53    1
