REMARK  Name = NuBBE_1907
REMARK  10 active torsions:
REMARK  status: ('A' for Active; 'I' for Inactive)
REMARK    1  A    between atoms: C_1  and  C_2
REMARK    2  A    between atoms: C_1  and  C_8
REMARK    3  A    between atoms: C_2  and  C_3
REMARK    4  A    between atoms: C_3  and  C_4
REMARK    5  A    between atoms: C_4  and  C_5
REMARK    6  A    between atoms: C_5  and  C_6
REMARK    7  A    between atoms: C_6  and  C_7
REMARK    8  A    between atoms: C_8  and  C_9
REMARK    9  A    between atoms: C_9  and  C_10
REMARK   10  A    between atoms: C_10  and  C_12
REMARK                            x       y       z     vdW  Elec       q    Type
REMARK                         _______ _______ _______ _____ _____    ______ ____
ROOT
ATOM      1  C   LIG A   1       0.680  -0.590   1.133  0.00  0.00    +0.000 C 
ENDROOT
BRANCH   1   2
ATOM      2  C   LIG A   1      -0.096   0.502   0.371  0.00  0.00    +0.000 C 
BRANCH   2   3
ATOM      3  C   LIG A   1      -0.382   0.084  -1.087  0.00  0.00    -0.000 C 
BRANCH   3   4
ATOM      4  C   LIG A   1      -1.193   1.129  -1.878  0.00  0.00    -0.000 C 
BRANCH   4   5
ATOM      5  C   LIG A   1      -1.427   0.689  -3.336  0.00  0.00    -0.000 C 
BRANCH   5   6
ATOM      6  C   LIG A   1      -2.243   1.705  -4.147  0.00  0.00    -0.003 C 
ATOM      7  C   LIG A   1      -2.462   1.239  -5.584  0.00  0.00    +0.004 C 
ENDBRANCH   5   6
ENDBRANCH   4   5
ENDBRANCH   3   4
ENDBRANCH   2   3
ENDBRANCH   1   2
BRANCH   1   8
ATOM      8  C   LIG A   1       1.003  -0.224   2.594  0.00  0.00    +0.007 C 
BRANCH   8   9
ATOM      9  C   LIG A   1       1.749  -1.364   3.300  0.00  0.00    +0.074 C 
BRANCH   9  10
ATOM     10  C   LIG A   1       2.100  -1.058   4.751  0.00  0.00    +0.130 C 
ATOM     11  O   LIG A   1       1.820   0.004   5.293  0.00  0.00    -0.298 OA
ATOM     12  C   LIG A   1       2.841  -2.143   5.503  0.00  0.00    +0.086 C 
ENDBRANCH   9  10
ENDBRANCH   8   9
ENDBRANCH   1   8
TORSDOF 8
