REMARK  Name = NuBBE_1399
REMARK  15 active torsions:
REMARK  status: ('A' for Active; 'I' for Inactive)
REMARK    1  A    between atoms: C_7  and  C_9
REMARK    2  A    between atoms: C_9  and  C_10
REMARK    3  A    between atoms: C_10  and  C_11
REMARK    4  A    between atoms: C_11  and  C_12
REMARK    5  A    between atoms: C_12  and  C_13
REMARK    6  A    between atoms: C_13  and  C_14
REMARK    7  A    between atoms: C_14  and  C_15
REMARK    8  A    between atoms: C_15  and  C_16
REMARK    9  A    between atoms: C_16  and  C_17
REMARK   10  A    between atoms: C_17  and  C_18
REMARK   11  A    between atoms: C_18  and  C_19
REMARK   12  A    between atoms: C_19  and  C_20
REMARK   13  A    between atoms: C_20  and  C_21
REMARK   14  A    between atoms: C_20  and  C_22
REMARK   15  A    between atoms: C_20  and  O_23
REMARK                            x       y       z     vdW  Elec       q    Type
REMARK                         _______ _______ _______ _____ _____    ______ ____
ROOT
ATOM      1  C   LIG A   1       1.967   0.821   0.487  0.00  0.00    +0.006 C 
ENDROOT
BRANCH   1   2
ATOM      2  C   LIG A   1       3.384   0.913   1.036  0.00  0.00    +0.053 C 
BRANCH   2   9
ATOM      3  O   LIG A   1       3.740  -0.515   5.625  0.00  0.00    -0.287 OA
ATOM      4  C   LIG A   1       3.502   0.408   4.817  0.00  0.00    +0.190 A 
ATOM      5  C   LIG A   1       3.325   1.793   5.276  0.00  0.00    +0.045 A 
ATOM      6  C   LIG A   1       3.239   2.801   4.295  0.00  0.00    +0.050 A 
ATOM      7  N   LIG A   1       3.310   2.459   2.948  0.00  0.00    -0.358 N 
ATOM      8  H   LIG A   1       3.778   3.161   2.336  0.00  0.00    +0.166 HD
ATOM      9  C   LIG A   1       3.368   1.168   2.513  0.00  0.00    +0.020 A 
ATOM     10  C   LIG A   1       3.414   0.107   3.380  0.00  0.00    +0.072 A 
ATOM     11  C   LIG A   1       2.906   4.098   4.695  0.00  0.00    +0.026 A 
ATOM     12  C   LIG A   1       2.752   4.405   6.049  0.00  0.00    +0.002 A 
ATOM     13  C   LIG A   1       2.946   3.414   7.016  0.00  0.00    +0.001 A 
ATOM     14  C   LIG A   1       3.219   2.106   6.634  0.00  0.00    +0.013 A 
ENDBRANCH   2   9
ENDBRANCH   1   2
BRANCH   1  15
ATOM     15  C   LIG A   1       1.995   0.597  -1.018  0.00  0.00    +0.000 C 
BRANCH  15  16
ATOM     16  C   LIG A   1       0.592   0.480  -1.599  0.00  0.00    +0.000 C 
BRANCH  16  17
ATOM     17  C   LIG A   1      -0.194   1.782  -1.446  0.00  0.00    -0.000 C 
BRANCH  17  18
ATOM     18  C   LIG A   1      -1.617   1.843  -1.989  0.00  0.00    -0.000 C 
BRANCH  18  19
ATOM     19  C   LIG A   1      -1.817   1.595  -3.473  0.00  0.00    -0.000 C 
BRANCH  19  20
ATOM     20  C   LIG A   1      -1.624   0.188  -4.021  0.00  0.00    -0.000 C 
BRANCH  20  21
ATOM     21  C   LIG A   1      -2.529  -0.956  -3.527  0.00  0.00    +0.000 C 
BRANCH  21  22
ATOM     22  C   LIG A   1      -2.505  -1.388  -2.048  0.00  0.00    +0.003 C 
BRANCH  22  23
ATOM     23  C   LIG A   1      -3.461  -2.528  -1.604  0.00  0.00    +0.034 C 
BRANCH  23  24
ATOM     24  C   LIG A   1      -3.138  -3.973  -2.023  0.00  0.00    +0.060 C 
ATOM     25  C   LIG A   1      -4.141  -4.986  -1.446  0.00  0.00    +0.041 C 
ATOM     26  C   LIG A   1      -3.142  -4.155  -3.535  0.00  0.00    +0.041 C 
BRANCH  24  27
ATOM     27  O   LIG A   1      -1.846  -4.302  -1.510  0.00  0.00    -0.389 OA
ATOM     28  H   LIG A   1      -1.681  -5.243  -1.695  0.00  0.00    +0.210 HD
ENDBRANCH  24  27
ENDBRANCH  23  24
ENDBRANCH  22  23
ENDBRANCH  21  22
ENDBRANCH  20  21
ENDBRANCH  19  20
ENDBRANCH  18  19
ENDBRANCH  17  18
ENDBRANCH  16  17
ENDBRANCH  15  16
ENDBRANCH   1  15
TORSDOF 13
