REMARK  Name = NuBBE_1725
REMARK  8 active torsions:
REMARK  status: ('A' for Active; 'I' for Inactive)
REMARK    1  A    between atoms: C_1  and  C_2
REMARK    2  A    between atoms: C_5  and  C_6
REMARK    3  A    between atoms: C_11  and  C_12
REMARK    4  A    between atoms: C_11  and  C_13
REMARK    5  A    between atoms: C_14  and  O_18
REMARK    6  A    between atoms: C_23  and  C_24
REMARK    7  A    between atoms: C_27  and  C_29
REMARK    8  A    between atoms: C_29  and  C_30
REMARK                            x       y       z     vdW  Elec       q    Type
REMARK                         _______ _______ _______ _____ _____    ______ ____
ROOT
ATOM      1  C   LIG A   1      -1.738   0.062   0.407  0.00  0.00    +0.012 C 
ATOM      2  C   LIG A   1      -0.532  -0.243  -0.534  0.00  0.00    -0.023 C 
ATOM      3  C   LIG A   1       0.724  -0.743   0.260  0.00  0.00    +0.002 C 
ATOM      4  C   LIG A   1       0.597  -2.155   0.976  0.00  0.00    -0.025 C 
ATOM      5  C   LIG A   1      -0.365  -2.074   2.185  0.00  0.00    +0.012 C 
ATOM      6  C   LIG A   1       0.157  -3.192  -0.127  0.00  0.00    +0.003 C 
ATOM      7  C   LIG A   1      -1.144  -2.758  -0.833  0.00  0.00    +0.005 C 
ATOM      8  C   LIG A   1      -0.998  -1.377  -1.493  0.00  0.00    +0.008 C 
ATOM      9  C   LIG A   1       0.205  -4.708   0.299  0.00  0.00    -0.006 C 
ATOM     10  C   LIG A   1      -0.892  -5.099   1.310  0.00  0.00    +0.014 C 
ATOM     11  C   LIG A   1      -0.015  -5.611  -0.945  0.00  0.00    +0.014 C 
ATOM     12  C   LIG A   1       1.605  -5.039   0.899  0.00  0.00    +0.120 C 
ATOM     13  C   LIG A   1       2.076  -4.048   1.962  0.00  0.00    +0.032 C 
ATOM     14  C   LIG A   1       1.999  -2.587   1.503  0.00  0.00    +0.010 C 
ATOM     15  C   LIG A   1       1.391   0.366   1.109  0.00  0.00    +0.005 C 
ATOM     16  C   LIG A   1       0.822   1.781   0.990  0.00  0.00    +0.005 C 
ATOM     17  C   LIG A   1       0.376   2.230  -0.406  0.00  0.00    +0.002 C 
ATOM     18  C   LIG A   1      -0.091   1.066  -1.351  0.00  0.00    -0.023 C 
ATOM     19  C   LIG A   1       1.084   0.809  -2.345  0.00  0.00    +0.012 C 
ATOM     20  C   LIG A   1      -1.242   1.672  -2.197  0.00  0.00    +0.008 C 
ATOM     21  C   LIG A   1      -1.245   3.161  -1.892  0.00  0.00    +0.008 C 
ATOM     22  C   LIG A   1      -0.781   3.273  -0.429  0.00  0.00    +0.036 C 
ENDROOT
BRANCH  22  23
ATOM     23  C   LIG A   1      -0.429   4.734  -0.013  0.00  0.00    +0.114 C 
ATOM     24  C   LIG A   1       0.032   4.832   1.451  0.00  0.00    +0.056 C 
ATOM     25  O   LIG A   1       0.628   5.242  -0.845  0.00  0.00    -0.458 OA
ATOM     26  C   LIG A   1       0.431   6.567  -1.107  0.00  0.00    +0.308 C 
ATOM     27  O   LIG A   1       1.227   7.274  -1.703  0.00  0.00    -0.251 OA
ATOM     28  C   LIG A   1      -0.870   7.026  -0.524  0.00  0.00    +0.124 C 
ATOM     29  C   LIG A   1      -1.578   5.718  -0.250  0.00  0.00    +0.059 C 
ENDBRANCH  22  23
BRANCH  12  30
ATOM     30  O   LIG A   1       2.606  -5.110  -0.123  0.00  0.00    -0.391 OA
ATOM     31  H   LIG A   1       2.688  -4.239  -0.542  0.00  0.00    +0.210 HD
ENDBRANCH  12  30
TORSDOF 2
