REMARK  Name = NuBBE_254
REMARK  2 active torsions:
REMARK  status: ('A' for Active; 'I' for Inactive)
REMARK    1  A    between atoms: O_1  and  C_2
REMARK    2  A    between atoms: C_5  and  O_7
REMARK                            x       y       z     vdW  Elec       q    Type
REMARK                         _______ _______ _______ _____ _____    ______ ____
ROOT
ATOM      1  C   LIG A   1      -1.413  -1.536  -0.083  0.00  0.00    +0.128 A 
ATOM      2  C   LIG A   1      -0.719  -0.318  -0.052  0.00  0.00    +0.064 A 
ATOM      3  C   LIG A   1       0.688  -0.309  -0.091  0.00  0.00    -0.005 A 
ATOM      4  C   LIG A   1       1.471   0.979  -0.065  0.00  0.00    +0.146 C 
ATOM      5  C   LIG A   1       0.635   2.177  -0.507  0.00  0.00    +0.044 C 
ATOM      6  C   LIG A   1      -0.679   2.233   0.256  0.00  0.00    +0.082 C 
ATOM      7  C   LIG A   1      -1.467   0.963   0.047  0.00  0.00    +0.167 C 
ATOM      8  O   LIG A   1      -2.697   0.954   0.018  0.00  0.00    -0.292 OA
ATOM      9  C   LIG A   1       1.373  -1.537  -0.130  0.00  0.00    +0.007 A 
ATOM     10  C   LIG A   1       0.674  -2.744  -0.142  0.00  0.00    +0.004 A 
ATOM     11  C   LIG A   1      -0.719  -2.744  -0.124  0.00  0.00    +0.046 A 
ENDROOT
BRANCH   1  12
ATOM     12  O   LIG A   1      -2.779  -1.624  -0.072  0.00  0.00    -0.506 OA
ATOM     13  H   LIG A   1      -3.140  -0.708  -0.058  0.00  0.00    +0.292 HD
ENDBRANCH   1  12
BRANCH   4  14
ATOM     14  O   LIG A   1       1.948   1.216   1.254  0.00  0.00    -0.387 OA
ATOM     15  H   LIG A   1       2.254   0.370   1.623  0.00  0.00    +0.210 HD
ENDBRANCH   4  14
TORSDOF 2
