REMARK  Name = NuBBE_1543
REMARK  7 active torsions:
REMARK  status: ('A' for Active; 'I' for Inactive)
REMARK    1  A    between atoms: C_1  and  C_2
REMARK    2  A    between atoms: C_2  and  C_3
REMARK    3  A    between atoms: C_4  and  C_5
REMARK    4  A    between atoms: C_5  and  C_6
REMARK    5  A    between atoms: C_7  and  C_8
REMARK    6  A    between atoms: C_7  and  C_15
REMARK    7  A    between atoms: C_11  and  C_12
REMARK                            x       y       z     vdW  Elec       q    Type
REMARK                         _______ _______ _______ _____ _____    ______ ____
ROOT
ATOM      1  C   LIG A   1      -1.257  -0.481  -0.414  0.00  0.00    -0.024 C 
ATOM      2  C   LIG A   1      -0.018  -0.296  -0.923  0.00  0.00    -0.073 C 
ATOM      3  C   LIG A   1       0.129   0.560  -2.161  0.00  0.00    +0.039 C 
ENDROOT
BRANCH   2   4
ATOM      4  C   LIG A   1       1.246  -0.932  -0.330  0.00  0.00    +0.018 C 
ATOM      5  C   LIG A   1       1.936  -0.042   0.717  0.00  0.00    +0.012 C 
ATOM      6  C   LIG A   1       2.761   1.102   0.121  0.00  0.00    +0.030 C 
ATOM      7  C   LIG A   1       3.527   0.725  -1.124  0.00  0.00    -0.076 C 
ATOM      8  C   LIG A   1       4.538   1.729  -1.602  0.00  0.00    +0.038 C 
ATOM      9  C   LIG A   1       3.312  -0.430  -1.772  0.00  0.00    -0.027 C 
ATOM     10  C   LIG A   1       2.279  -1.443  -1.362  0.00  0.00    +0.035 C 
ENDBRANCH   2   4
BRANCH   1  11
ATOM     11  C   LIG A   1      -1.677  -1.274   0.794  0.00  0.00    +0.054 C 
BRANCH  11  15
ATOM     12  C   LIG A   1      -4.263   0.734   2.963  0.00  0.00    +0.038 C 
ATOM     13  C   LIG A   1      -3.717  -0.166   1.885  0.00  0.00    -0.079 C 
ATOM     14  C   LIG A   1      -4.759  -0.715   0.949  0.00  0.00    +0.038 C 
ATOM     15  C   LIG A   1      -2.394  -0.409   1.795  0.00  0.00    -0.024 C 
ENDBRANCH  11  15
ENDBRANCH   1  11
TORSDOF 3
