@<TRIPOS>MOLECULE
NuBBE_354
 36 36 0 0 0
SMALL
GASTEIGER

@<TRIPOS>ATOM
      1 O          -2.1824    1.0670    3.8664 O.2     1  LIG1       -0.2450
      2 C          -2.3410   -0.0760    3.4732 C.2     1  LIG1        0.3389
      3 O          -3.3902   -0.8923    3.7469 O.3     1  LIG1       -0.4645
      4 C          -4.4939   -0.2480    4.3796 C.3     1  LIG1        0.0820
      5 C          -1.5040   -0.7267    2.4449 C.ar    1  LIG1        0.0595
      6 C          -0.9035    0.0704    1.4560 C.ar    1  LIG1       -0.0410
      7 C          -0.2300   -0.4917    0.3519 C.ar    1  LIG1       -0.0027
      8 C           0.2824    0.4795   -0.7087 C.3     1  LIG1        0.0046
      9 C           1.5353    0.0855   -1.5202 C.3     1  LIG1        0.0874
     10 O           1.1689   -1.0368   -2.3525 O.3     1  LIG1       -0.3886
     11 C           2.0626    1.1610   -2.5134 C.3     1  LIG1        0.0865
     12 C           3.2775    0.6138   -3.2826 C.3     1  LIG1       -0.0339
     13 O           1.0144    1.3872   -3.4759 O.3     1  LIG1       -0.3866
     14 C           2.4246    2.4923   -1.8617 C.3     1  LIG1       -0.0339
     15 C          -0.2008   -1.8978    0.2871 C.ar    1  LIG1        0.1201
     16 O           0.3003   -2.6443   -0.7347 O.3     1  LIG1       -0.5065
     17 C          -0.7463   -2.6909    1.3014 C.ar    1  LIG1       -0.0191
     18 C          -1.3948   -2.1187    2.3828 C.ar    1  LIG1       -0.0443
     19 H          -5.1829   -1.0218    4.7297 H       1  LIG1        0.0661
     20 H          -5.0160    0.3693    3.6418 H       1  LIG1        0.0661
     21 H          -4.1788    0.3546    5.2360 H       1  LIG1        0.0661
     22 H          -1.0152    1.1549    1.5320 H       1  LIG1        0.0629
     23 H           0.5032    1.4248   -0.1958 H       1  LIG1        0.0340
     24 H          -0.5568    0.6719   -1.3917 H       1  LIG1        0.0340
     25 H           2.3344   -0.2337   -0.8391 H       1  LIG1        0.0625
     26 H           0.6899   -0.6273   -3.1150 H       1  LIG1        0.2099
     27 H           3.0219   -0.2855   -3.8541 H       1  LIG1        0.0258
     28 H           4.1023    0.3689   -2.6051 H       1  LIG1        0.0258
     29 H           3.6371    1.3410   -4.0191 H       1  LIG1        0.0258
     30 H           1.3579    1.9987   -4.1516 H       1  LIG1        0.2102
     31 H           3.2106    2.3709   -1.1104 H       1  LIG1        0.0258
     32 H           1.5539    2.9662   -1.3949 H       1  LIG1        0.0258
     33 H           2.7777    3.2043   -2.6169 H       1  LIG1        0.0258
     34 H           0.6249   -2.0583   -1.4450 H       1  LIG1        0.2921
     35 H          -0.6971   -3.7778    1.2194 H       1  LIG1        0.0654
     36 H          -1.8458   -2.7545    3.1395 H       1  LIG1        0.0627
@<TRIPOS>BOND
     1     1     2    2
     2     2     3    1
     3     3     4    1
     4     2     5    1
     5     5     6   ar
     6     6     7   ar
     7     7     8    1
     8     8     9    1
     9     9    10    1
    10     9    11    1
    11    11    12    1
    12    11    13    1
    13    11    14    1
    14     7    15   ar
    15    15    16    1
    16    15    17   ar
    17    17    18   ar
    18     5    18   ar
    19     4    19    1
    20     4    20    1
    21     4    21    1
    22     6    22    1
    23     8    23    1
    24     8    24    1
    25     9    25    1
    26    10    26    1
    27    12    27    1
    28    12    28    1
    29    12    29    1
    30    13    30    1
    31    14    31    1
    32    14    32    1
    33    14    33    1
    34    16    34    1
    35    17    35    1
    36    18    36    1
