@<TRIPOS>MOLECULE
NuBBE_2103
 55 58 0 0 0
SMALL
GASTEIGER

@<TRIPOS>ATOM
      1 O           0.2186   -1.3835   -2.5624 O.3     1  LIG1       -0.3654
      2 C          -0.2985   -0.9762   -3.8289 C.3     1  LIG1        0.0379
      3 C           0.4078   -0.3295   -1.6050 C.3     1  LIG1        0.1675
      4 C           0.9474   -0.9352   -0.2513 C.3     1  LIG1        0.0268
      5 H           1.5578   -1.8072   -0.5407 H       1  LIG1        0.0385
      6 C           2.0252    0.1076    0.2496 C.3     1  LIG1       -0.0219
      7 H           2.9975   -0.3757    0.0615 H       1  LIG1        0.0314
      8 C           1.9178    1.3112   -0.7472 C.3     1  LIG1        0.0282
      9 C           1.5653    0.5861   -2.0611 C.3     1  LIG1        0.1017
     10 O           2.6753   -0.1686   -2.5593 O.3     1  LIG1       -0.3876
     11 C           3.2438    2.1117   -0.8604 C.3     1  LIG1       -0.0230
     12 C           3.2006    3.2676   -1.8320 C.2     1  LIG1       -0.0902
     13 C           3.4420    4.5392   -1.4868 C.2     1  LIG1       -0.1026
     14 C           0.7446    2.1966   -0.3544 C.2     1  LIG1       -0.0294
     15 C          -0.5349    1.8959   -0.6464 C.2     1  LIG1        0.1621
     16 C          -0.8023    0.5854   -1.3345 C.2     1  LIG1        0.2316
     17 O          -1.9357    0.2555   -1.6831 O.2     1  LIG1       -0.2856
     18 O          -1.5393    2.7656   -0.2223 O.2     1  LIG1       -0.4918
     19 C          -2.7162    2.7637   -1.0276 C.3     1  LIG1        0.0789
     20 C           2.0814    0.4982    1.7244 C.3     1  LIG1       -0.0609
     21 C          -0.1083   -1.5384    0.6804 C.ar    1  LIG1       -0.0336
     22 C          -0.4335   -2.9045    0.5394 C.ar    1  LIG1       -0.0123
     23 C          -1.3903   -3.4673    1.3700 C.ar    1  LIG1        0.1702
     24 C          -2.0366   -2.7428    2.3446 C.ar    1  LIG1        0.2075
     25 C          -1.7624   -1.4017    2.5238 C.ar    1  LIG1        0.1656
     26 C          -0.8134   -0.8074    1.6644 C.ar    1  LIG1       -0.0125
     27 O          -2.3106   -0.5563    3.4485 O.3     1  LIG1       -0.4913
     28 C          -3.2707   -1.1146    4.3396 C.3     1  LIG1        0.0790
     29 O          -2.9268   -3.5120    3.0330 O.3     1  LIG1       -0.4489
     30 C          -2.8370   -4.7595    2.3268 C.3     1  LIG1        0.2334
     31 O          -1.8010   -4.7674    1.3275 O.3     1  LIG1       -0.4525
     32 H          -1.3584   -0.7194   -3.7719 H       1  LIG1        0.0524
     33 H          -0.1999   -1.8204   -4.5164 H       1  LIG1        0.0524
     34 H           0.2646   -0.1389   -4.2499 H       1  LIG1        0.0524
     35 H           1.2632    1.2805   -2.8538 H       1  LIG1        0.0636
     36 H           2.3072   -0.8748   -3.1249 H       1  LIG1        0.2100
     37 H           3.5313    2.4840    0.1303 H       1  LIG1        0.0317
     38 H           4.0599    1.4479   -1.1748 H       1  LIG1        0.0317
     39 H           2.9823    3.0416   -2.8741 H       1  LIG1        0.0567
     40 H           3.6890    4.8167   -0.4666 H       1  LIG1        0.0532
     41 H           3.4063    5.3351   -2.2247 H       1  LIG1        0.0532
     42 H           0.9687    3.1077    0.1952 H       1  LIG1        0.0616
     43 H          -3.3749    3.5632   -0.6787 H       1  LIG1        0.0660
     44 H          -3.2834    1.8371   -0.9120 H       1  LIG1        0.0660
     45 H          -2.4662    2.9564   -2.0766 H       1  LIG1        0.0660
     46 H           1.2124    1.0675    2.0575 H       1  LIG1        0.0233
     47 H           2.9491    1.1401    1.9128 H       1  LIG1        0.0233
     48 H           2.1885   -0.3843    2.3617 H       1  LIG1        0.0233
     49 H           0.0413   -3.5248   -0.2159 H       1  LIG1        0.0658
     50 H          -0.6558    0.2591    1.7859 H       1  LIG1        0.0658
     51 H          -3.5868   -0.3282    5.0315 H       1  LIG1        0.0660
     52 H          -2.8372   -1.9195    4.9432 H       1  LIG1        0.0660
     53 H          -4.1611   -1.4494    3.7970 H       1  LIG1        0.0660
     54 H          -3.8021   -4.9547    1.8431 H       1  LIG1        0.1166
     55 H          -2.6456   -5.5591    3.0517 H       1  LIG1        0.1166
@<TRIPOS>BOND
     1     1     2    1
     2     3     4    1
     3     4     6    1
     4     6     8    1
     5     8     9    1
     6     3     9    1
     7    11    12    1
     8    12    13    2
     9     8    14    1
    10    14    15    2
    11    15    16    1
    12     3    16    1
    13    18    19    1
    14    21    22   ar
    15    22    23   ar
    16    23    24   ar
    17    24    25   ar
    18    25    26   ar
    19    21    26   ar
    20    25    27    1
    21    27    28    1
    22    24    29    1
    23    29    30    1
    24    30    31    1
    25    23    31    1
    26     1     3    1
    27     4     5    1
    28     4    21    1
    29     6     7    1
    30     6    20    1
    31     8    11    1
    32     9    10    1
    33    15    18    1
    34    16    17    2
    35     2    32    1
    36     2    33    1
    37     2    34    1
    38     9    35    1
    39    10    36    1
    40    11    37    1
    41    11    38    1
    42    12    39    1
    43    13    40    1
    44    13    41    1
    45    14    42    1
    46    19    43    1
    47    19    44    1
    48    19    45    1
    49    20    46    1
    50    20    47    1
    51    20    48    1
    52    22    49    1
    53    26    50    1
    54    28    51    1
    55    28    52    1
    56    28    53    1
    57    30    54    1
    58    30    55    1
