REMARK  Name = NuBBE_1140
REMARK  8 active torsions:
REMARK  status: ('A' for Active; 'I' for Inactive)
REMARK    1  A    between atoms: C_1  and  C_2
REMARK    2  A    between atoms: C_2  and  C_3
REMARK    3  A    between atoms: C_3  and  C_4
REMARK    4  A    between atoms: C_7  and  O_29
REMARK    5  A    between atoms: C_8  and  O_9
REMARK    6  A    between atoms: O_9  and  C_10
REMARK    7  A    between atoms: N_16  and  C_17
REMARK    8  A    between atoms: O_29  and  C_30
REMARK                            x       y       z     vdW  Elec       q    Type
REMARK                         _______ _______ _______ _____ _____    ______ ____
ROOT
ATOM      1  C   LIG A   1       0.094  -0.556  -1.357  0.00  0.00    +0.115 C 
ATOM      2  C   LIG A   1      -0.513   0.843  -1.507  0.00  0.00    +0.026 A 
ATOM      3  C   LIG A   1      -1.067   1.299  -2.730  0.00  0.00    +0.167 A 
ATOM      4  C   LIG A   1      -1.462   2.646  -2.849  0.00  0.00    +0.162 A 
ATOM      5  C   LIG A   1      -1.394   3.480  -1.728  0.00  0.00    +0.050 A 
ATOM      6  C   LIG A   1      -0.928   2.999  -0.503  0.00  0.00    +0.012 A 
ATOM      7  C   LIG A   1      -0.478   1.681  -0.367  0.00  0.00    -0.007 A 
ATOM      8  C   LIG A   1      -0.051   1.106   0.931  0.00  0.00    +0.004 A 
ATOM      9  C   LIG A   1      -0.028  -0.308   1.083  0.00  0.00    +0.046 A 
ATOM     10  N   LIG A   1      -0.291  -1.140  -0.042  0.00  0.00    -0.324 N 
ATOM     11  C   LIG A   1      -1.647  -1.709  -0.026  0.00  0.00    +0.130 C 
ATOM     12  C   LIG A   1       0.269  -0.901   2.352  0.00  0.00    +0.007 A 
ATOM     13  C   LIG A   1       0.562  -0.050   3.458  0.00  0.00    -0.012 A 
ATOM     14  C   LIG A   1       0.588   1.334   3.275  0.00  0.00    +0.009 A 
ATOM     15  C   LIG A   1       0.289   1.900   2.035  0.00  0.00    +0.011 A 
ATOM     16  C   LIG A   1       0.824  -0.586   4.731  0.00  0.00    +0.058 A 
ATOM     17  C   LIG A   1       0.783  -1.952   4.890  0.00  0.00    +0.167 A 
ATOM     18  C   LIG A   1       0.526  -2.788   3.837  0.00  0.00    +0.167 A 
ATOM     19  O   LIG A   1       0.524  -4.098   4.204  0.00  0.00    -0.453 OA
ATOM     20  C   LIG A   1       0.774  -3.983   5.620  0.00  0.00    +0.466 C 
ATOM     21  O   LIG A   1       0.980  -2.623   6.056  0.00  0.00    -0.453 OA
ATOM     22  C   LIG A   1       0.291  -2.301   2.569  0.00  0.00    +0.060 A 
ENDROOT
BRANCH   4  23
ATOM     23  O   LIG A   1      -1.906   3.114  -4.058  0.00  0.00    -0.491 OA
ATOM     24  C   LIG A   1      -1.651   4.490  -4.333  0.00  0.00    +0.277 C 
ENDBRANCH   4  23
BRANCH   3  25
ATOM     25  O   LIG A   1      -1.091   0.369  -3.740  0.00  0.00    -0.491 OA
ATOM     26  C   LIG A   1      -2.182   0.404  -4.658  0.00  0.00    +0.277 C 
ENDBRANCH   3  25
BRANCH   1  27
ATOM     27  C   LIG A   1       1.627  -0.495  -1.497  0.00  0.00    +0.101 C 
BRANCH  27  29
ATOM     28  C   LIG A   1       3.684  -1.896  -0.822  0.00  0.00    +0.086 C 
ATOM     29  C   LIG A   1       2.283  -1.859  -1.402  0.00  0.00    +0.132 C 
ATOM     30  O   LIG A   1       1.785  -2.867  -1.883  0.00  0.00    -0.298 OA
ENDBRANCH  27  29
ENDBRANCH   1  27
TORSDOF 4
