REMARK  Name = NuBBE_860
REMARK  10 active torsions:
REMARK  status: ('A' for Active; 'I' for Inactive)
REMARK    1  A    between atoms: C_1  and  C_2
REMARK    2  A    between atoms: C_2  and  C_3
REMARK    3  A    between atoms: C_11  and  O_12
REMARK    4  A    between atoms: C_13  and  C_16
REMARK    5  A    between atoms: C_20  and  C_22
REMARK    6  A    between atoms: C_30  and  C_31
REMARK    7  A    between atoms: C_34  and  C_36
REMARK    8  A    between atoms: C_36  and  C_37
REMARK    9  A    between atoms: C_37  and  O_38
REMARK   10  A    between atoms: O_38  and  C_39
REMARK                            x       y       z     vdW  Elec       q    Type
REMARK                         _______ _______ _______ _____ _____    ______ ____
ROOT
ATOM      1  C   LIG A   1      -3.711   2.365  -0.831  0.00  0.00    +0.014 C 
ATOM      2  C   LIG A   1      -2.958   1.151  -0.233  0.00  0.00    -0.004 C 
ATOM      3  C   LIG A   1      -4.011   0.283   0.501  0.00  0.00    +0.014 C 
ATOM      4  C   LIG A   1      -2.406   0.336  -1.428  0.00  0.00    +0.135 C 
ATOM      5  C   LIG A   1      -1.264   1.000  -2.195  0.00  0.00    +0.088 C 
ATOM      6  C   LIG A   1      -0.337  -0.163  -2.464  0.00  0.00    +0.052 C 
ATOM      7  C   LIG A   1      -0.461  -0.936  -1.140  0.00  0.00    +0.104 C 
ATOM      8  O   LIG A   1      -1.894  -0.912  -0.927  0.00  0.00    -0.366 OA
ATOM      9  C   LIG A   1      -0.022  -2.472  -1.078  0.00  0.00    +0.114 C 
ATOM     10  C   LIG A   1       1.247  -2.778  -0.198  0.00  0.00    +0.041 C 
ATOM     11  C   LIG A   1       1.145  -2.071   1.197  0.00  0.00    +0.014 C 
ATOM     12  C   LIG A   1       0.183  -0.885   1.287  0.00  0.00    +0.008 C 
ATOM     13  C   LIG A   1       1.327  -4.303   0.166  0.00  0.00    +0.018 C 
ATOM     14  C   LIG A   1       0.170  -3.087  -2.466  0.00  0.00    +0.159 C 
ATOM     15  C   LIG A   1       1.363  -2.477  -3.143  0.00  0.00    +0.311 C 
ATOM     16  O   LIG A   1       2.236  -1.854  -2.313  0.00  0.00    -0.456 OA
ATOM     17  C   LIG A   1       2.535  -2.507  -1.064  0.00  0.00    +0.218 C 
ATOM     18  O   LIG A   1       1.484  -2.443  -4.361  0.00  0.00    -0.251 OA
ATOM     19  C   LIG A   1       0.183  -0.087  -0.011  0.00  0.00    +0.037 C 
ATOM     20  C   LIG A   1      -0.350   1.402   0.139  0.00  0.00    +0.036 C 
ATOM     21  C   LIG A   1       0.782   2.199   0.818  0.00  0.00    +0.019 C 
ATOM     22  C   LIG A   1      -0.520   1.934  -1.279  0.00  0.00    +0.145 C 
ATOM     23  O   LIG A   1      -0.099   3.020  -1.663  0.00  0.00    -0.296 OA
ATOM     24  C   LIG A   1      -1.782   1.530   0.803  0.00  0.00    +0.021 C 
ENDROOT
BRANCH  17  25
ATOM     25  C   LIG A   1       3.707  -1.822  -0.411  0.00  0.00    +0.031 A 
ATOM     26  C   LIG A   1       4.901  -2.417  -0.041  0.00  0.00    +0.202 A 
ATOM     27  O   LIG A   1       5.773  -1.505   0.460  0.00  0.00    -0.471 OA
ATOM     28  C   LIG A   1       5.158  -0.301   0.404  0.00  0.00    +0.195 A 
ATOM     29  C   LIG A   1       3.900  -0.437  -0.131  0.00  0.00    +0.048 A 
ENDBRANCH  17  25
BRANCH   9  30
ATOM     30  O   LIG A   1      -1.120  -3.200  -0.471  0.00  0.00    -0.385 OA
ATOM     31  H   LIG A   1      -1.892  -2.592  -0.487  0.00  0.00    +0.210 HD
ENDBRANCH   9  30
BRANCH  24  32
ATOM     32  C   LIG A   1      -2.068   2.893   1.490  0.00  0.00    +0.125 C 
BRANCH  32  33
ATOM     33  C   LIG A   1      -1.287   3.201   2.762  0.00  0.00    +0.307 C 
ATOM     34  O   LIG A   1      -1.309   2.534   3.775  0.00  0.00    -0.251 OA
BRANCH  33  35
ATOM     35  O   LIG A   1      -0.615   4.377   2.589  0.00  0.00    -0.468 OA
ATOM     36  C   LIG A   1      -0.011   4.950   3.749  0.00  0.00    +0.280 C 
ENDBRANCH  33  35
ENDBRANCH  32  33
ENDBRANCH  24  32
TORSDOF 5
