@<TRIPOS>MOLECULE
NuBBE_1797
 75 75 0 0 0
SMALL
GASTEIGER

@<TRIPOS>ATOM
      1 O          -0.5905    1.8141    1.7098 O.2     1  LIG1        0.0000
      2 C          -0.2117    1.0233    0.9377 C.2     1  LIG1        0.0000
      3 O           0.9370    1.2617    0.0425 O.3     1  LIG1        0.0000
      4 C          -0.6757   -0.3982    0.5947 C.3     1  LIG1        0.0000
      5 C          -2.2355   -0.5695    0.5789 C.3     1  LIG1        0.0000
      6 C          -3.2361   -1.7689    0.2807 C.3     1  LIG1        0.0000
      7 O          -4.5713   -1.1608    0.0588 O.3     1  LIG1        0.0000
      8 SI         -5.4767   -0.3811    1.2870 Si      1  LIG1        0.0000
      9 C          -7.3338    0.1775    0.8813 C.3     1  LIG1        0.0000
     10 C          -5.8882   -1.4674    2.7673 C.3     1  LIG1        0.0000
     11 C          -4.7507    1.3028    1.6584 C.3     1  LIG1        0.0000
     12 C          -2.9112   -2.8281   -0.8454 C.3     1  LIG1        0.0000
     13 O          -3.8445   -3.9474   -0.9172 O.3     1  LIG1        0.0000
     14 SI         -5.3202   -3.8879   -1.7346 Si      1  LIG1        0.0000
     15 C          -6.1764   -5.5917   -1.9233 C.3     1  LIG1        0.0000
     16 C          -6.6649   -3.0628   -0.7070 C.3     1  LIG1        0.0000
     17 C          -5.1939   -2.9905   -3.3773 C.3     1  LIG1        0.0000
     18 C           0.1245   -0.8397   -0.6150 C.3     1  LIG1        0.0000
     19 C           1.3235    0.1122   -0.7470 C.3     1  LIG1        0.0000
     20 C           2.6782   -0.4862   -0.2964 C.3     1  LIG1        0.0000
     21 C           4.0165    0.3374   -0.3232 C.3     1  LIG1        0.0000
     22 C           5.1908   -0.5169    0.2285 C.3     1  LIG1        0.0000
     23 C           6.6372    0.0570    0.2041 C.3     1  LIG1        0.0000
     24 C           6.9953    1.3708    0.9741 C.3     1  LIG1        0.0000
     25 C           6.8356    2.7363    0.2193 C.3     1  LIG1        0.0000
     26 C           7.1723    4.0274    1.0405 C.3     1  LIG1        0.0000
     27 C           7.1632    5.4120    0.3031 C.3     1  LIG1        0.0000
     28 C           8.0839    5.7345   -0.8561 C.2     1  LIG1        0.0000
     29 C           9.2822    6.3416   -0.8118 C.2     1  LIG1        0.0000
     30 H          -0.3076   -0.9625    1.4764 H       1  LIG1        0.0000
     31 H          -2.6505    0.3320    0.1033 H       1  LIG1        0.0000
     32 H          -2.4474   -0.4431    1.6568 H       1  LIG1        0.0000
     33 H          -3.3356   -2.3876    1.1824 H       1  LIG1        0.0000
     34 H          -7.9756   -0.6710    0.6333 H       1  LIG1        0.0000
     35 H          -7.3661    0.9496    0.1106 H       1  LIG1        0.0000
     36 H          -7.7136    0.6166    1.8169 H       1  LIG1        0.0000
     37 H          -6.4264   -2.3637    2.4367 H       1  LIG1        0.0000
     38 H          -6.5771   -0.9225    3.4244 H       1  LIG1        0.0000
     39 H          -5.0182   -1.7685    3.3492 H       1  LIG1        0.0000
     40 H          -4.8227    1.9158    0.7519 H       1  LIG1        0.0000
     41 H          -3.7063    1.2666    1.9626 H       1  LIG1        0.0000
     42 H          -5.3258    1.7941    2.4447 H       1  LIG1        0.0000
     43 H          -1.9624   -3.3107   -0.5672 H       1  LIG1        0.0000
     44 H          -2.7443   -2.4058   -1.8432 H       1  LIG1        0.0000
     45 H          -6.6104   -5.8790   -0.9567 H       1  LIG1        0.0000
     46 H          -5.4997   -6.3810   -2.2518 H       1  LIG1        0.0000
     47 H          -7.0131   -5.5072   -2.6269 H       1  LIG1        0.0000
     48 H          -6.6573   -3.4761    0.3061 H       1  LIG1        0.0000
     49 H          -7.6571   -3.2045   -1.1399 H       1  LIG1        0.0000
     50 H          -6.5110   -1.9947   -0.6975 H       1  LIG1        0.0000
     51 H          -4.8345   -3.6448   -4.1766 H       1  LIG1        0.0000
     52 H          -4.5016   -2.1472   -3.2952 H       1  LIG1        0.0000
     53 H          -6.1625   -2.5795   -3.6811 H       1  LIG1        0.0000
     54 H          -0.4950   -0.8036   -1.5181 H       1  LIG1        0.0000
     55 H           0.4569   -1.8797   -0.4783 H       1  LIG1        0.0000
     56 H           1.4100    0.4453   -1.7998 H       1  LIG1        0.0000
     57 H           2.8383   -1.3606   -0.9400 H       1  LIG1        0.0000
     58 H           2.5486   -0.8518    0.7284 H       1  LIG1        0.0000
     59 H           3.9337    1.2443    0.2827 H       1  LIG1        0.0000
     60 H           4.2553    0.6324   -1.3516 H       1  LIG1        0.0000
     61 H           5.2161   -1.4606   -0.3429 H       1  LIG1        0.0000
     62 H           4.9589   -0.8223    1.2574 H       1  LIG1        0.0000
     63 H           7.0166    0.0903   -0.8243 H       1  LIG1        0.0000
     64 H           7.2386   -0.7372    0.6850 H       1  LIG1        0.0000
     65 H           8.0672    1.2836    1.2136 H       1  LIG1        0.0000
     66 H           6.4757    1.3674    1.9392 H       1  LIG1        0.0000
     67 H           5.8088    2.8155   -0.1484 H       1  LIG1        0.0000
     68 H           7.5059    2.7156   -0.6443 H       1  LIG1        0.0000
     69 H           8.1343    3.9158    1.5552 H       1  LIG1        0.0000
     70 H           6.4161    4.1206    1.8367 H       1  LIG1        0.0000
     71 H           7.3169    6.1944    1.0621 H       1  LIG1        0.0000
     72 H           6.1454    5.5931   -0.0682 H       1  LIG1        0.0000
     73 H           7.6411    5.6250   -1.8459 H       1  LIG1        0.0000
     74 H           9.8064    6.5859    0.1070 H       1  LIG1        0.0000
     75 H           9.7720    6.6501   -1.7368 H       1  LIG1        0.0000
@<TRIPOS>BOND
     1     1     2    2
     2     2     3    1
     3     2     4    1
     4     4     5    1
     5     5     6    1
     6     6     7    1
     7     7     8    1
     8     8     9    1
     9     8    10    1
    10     8    11    1
    11     6    12    1
    12    12    13    1
    13    13    14    1
    14    14    15    1
    15    14    16    1
    16    14    17    1
    17     4    18    1
    18    18    19    1
    19     3    19    1
    20    19    20    1
    21    20    21    1
    22    21    22    1
    23    22    23    1
    24    23    24    1
    25    24    25    1
    26    25    26    1
    27    26    27    1
    28    27    28    1
    29    28    29    2
    30     4    30    1
    31     5    31    1
    32     5    32    1
    33     6    33    1
    34     9    34    1
    35     9    35    1
    36     9    36    1
    37    10    37    1
    38    10    38    1
    39    10    39    1
    40    11    40    1
    41    11    41    1
    42    11    42    1
    43    12    43    1
    44    12    44    1
    45    15    45    1
    46    15    46    1
    47    15    47    1
    48    16    48    1
    49    16    49    1
    50    16    50    1
    51    17    51    1
    52    17    52    1
    53    17    53    1
    54    18    54    1
    55    18    55    1
    56    19    56    1
    57    20    57    1
    58    20    58    1
    59    21    59    1
    60    21    60    1
    61    22    61    1
    62    22    62    1
    63    23    63    1
    64    23    64    1
    65    24    65    1
    66    24    66    1
    67    25    67    1
    68    25    68    1
    69    26    69    1
    70    26    70    1
    71    27    71    1
    72    27    72    1
    73    28    73    1
    74    29    74    1
    75    29    75    1
