@<TRIPOS>MOLECULE
NuBBE_1574
 49 52 0 0 0
SMALL
GASTEIGER

@<TRIPOS>ATOM
      1 C          -0.6108    1.0491    3.6971 C.3     1  LIG1       -0.0613
      2 C          -0.7146    1.1741    2.1630 C.3     1  LIG1       -0.0302
      3 H          -1.7878    1.2823    1.9538 H       1  LIG1        0.0310
      4 C          -0.1873   -0.1259    1.4897 C.3     1  LIG1        0.0125
      5 H          -0.3712   -0.9453    2.2049 H       1  LIG1        0.0400
      6 C           1.3190   -0.1492    1.2773 C.ar    1  LIG1       -0.0328
      7 C           2.1086    1.0276    1.3645 C.ar    1  LIG1       -0.0396
      8 C           1.5287    2.3499    1.8033 C.3     1  LIG1       -0.0244
      9 C           0.0019    2.4648    1.7006 C.3     1  LIG1       -0.0365
     10 H          -0.3078    3.2753    2.3748 H       1  LIG1        0.0304
     11 C          -0.4235    2.9384    0.3078 C.3     1  LIG1       -0.0618
     12 C           3.4919    0.9561    1.1169 C.ar    1  LIG1       -0.0127
     13 C           4.0479   -0.2609    0.7928 C.ar    1  LIG1        0.1665
     14 C           3.2862   -1.4033    0.7255 C.ar    1  LIG1        0.1665
     15 C           1.9357   -1.3787    0.9634 C.ar    1  LIG1       -0.0121
     16 O           4.0203   -2.4981    0.4029 O.3     1  LIG1       -0.4526
     17 C           5.3337   -1.9127    0.2561 C.3     1  LIG1        0.2332
     18 O           5.3582   -0.4931    0.5175 O.3     1  LIG1       -0.4526
     19 C          -0.9967   -0.5007    0.2434 C.ar    1  LIG1       -0.0360
     20 C          -0.6044   -0.1463   -1.0553 C.ar    1  LIG1       -0.0125
     21 C          -1.3624   -0.4962   -2.1855 C.ar    1  LIG1        0.1618
     22 O          -0.8154   -0.0284   -3.3545 O.3     1  LIG1       -0.4914
     23 C          -1.2347   -0.6356   -4.5684 C.3     1  LIG1        0.0790
     24 C          -2.5542   -1.2185   -2.0225 C.ar    1  LIG1        0.1615
     25 C          -2.9407   -1.6007   -0.7324 C.ar    1  LIG1       -0.0160
     26 C          -2.1761   -1.2421    0.3850 C.ar    1  LIG1       -0.0543
     27 O          -3.2598   -1.5732   -3.1393 O.3     1  LIG1       -0.4915
     28 C          -4.6604   -1.7608   -3.0050 C.3     1  LIG1        0.0790
     29 H           0.4189    0.8835    4.0290 H       1  LIG1        0.0233
     30 H          -1.2186    0.2122    4.0578 H       1  LIG1        0.0233
     31 H          -0.9830    1.9558    4.1867 H       1  LIG1        0.0233
     32 H           1.9948    3.1626    1.2298 H       1  LIG1        0.0316
     33 H           1.8233    2.4998    2.8507 H       1  LIG1        0.0316
     34 H           0.1087    2.4213   -0.4907 H       1  LIG1        0.0233
     35 H          -0.1913    4.0037    0.1921 H       1  LIG1        0.0233
     36 H          -1.5009    2.8217    0.1551 H       1  LIG1        0.0233
     37 H           4.1231    1.8405    1.1832 H       1  LIG1        0.0658
     38 H           1.3564   -2.2989    0.8965 H       1  LIG1        0.0658
     39 H           5.6832   -2.0884   -0.7673 H       1  LIG1        0.1166
     40 H           6.0189   -2.4081    0.9522 H       1  LIG1        0.1166
     41 H           0.3238    0.3978   -1.2181 H       1  LIG1        0.0658
     42 H          -2.2165   -0.2594   -4.8734 H       1  LIG1        0.0660
     43 H          -1.2160   -1.7287   -4.5031 H       1  LIG1        0.0660
     44 H          -0.5238   -0.3481   -5.3486 H       1  LIG1        0.0660
     45 H          -3.8260   -2.2046   -0.5640 H       1  LIG1        0.0655
     46 H          -2.5037   -1.5666    1.3709 H       1  LIG1        0.0622
     47 H          -5.0645   -1.9123   -4.0113 H       1  LIG1        0.0660
     48 H          -5.1404   -0.8735   -2.5802 H       1  LIG1        0.0660
     49 H          -4.8908   -2.6582   -2.4246 H       1  LIG1        0.0660
@<TRIPOS>BOND
     1     2     4    1
     2     4     5    1
     3     4     6    1
     4     6     7   ar
     5     7     8    1
     6     8     9    1
     7     2     9    1
     8     7    12   ar
     9    12    13   ar
    10    13    14   ar
    11    14    15   ar
    12     6    15   ar
    13    14    16    1
    14    16    17    1
    15    17    18    1
    16    13    18    1
    17     4    19    1
    18    19    20   ar
    19    20    21   ar
    20    21    22    1
    21    22    23    1
    22    21    24   ar
    23    24    25   ar
    24    25    26   ar
    25    19    26   ar
    26    24    27    1
    27    27    28    1
    28     9    11    1
    29     9    10    1
    30     2     3    1
    31     2     1    1
    32     1    29    1
    33     1    30    1
    34     1    31    1
    35     8    32    1
    36     8    33    1
    37    11    34    1
    38    11    35    1
    39    11    36    1
    40    12    37    1
    41    15    38    1
    42    17    39    1
    43    17    40    1
    44    20    41    1
    45    23    42    1
    46    23    43    1
    47    23    44    1
    48    25    45    1
    49    26    46    1
    50    28    47    1
    51    28    48    1
    52    28    49    1
