REMARK  Name = NuBBE_596
REMARK  6 active torsions:
REMARK  status: ('A' for Active; 'I' for Inactive)
REMARK    1  A    between atoms: C_3  and  O_4
REMARK    2  A    between atoms: O_4  and  C_5
REMARK    3  A    between atoms: C_6  and  C_7
REMARK    4  A    between atoms: C_7  and  C_8
REMARK    5  A    between atoms: C_8  and  C_9
REMARK    6  A    between atoms: N_10  and  C_11
REMARK                            x       y       z     vdW  Elec       q    Type
REMARK                         _______ _______ _______ _____ _____    ______ ____
ROOT
ATOM      1  O   LIG A   1      -3.191   0.406   0.246  0.00  0.00    -0.283 OA
ATOM      2  C   LIG A   1      -1.980   0.476   0.029  0.00  0.00    +0.231 A 
ATOM      3  C   LIG A   1      -1.112  -0.731  -0.181  0.00  0.00    +0.186 A 
ATOM      4  C   LIG A   1       0.230  -0.539  -0.270  0.00  0.00    +0.065 A 
ATOM      5  N   LIG A   1       0.843   0.734  -0.209  0.00  0.00    -0.344 N 
ATOM      6  C   LIG A   1       2.289   0.967  -0.290  0.00  0.00    +0.149 C 
ATOM      7  C   LIG A   1       0.044   1.911  -0.142  0.00  0.00    +0.053 A 
ATOM      8  C   LIG A   1       0.573   3.218  -0.183  0.00  0.00    +0.026 A 
ATOM      9  C   LIG A   1      -0.245   4.355  -0.118  0.00  0.00    +0.002 A 
ATOM     10  C   LIG A   1      -1.622   4.220  -0.011  0.00  0.00    +0.001 A 
ATOM     11  C   LIG A   1      -2.176   2.946   0.033  0.00  0.00    +0.014 A 
ATOM     12  C   LIG A   1      -1.350   1.807  -0.031  0.00  0.00    +0.049 A 
ENDROOT
BRANCH   3  13
ATOM     13  O   LIG A   1      -1.621  -2.023  -0.269  0.00  0.00    -0.490 OA
ATOM     14  C   LIG A   1      -3.029  -2.205  -0.209  0.00  0.00    +0.277 C 
ENDBRANCH   3  13
BRANCH   4  15
ATOM     15  C   LIG A   1       1.107  -1.784  -0.479  0.00  0.00    +0.057 C 
BRANCH  15  16
ATOM     16  C   LIG A   1       1.526  -2.446   0.842  0.00  0.00    +0.003 C 
ATOM     17  C   LIG A   1       2.395  -3.679   0.619  0.00  0.00    +0.004 C 
ENDBRANCH  15  16
ENDBRANCH   4  15
TORSDOF 3
