REMARK  Name = NuBBE_171
REMARK  17 active torsions:
REMARK  status: ('A' for Active; 'I' for Inactive)
REMARK    1  A    between atoms: C_1  and  C_2
REMARK    2  A    between atoms: C_4  and  O_6
REMARK    3  A    between atoms: C_9  and  C_11
REMARK    4  A    between atoms: C_11  and  C_12
REMARK    5  A    between atoms: C_12  and  C_13
REMARK    6  A    between atoms: C_13  and  C_14
REMARK    7  A    between atoms: C_14  and  C_15
REMARK    8  A    between atoms: C_15  and  C_16
REMARK    9  A    between atoms: C_16  and  C_17
REMARK   10  A    between atoms: C_17  and  C_18
REMARK   11  A    between atoms: C_18  and  C_19
REMARK   12  A    between atoms: C_19  and  C_20
REMARK   13  A    between atoms: C_20  and  C_21
REMARK   14  A    between atoms: C_21  and  C_22
REMARK   15  A    between atoms: C_22  and  C_23
REMARK   16  A    between atoms: C_23  and  O_24
REMARK   17  A    between atoms: C_23  and  C_25
REMARK                            x       y       z     vdW  Elec       q    Type
REMARK                         _______ _______ _______ _____ _____    ______ ____
ROOT
ATOM      1  C   LIG A   1       4.139   0.354   0.612  0.00  0.00    +0.000 C 
ENDROOT
BRANCH   1   2
ATOM      2  C   LIG A   1       3.865  -1.168   0.609  0.00  0.00    +0.002 C 
BRANCH   2   3
ATOM      3  C   LIG A   1       3.490  -1.914   1.922  0.00  0.00    +0.019 C 
BRANCH   3   9
ATOM      4  C   LIG A   1       0.452   1.655   3.465  0.00  0.00    +0.026 C 
ATOM      5  C   LIG A   1       0.618   0.142   3.344  0.00  0.00    +0.079 C 
ATOM      6  C   LIG A   1       0.378  -0.542   4.709  0.00  0.00    +0.131 C 
ATOM      7  C   LIG A   1       0.509  -2.043   4.523  0.00  0.00    +0.034 C 
ATOM      8  C   LIG A   1       1.861  -2.429   3.869  0.00  0.00    +0.021 C 
ATOM      9  C   LIG A   1       2.104  -1.636   2.560  0.00  0.00    +0.054 C 
ATOM     10  N   LIG A   1       1.951  -0.221   2.858  0.00  0.00    -0.308 NA
ATOM     11  H   LIG A   1       2.662   0.097   3.523  0.00  0.00    +0.122 HD
BRANCH   6  12
ATOM     12  O   LIG A   1       1.248  -0.009   5.685  0.00  0.00    -0.390 OA
ATOM     13  H   LIG A   1       1.975  -0.696   5.865  0.00  0.00    +0.210 HD
ENDBRANCH   6  12
ENDBRANCH   3   9
ENDBRANCH   2   3
ENDBRANCH   1   2
BRANCH   1  14
ATOM     14  C   LIG A   1       2.977   1.375   0.611  0.00  0.00    -0.000 C 
BRANCH  14  15
ATOM     15  C   LIG A   1       1.910   1.181  -0.485  0.00  0.00    -0.000 C 
BRANCH  15  16
ATOM     16  C   LIG A   1       0.678   2.095  -0.327  0.00  0.00    -0.000 C 
BRANCH  16  17
ATOM     17  C   LIG A   1      -0.465   1.864  -1.338  0.00  0.00    -0.000 C 
BRANCH  17  18
ATOM     18  C   LIG A   1      -0.201   2.239  -2.799  0.00  0.00    -0.000 C 
BRANCH  18  19
ATOM     19  C   LIG A   1      -1.443   2.103  -3.732  0.00  0.00    -0.000 C 
BRANCH  19  20
ATOM     20  C   LIG A   1      -2.189   0.748  -3.695  0.00  0.00    +0.000 C 
BRANCH  20  21
ATOM     21  C   LIG A   1      -3.458   0.706  -4.577  0.00  0.00    +0.002 C 
BRANCH  21  22
ATOM     22  C   LIG A   1      -4.172  -0.656  -4.740  0.00  0.00    +0.031 C 
BRANCH  22  23
ATOM     23  C   LIG A   1      -4.906  -1.304  -3.552  0.00  0.00    +0.111 C 
ATOM     24  C   LIG A   1      -4.064  -1.611  -2.325  0.00  0.00    +0.037 C 
BRANCH  23  25
ATOM     25  O   LIG A   1      -5.449  -2.540  -4.044  0.00  0.00    -0.392 OA
ATOM     26  H   LIG A   1      -5.593  -3.145  -3.295  0.00  0.00    +0.210 HD
ENDBRANCH  23  25
ENDBRANCH  22  23
ENDBRANCH  21  22
ENDBRANCH  20  21
ENDBRANCH  19  20
ENDBRANCH  18  19
ENDBRANCH  17  18
ENDBRANCH  16  17
ENDBRANCH  15  16
ENDBRANCH  14  15
ENDBRANCH   1  14
TORSDOF 15
