REMARK  Name = NuBBE_2522
REMARK  9 active torsions:
REMARK  status: ('A' for Active; 'I' for Inactive)
REMARK    1  A    between atoms: O_1  and  C_2
REMARK    2  A    between atoms: O_1  and  C_3
REMARK    3  A    between atoms: C_6  and  O_13
REMARK    4  A    between atoms: C_7  and  O_11
REMARK    5  A    between atoms: C_8  and  O_9
REMARK    6  A    between atoms: O_9  and  C_10
REMARK    7  A    between atoms: O_11  and  C_12
REMARK    8  A    between atoms: C_17  and  C_19
REMARK    9  A    between atoms: C_22  and  O_25
REMARK                            x       y       z     vdW  Elec       q    Type
REMARK                         _______ _______ _______ _____ _____    ______ ____
ROOT
ATOM      1  C   UNL A   1      -0.618   1.597  -0.047  0.00  0.00    +0.209 A 
ATOM      2  C   UNL A   1       0.158   0.429  -0.066  0.00  0.00    +0.188 A 
ATOM      3  C   UNL A   1       1.549   0.541  -0.113  0.00  0.00    +0.113 A 
ATOM      4  C   UNL A   1       2.167   1.808  -0.185  0.00  0.00    +0.177 A 
ATOM      5  C   UNL A   1       1.393   2.991  -0.217  0.00  0.00    +0.208 A 
ATOM      6  C   UNL A   1      -0.008   2.886  -0.127  0.00  0.00    +0.211 A 
ATOM      7  C   UNL A   1       2.334  -0.706  -0.164  0.00  0.00    +0.197 A 
ATOM      8  O   UNL A   1       3.562  -0.679  -0.187  0.00  0.00    -0.287 OA
ATOM      9  C   UNL A   1       1.608  -1.983  -0.198  0.00  0.00    +0.098 A 
ATOM     10  C   UNL A   1       0.271  -1.950  -0.165  0.00  0.00    +0.139 A 
ATOM     11  O   UNL A   1      -0.474  -0.792  -0.099  0.00  0.00    -0.451 OA
ENDROOT
BRANCH  10  12
ATOM     12  C   UNL A   1      -0.512  -3.191  -0.177  0.00  0.00    +0.018 A 
ATOM     13  C   UNL A   1      -0.823  -3.837   1.032  0.00  0.00    +0.015 A 
ATOM     14  C   UNL A   1      -1.478  -5.071   1.036  0.00  0.00    +0.046 A 
ATOM     15  C   UNL A   1      -1.833  -5.662  -0.171  0.00  0.00    +0.117 A 
ATOM     16  C   UNL A   1      -1.575  -5.024  -1.378  0.00  0.00    +0.046 A 
ATOM     17  C   UNL A   1      -0.910  -3.784  -1.379  0.00  0.00    +0.015 A 
BRANCH  15  18
ATOM     18  O   UNL A   1      -2.434  -6.886  -0.213  0.00  0.00    -0.507 OA
ATOM     19  H   UNL A   1      -2.433  -7.267   0.680  0.00  0.00    +0.292 HD
ENDBRANCH  15  18
ENDBRANCH  10  12
BRANCH   1  20
ATOM     20  O   UNL A   1      -1.996   1.626  -0.072  0.00  0.00    -0.488 OA
ATOM     21  C   UNL A   1      -2.714   0.551   0.509  0.00  0.00    +0.277 C 
ENDBRANCH   1  20
BRANCH   6  22
ATOM     22  O   UNL A   1      -0.943   3.889  -0.188  0.00  0.00    -0.488 OA
ATOM     23  C   UNL A   1      -0.606   5.252  -0.050  0.00  0.00    +0.277 C 
ENDBRANCH   6  22
BRANCH   5  24
ATOM     24  O   UNL A   1       2.011   4.139  -0.654  0.00  0.00    -0.488 OA
ATOM     25  C   UNL A   1       2.408   5.062   0.356  0.00  0.00    +0.277 C 
ENDBRANCH   5  24
BRANCH   4  26
ATOM     26  O   UNL A   1       3.539   1.921  -0.274  0.00  0.00    -0.503 OA
ATOM     27  H   UNL A   1       3.931   1.020  -0.277  0.00  0.00    +0.292 HD
ENDBRANCH   4  26
TORSDOF 6
