@<TRIPOS>MOLECULE
NuBBE_536
 48 49 0 0 0
SMALL
GASTEIGER

@<TRIPOS>ATOM
      1 O           2.8994   -0.5592    1.6626 O.3     1  LIG1       -0.3877
      2 C           1.5891   -1.1245    1.7669 C.3     1  LIG1        0.0760
      3 H           1.5795   -2.0433    1.1731 H       1  LIG1        0.0638
      4 C           1.2797   -1.4060    3.2167 C.2     1  LIG1       -0.0553
      5 C           0.9254   -2.5631    3.8083 C.2     1  LIG1       -0.0561
      6 C           0.7891   -3.8847    3.1871 C.ar    1  LIG1       -0.0252
      7 C          -0.4389   -4.3021    2.6611 C.ar    1  LIG1       -0.0546
      8 C          -0.5643   -5.5655    2.0734 C.ar    1  LIG1       -0.0612
      9 C           0.5357   -6.4194    2.0088 C.ar    1  LIG1       -0.0617
     10 C           1.7516   -6.0263    2.5654 C.ar    1  LIG1       -0.0612
     11 C           1.8745   -4.7684    3.1643 C.ar    1  LIG1       -0.0546
     12 C           0.6010   -0.0954    1.1805 C.3     1  LIG1        0.0030
     13 C           0.7749    0.0920   -0.3437 C.3     1  LIG1        0.0602
     14 H           0.8638   -0.8846   -0.8300 H       1  LIG1        0.0595
     15 C          -0.4189    0.8618   -0.9570 C.3     1  LIG1       -0.0005
     16 C          -0.3461    1.0657   -2.4877 C.3     1  LIG1        0.0610
     17 H          -0.3143    0.0782   -2.9638 H       1  LIG1        0.0595
     18 C          -1.5580    1.8277   -3.0756 C.3     1  LIG1        0.0108
     19 C          -1.8232    3.2442   -2.5255 C.3     1  LIG1        0.1091
     20 H          -2.0926    3.1532   -1.4649 H       1  LIG1        0.0738
     21 O          -2.9973    3.7888   -3.1759 O.3     1  LIG1       -0.4579
     22 C          -3.3897    5.0633   -2.8676 C.2     1  LIG1        0.3319
     23 C          -2.3536    5.9326   -2.2532 C.2     1  LIG1        0.0187
     24 C          -1.0697    5.5640   -2.2208 C.2     1  LIG1       -0.0738
     25 C          -0.6524    4.2124   -2.7035 C.3     1  LIG1        0.0032
     26 O          -4.5029    5.4899   -3.0956 O.2     1  LIG1       -0.2456
     27 O           0.8451    1.7378   -2.8819 O.3     1  LIG1       -0.3916
     28 O           1.9819    0.8095   -0.6166 O.3     1  LIG1       -0.3916
     29 H           3.4753   -1.0337    2.2885 H       1  LIG1        0.2102
     30 H           1.3141   -0.5284    3.8627 H       1  LIG1        0.0598
     31 H           0.6929   -2.5590    4.8732 H       1  LIG1        0.0621
     32 H          -1.3109   -3.6551    2.7154 H       1  LIG1        0.0623
     33 H          -1.5204   -5.8843    1.6648 H       1  LIG1        0.0618
     34 H           0.4437   -7.3929    1.5324 H       1  LIG1        0.0618
     35 H           2.6044   -6.7003    2.5334 H       1  LIG1        0.0618
     36 H           2.8211   -4.4912    3.6216 H       1  LIG1        0.0623
     37 H           0.7724    0.8760    1.6686 H       1  LIG1        0.0318
     38 H          -0.4240   -0.4098    1.4058 H       1  LIG1        0.0318
     39 H          -0.4762    1.8421   -0.4707 H       1  LIG1        0.0315
     40 H          -1.3412    0.3150   -0.7265 H       1  LIG1        0.0315
     41 H          -2.4643    1.2253   -2.9270 H       1  LIG1        0.0326
     42 H          -1.4360    1.9054   -4.1649 H       1  LIG1        0.0326
     43 H          -2.6884    6.9009   -1.9030 H       1  LIG1        0.0686
     44 H          -0.3091    6.2290   -1.8249 H       1  LIG1        0.0575
     45 H           0.2094    3.8953   -2.1147 H       1  LIG1        0.0343
     46 H          -0.3558    4.2886   -3.7568 H       1  LIG1        0.0343
     47 H           1.5535    1.4748   -2.2537 H       1  LIG1        0.2098
     48 H           2.6708    0.4236   -0.0290 H       1  LIG1        0.2098
@<TRIPOS>BOND
     1     1     2    1
     2     2     3    1
     3     2     4    1
     4     4     5    2
     5     5     6    1
     6     6     7   ar
     7     7     8   ar
     8     8     9   ar
     9     9    10   ar
    10    10    11   ar
    11     6    11   ar
    12     2    12    1
    13    12    13    1
    14    13    14    1
    15    13    15    1
    16    15    16    1
    17    16    17    1
    18    16    18    1
    19    18    19    1
    20    19    20    1
    21    19    21    1
    22    21    22    1
    23    22    23    1
    24    23    24    2
    25    24    25    1
    26    19    25    1
    27    22    26    2
    28    16    27    1
    29    13    28    1
    30     1    29    1
    31     4    30    1
    32     5    31    1
    33     7    32    1
    34     8    33    1
    35     9    34    1
    36    10    35    1
    37    11    36    1
    38    12    37    1
    39    12    38    1
    40    15    39    1
    41    15    40    1
    42    18    41    1
    43    18    42    1
    44    23    43    1
    45    24    44    1
    46    25    45    1
    47    25    46    1
    48    27    47    1
    49    28    48    1
