@<TRIPOS>MOLECULE
NuBBE_936
 24 26 0 0 0
SMALL
GASTEIGER

@<TRIPOS>ATOM
      1 O          -2.0517   -0.2446    0.5594 O.3     1  LIG1       -0.4937
      2 C          -2.7858   -0.3619   -0.6606 C.3     1  LIG1        0.0788
      3 C          -0.6992   -0.3534    0.3068 C.ar    1  LIG1        0.1415
      4 C          -0.0887   -1.6078    0.1657 C.ar    1  LIG1        0.0820
      5 C           1.2818   -1.6130   -0.0593 C.ar    1  LIG1        0.2311
      6 N           2.0944   -0.5498   -0.1459 N.ar    1  LIG1       -0.2119
      7 C           1.4942    0.6328    0.0353 C.ar    1  LIG1        0.0783
      8 C           0.1095    0.8025    0.2743 C.ar    1  LIG1        0.0429
      9 C          -0.4102    2.1018    0.4658 C.ar    1  LIG1       -0.0490
     10 C           0.4187    3.2197    0.4137 C.ar    1  LIG1       -0.0610
     11 C           1.7744    3.0520    0.1709 C.ar    1  LIG1       -0.0597
     12 C           2.2930    1.7669   -0.0137 C.ar    1  LIG1       -0.0355
     13 O           1.7232   -2.8970   -0.1859 O.2     1  LIG1       -0.4449
     14 C           0.6465   -3.7097   -0.0284 C.ar    1  LIG1        0.0952
     15 C          -0.4910   -2.9692    0.1929 C.ar    1  LIG1       -0.0109
     16 H          -3.8363   -0.1512   -0.4392 H       1  LIG1        0.0660
     17 H          -2.7230   -1.3776   -1.0642 H       1  LIG1        0.0660
     18 H          -2.4443    0.3659   -1.4053 H       1  LIG1        0.0660
     19 H          -1.4711    2.2432    0.6630 H       1  LIG1        0.0625
     20 H           0.0067    4.2141    0.5646 H       1  LIG1        0.0618
     21 H           2.4351    3.9141    0.1280 H       1  LIG1        0.0618
     22 H           3.3593    1.6490   -0.1981 H       1  LIG1        0.0639
     23 H           0.8505   -4.7694   -0.0969 H       1  LIG1        0.1030
     24 H          -1.4860   -3.3572    0.3571 H       1  LIG1        0.0657
@<TRIPOS>BOND
     1     1     2    1
     2     1     3    1
     3     3     4   ar
     4     4     5   ar
     5     5     6   ar
     6     6     7   ar
     7     7     8   ar
     8     3     8   ar
     9     8     9   ar
    10     9    10   ar
    11    10    11   ar
    12    11    12   ar
    13     7    12   ar
    14     5    13   ar
    15    13    14   ar
    16    14    15   ar
    17     4    15   ar
    18     2    16    1
    19     2    17    1
    20     2    18    1
    21     9    19    1
    22    10    20    1
    23    11    21    1
    24    12    22    1
    25    14    23    1
    26    15    24    1
