@<TRIPOS>MOLECULE
NuBBE_67
 39 41 0 0 0
SMALL
GASTEIGER

@<TRIPOS>ATOM
      1 O          -6.1096   -0.1640    0.8797 O.3     1  LIG1       -0.5033
      2 C          -4.7995   -0.3210    0.5166 C.ar    1  LIG1        0.1585
      3 C          -3.7814    0.2224    1.3039 C.ar    1  LIG1        0.1616
      4 C          -2.4570    0.0468    0.9026 C.ar    1  LIG1       -0.0096
      5 C          -2.1469   -0.6462   -0.2849 C.ar    1  LIG1       -0.0033
      6 C          -0.7030   -0.8280   -0.7266 C.3     1  LIG1        0.1323
      7 C          -0.1281   -2.1092   -0.1378 C.3     1  LIG1        0.0520
      8 C           1.3019   -2.2302   -0.5715 C.2     1  LIG1        0.1740
      9 C           2.0624   -0.9778   -0.7084 C.ar    1  LIG1        0.1007
     10 C           3.4383   -0.9855   -0.9414 C.ar    1  LIG1        0.1343
     11 C           4.1470    0.2099   -1.0012 C.ar    1  LIG1        0.0225
     12 C           3.4882    1.4273   -0.8195 C.ar    1  LIG1        0.1271
     13 C           2.1070    1.4361   -0.5886 C.ar    1  LIG1        0.0227
     14 C           1.3934    0.2350   -0.5479 C.ar    1  LIG1        0.1389
     15 O           0.0494    0.3273   -0.3109 O.3     1  LIG1       -0.4828
     16 O           4.0904    2.6576   -0.8449 O.3     1  LIG1       -0.4949
     17 C           5.4943    2.6581   -1.0932 C.3     1  LIG1        0.0788
     18 O           4.1653   -2.1327   -1.1055 O.3     1  LIG1       -0.5058
     19 O           1.8646   -3.3097   -0.7378 O.2     1  LIG1       -0.2917
     20 C          -3.1937   -1.1912   -1.0474 C.ar    1  LIG1       -0.0514
     21 C          -4.5202   -1.0261   -0.6474 C.ar    1  LIG1       -0.0161
     22 O          -4.1999    0.8966    2.4232 O.3     1  LIG1       -0.4914
     23 C          -3.1793    1.4866    3.2226 C.3     1  LIG1        0.0790
     24 H          -6.0803    0.3571    1.7059 H       1  LIG1        0.2923
     25 H          -1.6396    0.4498    1.4929 H       1  LIG1        0.0659
     26 H          -0.6766   -0.8536   -1.8258 H       1  LIG1        0.0789
     27 H          -0.6807   -2.9839   -0.4985 H       1  LIG1        0.0385
     28 H          -0.1449   -2.1065    0.9585 H       1  LIG1        0.0385
     29 H           5.2154    0.1518   -1.1798 H       1  LIG1        0.0691
     30 H           1.5901    2.3810   -0.4432 H       1  LIG1        0.0691
     31 H           5.8461    3.6934   -1.0810 H       1  LIG1        0.0660
     32 H           5.7160    2.2415   -2.0821 H       1  LIG1        0.0660
     33 H           6.0316    2.1155   -0.3075 H       1  LIG1        0.0660
     34 H           3.5514   -2.9003   -1.0272 H       1  LIG1        0.2922
     35 H          -2.9868   -1.7448   -1.9609 H       1  LIG1        0.0623
     36 H          -5.3328   -1.4388   -1.2386 H       1  LIG1        0.0655
     37 H          -3.6628    2.0082    4.0537 H       1  LIG1        0.0660
     38 H          -2.6074    2.2273    2.6532 H       1  LIG1        0.0660
     39 H          -2.5222    0.7200    3.6468 H       1  LIG1        0.0660
@<TRIPOS>BOND
     1     1     2    1
     2     2     3   ar
     3     3     4   ar
     4     4     5   ar
     5     5     6    1
     6     6     7    1
     7     7     8    1
     8     8     9    1
     9     9    10   ar
    10    10    11   ar
    11    11    12   ar
    12    12    13   ar
    13    13    14   ar
    14     9    14   ar
    15    14    15    1
    16     6    15    1
    17    12    16    1
    18    16    17    1
    19    10    18    1
    20     8    19    2
    21     5    20   ar
    22    20    21   ar
    23     2    21   ar
    24     3    22    1
    25    22    23    1
    26     1    24    1
    27     4    25    1
    28     6    26    1
    29     7    27    1
    30     7    28    1
    31    11    29    1
    32    13    30    1
    33    17    31    1
    34    17    32    1
    35    17    33    1
    36    18    34    1
    37    20    35    1
    38    21    36    1
    39    23    37    1
    40    23    38    1
    41    23    39    1
