@<TRIPOS>MOLECULE
NuBBE_2214
 27 28 0 0 0
SMALL
GASTEIGER

@<TRIPOS>ATOM
      1 O          -2.2149   -0.9934   -0.1355 O.3     1  LIG1       -0.4948
      2 C          -2.9721   -2.1927   -0.0257 C.3     1  LIG1        0.0788
      3 C          -0.8529   -1.1112   -0.2168 C.ar    1  LIG1        0.1244
      4 C          -0.1419    0.0953   -0.3531 C.ar    1  LIG1        0.0152
      5 C           1.2581    0.0723   -0.4747 C.ar    1  LIG1        0.1070
      6 C           2.0147    1.3354   -0.6615 C.2     1  LIG1        0.3434
      7 O           3.2035    1.3022   -0.9626 O.2     1  LIG1       -0.2448
      8 O           1.3465    2.5029   -0.4973 O.3     1  LIG1       -0.4577
      9 C           0.0441    2.5277    0.1188 C.3     1  LIG1        0.1047
     10 H          -0.4042    3.4907   -0.1533 H       1  LIG1        0.0734
     11 C          -0.8458    1.4222   -0.4374 C.3     1  LIG1        0.0137
     12 C           0.1909    2.5005    1.6389 C.3     1  LIG1       -0.0274
     13 C           1.9394   -1.1508   -0.4434 C.ar    1  LIG1        0.1313
     14 C           1.2376   -2.3399   -0.2833 C.ar    1  LIG1       -0.0159
     15 C          -0.1543   -2.3215   -0.1725 C.ar    1  LIG1       -0.0162
     16 O           3.2978   -1.2654   -0.5683 O.3     1  LIG1       -0.5059
     17 H          -4.0303   -1.9167    0.0126 H       1  LIG1        0.0660
     18 H          -2.7338   -2.7257    0.9005 H       1  LIG1        0.0660
     19 H          -2.8269   -2.8333   -0.9018 H       1  LIG1        0.0660
     20 H          -1.0571    1.6148   -1.4966 H       1  LIG1        0.0350
     21 H          -1.7981    1.4166    0.1038 H       1  LIG1        0.0350
     22 H           0.6909    1.5918    1.9887 H       1  LIG1        0.0265
     23 H          -0.7844    2.5719    2.1301 H       1  LIG1        0.0265
     24 H           0.8098    3.3411    1.9713 H       1  LIG1        0.0265
     25 H           1.7749   -3.2848   -0.2559 H       1  LIG1        0.0655
     26 H          -0.6615   -3.2744   -0.0592 H       1  LIG1        0.0655
     27 H           3.6700   -0.3761   -0.7656 H       1  LIG1        0.2922
@<TRIPOS>BOND
     1     1     2    1
     2     1     3    1
     3     3     4   ar
     4     4     5   ar
     5     5     6    1
     6     6     7    2
     7     6     8    1
     8     8     9    1
     9     9    11    1
    10     4    11    1
    11     5    13   ar
    12    13    14   ar
    13    14    15   ar
    14     3    15   ar
    15    13    16    1
    16     9    12    1
    17     9    10    1
    18     2    17    1
    19     2    18    1
    20     2    19    1
    21    11    20    1
    22    11    21    1
    23    12    22    1
    24    12    23    1
    25    12    24    1
    26    14    25    1
    27    15    26    1
    28    16    27    1
