@<TRIPOS>MOLECULE
NuBBE_1802
 57 57 0 0 0
SMALL
GASTEIGER

@<TRIPOS>ATOM
      1 O          -3.9736    2.0668    1.5010 O.2     1  LIG1       -0.2505
      2 C          -2.8219    2.1159    1.0815 C.2     1  LIG1        0.3107
      3 O          -2.1600    1.0425    0.5508 O.3     1  LIG1       -0.4611
      4 C          -1.9173    3.3249    1.1239 C.3     1  LIG1        0.0622
      5 C          -1.3556    3.4691    2.5544 C.3     1  LIG1       -0.0114
      6 C          -0.6633    4.8129    2.8563 C.3     1  LIG1        0.0823
      7 O          -1.6691    5.8129    2.6448 O.3     1  LIG1       -0.3775
      8 C          -1.1856    7.1472    2.6700 C.3     1  LIG1        0.0369
      9 C          -0.1209    4.8073    4.3106 C.3     1  LIG1        0.0735
     10 O           0.6612    5.9766    4.5911 O.3     1  LIG1       -0.3804
     11 C           1.1269    5.9806    5.9387 C.3     1  LIG1        0.0366
     12 C          -0.9135    2.9279    0.0544 C.3     1  LIG1       -0.0027
     13 C          -0.8153    1.4327    0.2574 C.3     1  LIG1        0.1038
     14 C          -0.2763    0.6973   -0.9636 C.3     1  LIG1       -0.0156
     15 C          -0.1731   -0.8078   -0.7107 C.3     1  LIG1       -0.0497
     16 C           0.4446   -1.5159   -1.9130 C.3     1  LIG1       -0.0529
     17 C           0.5533   -3.0180   -1.6714 C.3     1  LIG1       -0.0531
     18 C           1.1768   -3.7125   -2.8792 C.3     1  LIG1       -0.0530
     19 C           1.2882   -5.2136   -2.6439 C.3     1  LIG1       -0.0528
     20 C           1.9057   -5.9176   -3.8529 C.3     1  LIG1       -0.0496
     21 C           2.0214   -7.4287   -3.6459 C.3     1  LIG1       -0.0350
     22 C           0.6830   -8.0692   -3.4150 C.2     1  LIG1       -0.0911
     23 C          -0.0841   -8.5616   -4.3945 C.2     1  LIG1       -0.1026
     24 H          -2.4787    4.2085    0.8029 H       1  LIG1        0.0415
     25 H          -0.6756    2.6413    2.7844 H       1  LIG1        0.0299
     26 H          -2.2029    3.3700    3.2474 H       1  LIG1        0.0299
     27 H           0.1618    4.9787    2.1532 H       1  LIG1        0.0619
     28 H          -1.1291    7.5125    3.6986 H       1  LIG1        0.0524
     29 H          -1.9074    7.7699    2.1344 H       1  LIG1        0.0524
     30 H          -0.2161    7.2364    2.1713 H       1  LIG1        0.0524
     31 H           0.5309    3.9370    4.4525 H       1  LIG1        0.0585
     32 H          -0.9520    4.7577    5.0235 H       1  LIG1        0.0585
     33 H           1.7358    6.8756    6.0972 H       1  LIG1        0.0524
     34 H           1.7485    5.1003    6.1286 H       1  LIG1        0.0524
     35 H           0.2868    6.0042    6.6406 H       1  LIG1        0.0524
     36 H           0.0521    3.4348    0.1084 H       1  LIG1        0.0309
     37 H          -1.3497    3.1348   -0.9343 H       1  LIG1        0.0309
     38 H          -0.1937    1.1907    1.1271 H       1  LIG1        0.0734
     39 H           0.7152    1.0936   -1.2138 H       1  LIG1        0.0301
     40 H          -0.9307    0.8654   -1.8276 H       1  LIG1        0.0301
     41 H          -1.1674   -1.2233   -0.5076 H       1  LIG1        0.0266
     42 H           0.4428   -0.9923    0.1782 H       1  LIG1        0.0266
     43 H           1.4419   -1.1040   -2.1106 H       1  LIG1        0.0265
     44 H          -0.1654   -1.3289   -2.8050 H       1  LIG1        0.0265
     45 H          -0.4427   -3.4344   -1.4765 H       1  LIG1        0.0265
     46 H           1.1631   -3.2080   -0.7796 H       1  LIG1        0.0265
     47 H           2.1709   -3.2947   -3.0764 H       1  LIG1        0.0265
     48 H           0.5619   -3.5253   -3.7682 H       1  LIG1        0.0265
     49 H           0.2871   -5.6126   -2.4436 H       1  LIG1        0.0265
     50 H           1.8988   -5.4099   -1.7544 H       1  LIG1        0.0265
     51 H           2.9043   -5.5063   -4.0462 H       1  LIG1        0.0268
     52 H           1.3033   -5.7127   -4.7475 H       1  LIG1        0.0268
     53 H           2.6692   -7.6396   -2.7863 H       1  LIG1        0.0307
     54 H           2.5106   -7.8777   -4.5186 H       1  LIG1        0.0307
     55 H           0.3203   -8.0979   -2.3891 H       1  LIG1        0.0566
     56 H           0.2322   -8.5255   -5.4320 H       1  LIG1        0.0532
     57 H          -1.0576   -8.9880   -4.1756 H       1  LIG1        0.0532
@<TRIPOS>BOND
     1     1     2    2
     2     2     3    1
     3     2     4    1
     4     4     5    1
     5     5     6    1
     6     6     7    1
     7     7     8    1
     8     6     9    1
     9     9    10    1
    10    10    11    1
    11     4    12    1
    12    12    13    1
    13     3    13    1
    14    13    14    1
    15    14    15    1
    16    15    16    1
    17    16    17    1
    18    17    18    1
    19    18    19    1
    20    19    20    1
    21    20    21    1
    22    21    22    1
    23    22    23    2
    24     4    24    1
    25     5    25    1
    26     5    26    1
    27     6    27    1
    28     8    28    1
    29     8    29    1
    30     8    30    1
    31     9    31    1
    32     9    32    1
    33    11    33    1
    34    11    34    1
    35    11    35    1
    36    12    36    1
    37    12    37    1
    38    13    38    1
    39    14    39    1
    40    14    40    1
    41    15    41    1
    42    15    42    1
    43    16    43    1
    44    16    44    1
    45    17    45    1
    46    17    46    1
    47    18    47    1
    48    18    48    1
    49    19    49    1
    50    19    50    1
    51    20    51    1
    52    20    52    1
    53    21    53    1
    54    21    54    1
    55    22    55    1
    56    23    56    1
    57    23    57    1
