@<TRIPOS>MOLECULE
NuBBE_569
 50 54 0 0 0
SMALL
GASTEIGER

@<TRIPOS>ATOM
      1 O          -4.1090    1.0394    2.1468 O.2     1  LIG1       -0.2883
      2 C          -3.1504    0.2846    2.1169 C.2     1  LIG1        0.2022
      3 C          -1.6930    0.6589    2.2553 C.3     1  LIG1        0.1709
      4 C          -1.4482    1.5402    3.4685 C.3     1  LIG1       -0.0175
      5 C          -1.1394    1.2149    0.9328 C.3     1  LIG1        0.0210
      6 C           0.3761    1.0804    0.8050 C.3     1  LIG1        0.0735
      7 H           0.8285    1.4126    1.7473 H       1  LIG1        0.0603
      8 O           0.8445    2.0444   -0.1936 O.3     1  LIG1       -0.3415
      9 C           1.8836    1.4202   -1.0121 C.3     1  LIG1        0.2154
     10 C           2.0653    2.1616   -2.3249 C.3     1  LIG1        0.1443
     11 C           3.0658    1.6092   -3.3009 C.3     1  LIG1       -0.0285
     12 C           1.0322    3.1583   -2.8167 C.3     1  LIG1        0.0825
     13 O           2.2247    3.5873   -2.1477 O.3     1  LIG1       -0.3630
     14 O           3.0931    1.5286   -0.2717 O.3     1  LIG1       -0.3615
     15 C           1.3715   -0.0092   -1.0994 C.3     1  LIG1        0.1296
     16 C           0.2167   -0.1577   -2.1062 C.3     1  LIG1       -0.0438
     17 C           2.2736   -1.1927   -1.2602 C.2     1  LIG1        0.3191
     18 O           3.1328   -1.3471   -2.1107 O.2     1  LIG1       -0.2500
     19 C           1.0312   -0.2182    0.3714 C.3     1  LIG1        0.0432
     20 H           1.9898   -0.1307    0.9245 H       1  LIG1        0.0374
     21 C           0.8251   -1.7033    0.5432 C.3     1  LIG1        0.1101
     22 H           1.1570   -2.0196    1.5395 H       1  LIG1        0.0738
     23 O           1.8612   -2.1865   -0.3860 O.3     1  LIG1       -0.4604
     24 C          -0.4847   -2.4284    0.1904 C.3     1  LIG1       -0.0059
     25 C          -1.3661   -2.7999    1.4111 C.3     1  LIG1        0.0173
     26 H          -0.7386   -3.2262    2.2040 H       1  LIG1        0.0377
     27 C          -2.3824   -3.8760    1.0122 C.3     1  LIG1       -0.0554
     28 C          -1.9977   -1.5378    1.9202 C.2     1  LIG1        0.1055
     29 O          -1.0949   -0.6328    2.4710 O.2     1  LIG1       -0.4819
     30 C          -3.2642   -1.1362    1.8068 C.2     1  LIG1        0.0226
     31 H          -0.3797    1.6377    3.6850 H       1  LIG1        0.0272
     32 H          -1.9058    1.1045    4.3645 H       1  LIG1        0.0272
     33 H          -1.8725    2.5398    3.3290 H       1  LIG1        0.0272
     34 H          -1.4336    2.2681    0.8324 H       1  LIG1        0.0333
     35 H          -1.6121    0.7141    0.0804 H       1  LIG1        0.0333
     36 H           3.2882    2.3279   -4.0978 H       1  LIG1        0.0260
     37 H           2.6859    0.7028   -3.7793 H       1  LIG1        0.0260
     38 H           4.0102    1.3706   -2.8019 H       1  LIG1        0.0260
     39 H           0.0954    3.2631   -2.2832 H       1  LIG1        0.0590
     40 H           0.9570    3.3519   -3.8799 H       1  LIG1        0.0590
     41 H           3.3578    2.4615   -0.3793 H       1  LIG1        0.2129
     42 H          -0.6504    0.4545   -1.8501 H       1  LIG1        0.0242
     43 H          -0.1118   -1.1941   -2.2225 H       1  LIG1        0.0242
     44 H           0.5328    0.1391   -3.1117 H       1  LIG1        0.0242
     45 H          -0.2324   -3.3537   -0.3449 H       1  LIG1        0.0308
     46 H          -1.0867   -1.8351   -0.5039 H       1  LIG1        0.0308
     47 H          -3.0065   -3.5551    0.1706 H       1  LIG1        0.0237
     48 H          -3.0401   -4.1276    1.8515 H       1  LIG1        0.0237
     49 H          -1.8679   -4.7951    0.7106 H       1  LIG1        0.0237
     50 H          -4.1320   -1.6133    1.3937 H       1  LIG1        0.0687
@<TRIPOS>BOND
     1     1     2    2
     2     2     3    1
     3     3     4    1
     4     3     5    1
     5     5     6    1
     6     6     7    1
     7     6     8    1
     8     8     9    1
     9    10    11    1
    10    10    12    1
    11    12    13    1
    12    10    13    1
    13     9    15    1
    14    15    16    1
    15    15    17    1
    16    17    18    2
    17     6    19    1
    18    19    20    1
    19    15    19    1
    20    19    21    1
    21    21    22    1
    22    21    23    1
    23    17    23    1
    24    21    24    1
    25    24    25    1
    26    25    28    1
    27    28    29    1
    28     3    29    1
    29    28    30    2
    30     2    30    1
    31     9    14    1
    32     9    10    1
    33    25    27    1
    34    25    26    1
    35     4    31    1
    36     4    32    1
    37     4    33    1
    38     5    34    1
    39     5    35    1
    40    11    36    1
    41    11    37    1
    42    11    38    1
    43    12    39    1
    44    12    40    1
    45    14    41    1
    46    16    42    1
    47    16    43    1
    48    16    44    1
    49    24    45    1
    50    24    46    1
    51    27    47    1
    52    27    48    1
    53    27    49    1
    54    30    50    1
