REMARK  Name = NuBBE_345
REMARK  6 active torsions:
REMARK  status: ('A' for Active; 'I' for Inactive)
REMARK    1  A    between atoms: C_1  and  S_2
REMARK    2  A    between atoms: S_2  and  C_3
REMARK    3  A    between atoms: N_14  and  C_15
REMARK    4  A    between atoms: C_15  and  C_16
REMARK    5  A    between atoms: C_16  and  C_17
REMARK    6  A    between atoms: N_19  and  C_20
REMARK                            x       y       z     vdW  Elec       q    Type
REMARK                         _______ _______ _______ _____ _____    ______ ____
ROOT
ATOM      1  C   LIG A   1      -0.950   2.063   1.853  0.00  0.00    +0.009 A 
ATOM      2  C   LIG A   1       0.064   3.013   1.902  0.00  0.00    +0.017 A 
ATOM      3  C   LIG A   1       0.934   3.137   0.830  0.00  0.00    +0.030 A 
ATOM      4  C   LIG A   1       0.837   2.279  -0.247  0.00  0.00    +0.115 A 
ATOM      5  S   LIG A   1       1.832   2.473  -1.670  0.00  0.00    +0.029 S 
ATOM      6  C   LIG A   1       0.796   2.008  -3.010  0.00  0.00    +0.115 A 
ATOM      7  C   LIG A   1       1.008   2.566  -4.266  0.00  0.00    +0.029 A 
ATOM      8  C   LIG A   1       0.150   2.228  -5.301  0.00  0.00    +0.002 A 
ATOM      9  C   LIG A   1      -0.925   1.370  -5.057  0.00  0.00    +0.002 A 
ATOM     10  C   LIG A   1      -1.098   0.781  -3.793  0.00  0.00    +0.025 A 
ATOM     11  C   LIG A   1      -0.201   1.055  -2.749  0.00  0.00    +0.059 A 
ATOM     12  N   LIG A   1      -0.322   0.482  -1.463  0.00  0.00    -0.297 N 
ATOM     13  C   LIG A   1      -0.154   1.276  -0.326  0.00  0.00    +0.061 A 
ATOM     14  C   LIG A   1      -1.081   1.255   0.712  0.00  0.00    +0.040 A 
ATOM     15  O   LIG A   1       2.064   3.922  -1.791  0.00  0.00    -0.164 OA
ATOM     16  O   LIG A   1       2.912   1.548  -1.607  0.00  0.00    -0.164 OA
ENDROOT
BRANCH   1  18
ATOM     17  C   LIG A   1      -3.442   2.791   2.643  0.00  0.00    +0.090 C 
ATOM     18  S   LIG A   1      -2.028   1.881   3.266  0.00  0.00    -0.129 S 
ENDBRANCH   1  18
BRANCH  12  19
ATOM     19  C   LIG A   1      -0.216  -1.016  -1.344  0.00  0.00    +0.112 C 
BRANCH  19  20
ATOM     20  C   LIG A   1       0.952  -1.624  -0.506  0.00  0.00    +0.038 C 
BRANCH  20  21
ATOM     21  C   LIG A   1       0.939  -1.488   1.051  0.00  0.00    +0.058 C 
ATOM     22  N   LIG A   1      -0.159  -2.089   1.804  0.00  0.00    -0.302 NA
ATOM     23  C   LIG A   1      -1.280  -1.295   2.154  0.00  0.00    +0.105 C 
ATOM     24  C   LIG A   1      -0.460  -3.478   1.601  0.00  0.00    +0.084 C 
ATOM     25  C   LIG A   1       0.692  -4.247   2.210  0.00  0.00    +0.015 C 
ATOM     26  C   LIG A   1       2.045  -3.688   1.758  0.00  0.00    +0.003 C 
ATOM     27  C   LIG A   1       2.154  -2.154   1.728  0.00  0.00    +0.019 C 
ENDBRANCH  20  21
ENDBRANCH  19  20
ENDBRANCH  12  19
TORSDOF 4
