@<TRIPOS>MOLECULE
NuBBE_643
 48 50 0 0 0
SMALL
GASTEIGER

@<TRIPOS>ATOM
      1 C          -3.0368    0.9020   -0.5751 C.3     1  LIG1       -0.0618
      2 C          -2.6874    0.8152    0.9120 C.3     1  LIG1       -0.0365
      3 H          -3.6580    0.8596    1.4281 H       1  LIG1        0.0304
      4 C          -1.9914   -0.4837    1.3782 C.3     1  LIG1       -0.0302
      5 H          -1.9498   -0.3919    2.4774 H       1  LIG1        0.0310
      6 C          -2.8314   -1.7393    1.1390 C.3     1  LIG1       -0.0613
      7 C          -0.5098   -0.6152    0.9297 C.3     1  LIG1        0.0125
      8 H          -0.0830   -1.3882    1.5888 H       1  LIG1        0.0400
      9 C          -0.2356   -1.0900   -0.5017 C.ar    1  LIG1       -0.0360
     10 C          -0.0693   -0.2035   -1.5729 C.ar    1  LIG1       -0.0543
     11 C           0.1708   -0.6619   -2.8711 C.ar    1  LIG1       -0.0162
     12 C           0.3083   -2.0285   -3.1126 C.ar    1  LIG1        0.1585
     13 O           0.5158   -2.4399   -4.4009 O.3     1  LIG1       -0.5033
     14 C           0.2209   -2.9372   -2.0587 C.ar    1  LIG1        0.1615
     15 O           0.3533   -4.3009   -2.1275 O.3     1  LIG1       -0.4914
     16 C           1.1800   -4.8050   -3.1705 C.3     1  LIG1        0.0790
     17 C          -0.0729   -2.4628   -0.7675 C.ar    1  LIG1       -0.0125
     18 C           0.2553    0.6575    1.2744 C.ar    1  LIG1       -0.0328
     19 C           1.6495    0.5811    1.4312 C.ar    1  LIG1       -0.0125
     20 C           2.4133    1.7187    1.6933 C.ar    1  LIG1        0.1587
     21 O           3.7611    1.5642    1.8519 O.3     1  LIG1       -0.5033
     22 C           1.7967    2.9704    1.7885 C.ar    1  LIG1        0.1615
     23 O           2.3814    4.1868    2.0132 O.3     1  LIG1       -0.4914
     24 C           3.7947    4.2286    2.1527 C.3     1  LIG1        0.0790
     25 C           0.4021    3.0402    1.6514 C.ar    1  LIG1       -0.0128
     26 C          -0.3844    1.9015    1.4020 C.ar    1  LIG1       -0.0397
     27 C          -1.8878    2.0515    1.3728 C.3     1  LIG1       -0.0244
     28 H          -2.1893    1.2020   -1.1872 H       1  LIG1        0.0233
     29 H          -3.8008    1.6720   -0.7328 H       1  LIG1        0.0233
     30 H          -3.4404   -0.0355   -0.9650 H       1  LIG1        0.0233
     31 H          -3.8189   -1.6271    1.6016 H       1  LIG1        0.0233
     32 H          -2.3562   -2.6118    1.6003 H       1  LIG1        0.0233
     33 H          -2.9796   -1.9545    0.0784 H       1  LIG1        0.0233
     34 H          -0.1184    0.8725   -1.4174 H       1  LIG1        0.0622
     35 H           0.2541    0.0646   -3.6725 H       1  LIG1        0.0655
     36 H           0.4205   -1.6794   -4.9947 H       1  LIG1        0.2923
     37 H           1.3919   -5.8548   -2.9444 H       1  LIG1        0.0660
     38 H           2.1402   -4.2791   -3.2183 H       1  LIG1        0.0660
     39 H           0.6606   -4.7889   -4.1327 H       1  LIG1        0.0660
     40 H          -0.1485   -3.1857    0.0423 H       1  LIG1        0.0658
     41 H           2.1326   -0.3899    1.3353 H       1  LIG1        0.0658
     42 H           3.9814    0.6195    1.7805 H       1  LIG1        0.2923
     43 H           4.0870    5.2763    2.2722 H       1  LIG1        0.0660
     44 H           4.2991    3.8577    1.2543 H       1  LIG1        0.0660
     45 H           4.1161    3.6979    3.0548 H       1  LIG1        0.0660
     46 H          -0.0797    4.0129    1.7539 H       1  LIG1        0.0658
     47 H          -2.1604    2.9220    0.7631 H       1  LIG1        0.0316
     48 H          -2.1967    2.2803    2.4023 H       1  LIG1        0.0316
@<TRIPOS>BOND
     1     2     4    1
     2     4     5    1
     3     4     6    1
     4     4     7    1
     5     7     8    1
     6     7     9    1
     7     9    10   ar
     8    10    11   ar
     9    11    12   ar
    10    12    13    1
    11    12    14   ar
    12    14    15    1
    13    15    16    1
    14    14    17   ar
    15     9    17   ar
    16     7    18    1
    17    18    19   ar
    18    19    20   ar
    19    20    21    1
    20    20    22   ar
    21    22    23    1
    22    23    24    1
    23    22    25   ar
    24    25    26   ar
    25    18    26   ar
    26    26    27    1
    27     2    27    1
    28     2     3    1
    29     2     1    1
    30     1    28    1
    31     1    29    1
    32     1    30    1
    33     6    31    1
    34     6    32    1
    35     6    33    1
    36    10    34    1
    37    11    35    1
    38    13    36    1
    39    16    37    1
    40    16    38    1
    41    16    39    1
    42    17    40    1
    43    19    41    1
    44    21    42    1
    45    24    43    1
    46    24    44    1
    47    24    45    1
    48    25    46    1
    49    27    47    1
    50    27    48    1
