@<TRIPOS>MOLECULE
NuBBE_1518
 48 49 0 0 0
SMALL
GASTEIGER

@<TRIPOS>ATOM
      1 C           4.0763   -0.7313   -0.4223 C.3     1  LIG1        0.0121
      2 N           2.6508   -1.0105   -0.1918 N.ar    1  LIG1       -0.3466
      3 C           2.2624   -2.3711   -0.3825 C.ar    1  LIG1        0.0527
      4 C           0.9165   -2.7523   -0.2320 C.ar    1  LIG1        0.0452
      5 C          -0.0485   -1.7692    0.2533 C.ar    1  LIG1        0.1897
      6 O          -1.1843   -2.0919    0.5781 O.2     1  LIG1       -0.2872
      7 C           0.4195   -0.3930    0.4414 C.ar    1  LIG1        0.0051
      8 C           1.7053   -0.0520    0.2480 C.ar    1  LIG1        0.0225
      9 C           2.1352    1.3609    0.6729 C.3     1  LIG1       -0.0122
     10 C           1.6090    2.5794   -0.1137 C.3     1  LIG1       -0.0477
     11 C           0.0944    2.8172   -0.0806 C.3     1  LIG1       -0.0527
     12 C          -0.5098    2.9248    1.3271 C.3     1  LIG1       -0.0530
     13 C          -2.0366    3.0981    1.4237 C.3     1  LIG1       -0.0531
     14 C          -2.9412    1.9353    0.9681 C.3     1  LIG1       -0.0531
     15 C          -2.9113    1.6544   -0.5337 C.3     1  LIG1       -0.0533
     16 C          -3.9378    0.6451   -1.0497 C.3     1  LIG1       -0.0559
     17 C          -3.6728   -0.7554   -0.5233 C.3     1  LIG1       -0.0653
     18 C           0.4567   -4.0649   -0.4469 C.ar    1  LIG1       -0.0490
     19 C           1.3675   -5.0552   -0.7671 C.ar    1  LIG1       -0.0610
     20 C           2.7077   -4.7384   -0.8687 C.ar    1  LIG1       -0.0598
     21 C           3.1541   -3.4192   -0.6870 C.ar    1  LIG1       -0.0375
     22 H           4.4120   -1.1413   -1.3763 H       1  LIG1        0.0456
     23 H           4.6761   -1.1648    0.3948 H       1  LIG1        0.0456
     24 H           4.3103    0.3286   -0.4748 H       1  LIG1        0.0456
     25 H          -0.3372    0.2719    0.8146 H       1  LIG1        0.0673
     26 H           3.2251    1.4502    0.6895 H       1  LIG1        0.0328
     27 H           1.8693    1.4781    1.7326 H       1  LIG1        0.0328
     28 H           1.9225    2.4908   -1.1622 H       1  LIG1        0.0269
     29 H           2.0984    3.4803    0.2777 H       1  LIG1        0.0269
     30 H          -0.3268    2.0027   -0.6532 H       1  LIG1        0.0265
     31 H          -0.1469    3.7270   -0.6434 H       1  LIG1        0.0265
     32 H          -0.0517    3.7984    1.8100 H       1  LIG1        0.0265
     33 H          -0.2299    2.0714    1.9496 H       1  LIG1        0.0265
     34 H          -2.3367    4.0215    0.9165 H       1  LIG1        0.0265
     35 H          -2.2571    3.2576    2.4901 H       1  LIG1        0.0265
     36 H          -3.9719    2.1934    1.2479 H       1  LIG1        0.0265
     37 H          -2.6853    1.0343    1.5373 H       1  LIG1        0.0265
     38 H          -1.9522    1.2273   -0.8048 H       1  LIG1        0.0265
     39 H          -3.0272    2.5953   -1.0837 H       1  LIG1        0.0265
     40 H          -3.8335    0.6041   -2.1428 H       1  LIG1        0.0263
     41 H          -4.9545    0.9597   -0.8263 H       1  LIG1        0.0263
     42 H          -2.6688   -1.0589   -0.8169 H       1  LIG1        0.0230
     43 H          -4.3658   -1.4793   -0.9633 H       1  LIG1        0.0230
     44 H          -3.7645   -0.8081    0.5644 H       1  LIG1        0.0230
     45 H          -0.5969   -4.3016   -0.3376 H       1  LIG1        0.0625
     46 H           1.0240   -6.0852   -0.9063 H       1  LIG1        0.0618
     47 H           3.4330   -5.5194   -1.0829 H       1  LIG1        0.0618
     48 H           4.2233   -3.2447   -0.7638 H       1  LIG1        0.0638
@<TRIPOS>BOND
     1     1     2    1
     2     2     3   ar
     3     3     4   ar
     4     4     5   ar
     5     5     6    2
     6     5     7   ar
     7     7     8   ar
     8     2     8   ar
     9     8     9    1
    10     9    10    1
    11    10    11    1
    12    11    12    1
    13    12    13    1
    14    13    14    1
    15    14    15    1
    16    15    16    1
    17    16    17    1
    18     4    18   ar
    19    18    19   ar
    20    19    20   ar
    21    20    21   ar
    22     3    21   ar
    23     1    22    1
    24     1    23    1
    25     1    24    1
    26     7    25    1
    27     9    26    1
    28     9    27    1
    29    10    28    1
    30    10    29    1
    31    11    30    1
    32    11    31    1
    33    12    32    1
    34    12    33    1
    35    13    34    1
    36    13    35    1
    37    14    36    1
    38    14    37    1
    39    15    38    1
    40    15    39    1
    41    16    40    1
    42    16    41    1
    43    17    42    1
    44    17    43    1
    45    17    44    1
    46    18    45    1
    47    19    46    1
    48    20    47    1
    49    21    48    1
