REMARK  Name = NuBBE_1540
REMARK  3 active torsions:
REMARK  status: ('A' for Active; 'I' for Inactive)
REMARK    1  A    between atoms: C_1  and  C_2
REMARK    2  A    between atoms: C_2  and  C_3
REMARK    3  A    between atoms: C_10  and  C_20
REMARK                            x       y       z     vdW  Elec       q    Type
REMARK                         _______ _______ _______ _____ _____    ______ ____
ROOT
ATOM      1  C   LIG A   1      -1.765  -1.725  -0.563  0.00  0.00    +0.011 C 
ATOM      2  C   LIG A   1      -0.305  -2.112  -0.476  0.00  0.00    -0.028 C 
ATOM      3  C   LIG A   1      -0.174  -3.616  -0.338  0.00  0.00    +0.011 C 
ATOM      4  C   LIG A   1       0.691  -1.261   0.305  0.00  0.00    +0.006 C 
ATOM      5  C   LIG A   1       0.854  -1.381  -1.207  0.00  0.00    -0.001 C 
ATOM      6  C   LIG A   1       0.557  -0.413  -2.326  0.00  0.00    +0.004 C 
ATOM      7  C   LIG A   1       0.810   1.105  -2.195  0.00  0.00    +0.004 C 
ATOM      8  C   LIG A   1       0.961   1.722  -0.793  0.00  0.00    -0.010 C 
ATOM      9  C   LIG A   1      -0.127   1.140   0.125  0.00  0.00    -0.000 C 
ATOM     10  C   LIG A   1       0.516   0.060   0.990  0.00  0.00    +0.022 C 
ATOM     11  C   LIG A   1      -0.186   0.128   2.309  0.00  0.00    -0.073 C 
ATOM     12  C   LIG A   1       0.049  -0.700   3.352  0.00  0.00    +0.008 C 
ATOM     13  C   LIG A   1      -1.045   1.345   2.408  0.00  0.00    +0.031 C 
ATOM     14  C   LIG A   1      -1.001   2.006   1.034  0.00  0.00    +0.009 C 
ATOM     15  C   LIG A   1       1.009   3.246  -0.840  0.00  0.00    +0.008 C 
ENDROOT
TORSDOF 0
