@<TRIPOS>MOLECULE
NuBBE_1906
 56 55 0 0 0
SMALL
GASTEIGER

@<TRIPOS>ATOM
      1 C           2.0119    0.6216   -1.1429 C.3     1  LIG1       -0.0531
      2 C           1.2729    1.8858   -0.6759 C.3     1  LIG1       -0.0531
      3 C          -0.1873    1.8694   -1.1396 C.3     1  LIG1       -0.0531
      4 C          -0.9850    3.1004   -0.6849 C.3     1  LIG1       -0.0531
      5 C          -2.4758    3.0357   -1.0850 C.3     1  LIG1       -0.0531
      6 C          -3.1770    1.8202   -0.4587 C.3     1  LIG1       -0.0531
      7 C          -4.6802    1.7149   -0.7240 C.3     1  LIG1       -0.0531
      8 C          -5.2778    0.4075   -0.1571 C.3     1  LIG1       -0.0531
      9 C          -5.2210    0.2888    1.3768 C.3     1  LIG1       -0.0531
     10 C          -5.9088   -0.9895    1.8843 C.3     1  LIG1       -0.0533
     11 C          -5.8036   -1.1541    3.4081 C.3     1  LIG1       -0.0559
     12 C          -6.5222   -2.4104    3.8898 C.3     1  LIG1       -0.0653
     13 C           3.4743    0.6130   -0.6858 C.3     1  LIG1       -0.0531
     14 C           4.2148   -0.6484   -1.1460 C.3     1  LIG1       -0.0530
     15 C           5.6777   -0.6393   -0.6866 C.3     1  LIG1       -0.0526
     16 C           6.4219   -1.8949   -1.1478 C.3     1  LIG1       -0.0430
     17 C           7.8769   -1.8970   -0.6833 C.3     1  LIG1        0.0448
     18 C           8.5972   -3.1292   -1.1350 C.2     1  LIG1        0.3047
     19 O           9.6021   -3.1629   -1.8501 O.2     1  LIG1       -0.2510
     20 O           8.0704   -4.2642   -0.6429 O.3     1  LIG1       -0.4806
     21 H           1.9689    0.5578   -2.2369 H       1  LIG1        0.0265
     22 H           1.5021   -0.2676   -0.7502 H       1  LIG1        0.0265
     23 H           1.7773    2.7777   -1.0639 H       1  LIG1        0.0265
     24 H           1.3068    1.9402    0.4193 H       1  LIG1        0.0265
     25 H          -0.6429    0.9585   -0.7401 H       1  LIG1        0.0265
     26 H          -0.2316    1.8020   -2.2331 H       1  LIG1        0.0265
     27 H          -0.5392    4.0046   -1.1192 H       1  LIG1        0.0265
     28 H          -0.9102    3.2091    0.4044 H       1  LIG1        0.0265
     29 H          -2.5624    3.0110   -2.1785 H       1  LIG1        0.0265
     30 H          -2.9647    3.9612   -0.7534 H       1  LIG1        0.0265
     31 H          -2.9957    1.8512    0.6202 H       1  LIG1        0.0265
     32 H          -2.7271    0.9006   -0.8461 H       1  LIG1        0.0265
     33 H          -4.8483    1.7234   -1.8087 H       1  LIG1        0.0265
     34 H          -5.2115    2.5811   -0.3131 H       1  LIG1        0.0265
     35 H          -4.7572   -0.4484   -0.6067 H       1  LIG1        0.0265
     36 H          -6.3229    0.3396   -0.4821 H       1  LIG1        0.0265
     37 H          -5.7062    1.1632    1.8249 H       1  LIG1        0.0265
     38 H          -4.1782    0.2836    1.7125 H       1  LIG1        0.0265
     39 H          -5.4470   -1.8622    1.4064 H       1  LIG1        0.0265
     40 H          -6.9638   -0.9814    1.5838 H       1  LIG1        0.0265
     41 H          -6.2278   -0.2829    3.9221 H       1  LIG1        0.0263
     42 H          -4.7485   -1.2145    3.7017 H       1  LIG1        0.0263
     43 H          -7.5997   -2.2303    3.9613 H       1  LIG1        0.0230
     44 H          -6.1680   -2.7060    4.8839 H       1  LIG1        0.0230
     45 H          -6.3609   -3.2547    3.2115 H       1  LIG1        0.0230
     46 H           3.5154    0.6786    0.4081 H       1  LIG1        0.0265
     47 H           3.9834    1.4985   -1.0839 H       1  LIG1        0.0265
     48 H           4.1761   -0.7202   -2.2397 H       1  LIG1        0.0265
     49 H           3.7103   -1.5372   -0.7469 H       1  LIG1        0.0265
     50 H           5.7179   -0.5751    0.4076 H       1  LIG1        0.0265
     51 H           6.1821    0.2509   -1.0815 H       1  LIG1        0.0265
     52 H           6.3913   -1.9667   -2.2421 H       1  LIG1        0.0270
     53 H           5.9084   -2.7833   -0.7616 H       1  LIG1        0.0270
     54 H           7.9538   -1.8321    0.4093 H       1  LIG1        0.0377
     55 H           8.4017   -1.0233   -1.0948 H       1  LIG1        0.0377
     56 H           8.6366   -4.9746   -1.0081 H       1  LIG1        0.2951
@<TRIPOS>BOND
     1     1     2    1
     2     2     3    1
     3     3     4    1
     4     4     5    1
     5     5     6    1
     6     6     7    1
     7     7     8    1
     8     8     9    1
     9     9    10    1
    10    10    11    1
    11    11    12    1
    12     1    13    1
    13    13    14    1
    14    14    15    1
    15    15    16    1
    16    16    17    1
    17    17    18    1
    18    18    19    2
    19    18    20    1
    20     1    21    1
    21     1    22    1
    22     2    23    1
    23     2    24    1
    24     3    25    1
    25     3    26    1
    26     4    27    1
    27     4    28    1
    28     5    29    1
    29     5    30    1
    30     6    31    1
    31     6    32    1
    32     7    33    1
    33     7    34    1
    34     8    35    1
    35     8    36    1
    36     9    37    1
    37     9    38    1
    38    10    39    1
    39    10    40    1
    40    11    41    1
    41    11    42    1
    42    12    43    1
    43    12    44    1
    44    12    45    1
    45    13    46    1
    46    13    47    1
    47    14    48    1
    48    14    49    1
    49    15    50    1
    50    15    51    1
    51    16    52    1
    52    16    53    1
    53    17    54    1
    54    17    55    1
    55    20    56    1
