REMARK  Name = NuBBE_4
REMARK  11 active torsions:
REMARK  status: ('A' for Active; 'I' for Inactive)
REMARK    1  A    between atoms: O_1  and  C_2
REMARK    2  A    between atoms: C_5  and  C_6
REMARK    3  A    between atoms: C_6  and  O_7
REMARK    4  A    between atoms: O_7  and  C_8
REMARK    5  A    between atoms: C_8  and  C_9
REMARK    6  A    between atoms: C_10  and  C_11
REMARK    7  A    between atoms: C_10  and  C_12
REMARK    8  A    between atoms: C_12  and  C_13
REMARK    9  A    between atoms: C_13  and  C_14
REMARK   10  A    between atoms: C_15  and  C_16
REMARK   11  A    between atoms: C_15  and  C_17
REMARK                            x       y       z     vdW  Elec       q    Type
REMARK                         _______ _______ _______ _____ _____    ______ ____
ROOT
ATOM      1  O   LIG A   1      -1.358   0.892   0.397  0.00  0.00    -0.457 OA
ENDROOT
BRANCH   1   2
ATOM      2  C   LIG A   1      -1.318  -0.292   1.056  0.00  0.00    +0.340 C 
ATOM      3  O   LIG A   1      -0.452  -0.675   1.825  0.00  0.00    -0.245 OA
BRANCH   2   7
ATOM      4  C   LIG A   1      -4.776  -2.657   0.240  0.00  0.00    +0.117 A 
ATOM      5  C   LIG A   1      -4.704  -1.375  -0.280  0.00  0.00    +0.046 A 
ATOM      6  C   LIG A   1      -3.577  -0.592  -0.033  0.00  0.00    +0.018 A 
ATOM      7  C   LIG A   1      -2.526  -1.099   0.746  0.00  0.00    +0.059 A 
ATOM      8  C   LIG A   1      -2.627  -2.391   1.284  0.00  0.00    +0.018 A 
ATOM      9  C   LIG A   1      -3.751  -3.174   1.029  0.00  0.00    +0.046 A 
BRANCH   4  10
ATOM     10  O   LIG A   1      -5.856  -3.459   0.001  0.00  0.00    -0.507 OA
ATOM     11  H   LIG A   1      -6.476  -2.979  -0.575  0.00  0.00    +0.292 HD
ENDBRANCH   4  10
ENDBRANCH   2   7
ENDBRANCH   1   2
BRANCH   1  12
ATOM     12  C   LIG A   1      -0.465   1.939   0.841  0.00  0.00    +0.260 C 
BRANCH  12  13
ATOM     13  C   LIG A   1       0.970   1.573   0.660  0.00  0.00    +0.012 C 
ATOM     14  C   LIG A   1       2.091   2.249   0.970  0.00  0.00    -0.073 C 
ATOM     15  C   LIG A   1       2.065   3.608   1.611  0.00  0.00    +0.038 C 
BRANCH  14  16
ATOM     16  C   LIG A   1       3.488   1.679   0.726  0.00  0.00    +0.034 C 
BRANCH  16  17
ATOM     17  C   LIG A   1       3.620   0.301   0.031  0.00  0.00    +0.031 C 
BRANCH  17  18
ATOM     18  C   LIG A   1       3.042   0.284  -1.364  0.00  0.00    -0.028 C 
ATOM     19  C   LIG A   1       2.044  -0.489  -1.834  0.00  0.00    -0.080 C 
ATOM     20  C   LIG A   1       1.349  -1.588  -1.074  0.00  0.00    +0.038 C 
ATOM     21  C   LIG A   1       1.442  -0.231  -3.194  0.00  0.00    +0.038 C 
ENDBRANCH  17  18
ENDBRANCH  16  17
ENDBRANCH  14  16
ENDBRANCH  12  13
ENDBRANCH   1  12
TORSDOF 8
