@<TRIPOS>MOLECULE
NuBBE_2431
 34 36 0 0 0
SMALL
GASTEIGER

@<TRIPOS>ATOM
      1 O          -3.6455    0.1037    0.7030 O.2     1  LIG1       -0.2917
      2 C          -2.4285    0.0636    0.5896 C.2     1  LIG1        0.1740
      3 C          -1.6725   -1.1885    0.3104 C.ar    1  LIG1        0.1007
      4 C          -0.3102   -1.0669    0.0311 C.ar    1  LIG1        0.1389
      5 O           0.3648    0.1187   -0.0325 O.3     1  LIG1       -0.4828
      6 C          -0.4717    1.2610   -0.2492 C.3     1  LIG1        0.1322
      7 H          -0.8756    1.1814   -1.2691 H       1  LIG1        0.0789
      8 C          -1.5904    1.3051    0.7749 C.3     1  LIG1        0.0520
      9 C           0.4140    2.4917   -0.1846 C.ar    1  LIG1       -0.0069
     10 C           0.0897    3.6303   -0.9366 C.ar    1  LIG1       -0.0551
     11 C           0.9178    4.7548   -0.9133 C.ar    1  LIG1       -0.0614
     12 C           2.0753    4.7577   -0.1370 C.ar    1  LIG1       -0.0617
     13 C           2.4050    3.6392    0.6229 C.ar    1  LIG1       -0.0614
     14 C           1.5771    2.5169    0.6046 C.ar    1  LIG1       -0.0551
     15 C           0.4878   -2.1924   -0.1758 C.ar    1  LIG1        0.0227
     16 C          -0.0721   -3.4640   -0.1349 C.ar    1  LIG1        0.1271
     17 C          -1.4386   -3.5983    0.1254 C.ar    1  LIG1        0.0225
     18 C          -2.2355   -2.4683    0.3523 C.ar    1  LIG1        0.1343
     19 O          -3.5587   -2.6431    0.6375 O.3     1  LIG1       -0.5058
     20 O           0.6105   -4.6337   -0.3280 O.3     1  LIG1       -0.4949
     21 C           2.0102   -4.5136   -0.5703 C.3     1  LIG1        0.0788
     22 H          -2.2244    2.1863    0.6247 H       1  LIG1        0.0385
     23 H          -1.2182    1.3121    1.8065 H       1  LIG1        0.0385
     24 H          -0.8036    3.6459   -1.5574 H       1  LIG1        0.0621
     25 H           0.6634    5.6283   -1.5081 H       1  LIG1        0.0618
     26 H           2.7224    5.6306   -0.1260 H       1  LIG1        0.0618
     27 H           3.3102    3.6346    1.2246 H       1  LIG1        0.0618
     28 H           1.8605    1.6496    1.1983 H       1  LIG1        0.0621
     29 H           1.5433   -2.0329   -0.3714 H       1  LIG1        0.0691
     30 H          -1.8661   -4.5968    0.1615 H       1  LIG1        0.0691
     31 H          -3.7832   -3.5872    0.6352 H       1  LIG1        0.2922
     32 H           2.4185   -5.5185   -0.7086 H       1  LIG1        0.0660
     33 H           2.5199   -4.0609    0.2876 H       1  LIG1        0.0660
     34 H           2.2044   -3.9462   -1.4873 H       1  LIG1        0.0660
@<TRIPOS>BOND
     1     1     2    2
     2     2     3    1
     3     3     4   ar
     4     4     5    1
     5     5     6    1
     6     6     7    1
     7     6     8    1
     8     2     8    1
     9     6     9    1
    10     9    10   ar
    11    10    11   ar
    12    11    12   ar
    13    12    13   ar
    14    13    14   ar
    15     9    14   ar
    16     4    15   ar
    17    15    16   ar
    18    16    17   ar
    19    17    18   ar
    20     3    18   ar
    21    18    19    1
    22    16    20    1
    23    20    21    1
    24     8    22    1
    25     8    23    1
    26    10    24    1
    27    11    25    1
    28    12    26    1
    29    13    27    1
    30    14    28    1
    31    15    29    1
    32    17    30    1
    33    19    31    1
    34    21    32    1
    35    21    33    1
    36    21    34    1
