REMARK  Name = NuBBE_317
REMARK  17 active torsions:
REMARK  status: ('A' for Active; 'I' for Inactive)
REMARK    1  A    between atoms: O_1  and  C_2
REMARK    2  A    between atoms: C_6  and  C_57
REMARK    3  A    between atoms: C_8  and  C_9
REMARK    4  A    between atoms: C_8  and  C_10
REMARK    5  A    between atoms: C_14  and  C_56
REMARK    6  A    between atoms: C_20  and  C_53
REMARK    7  A    between atoms: C_23  and  C_34
REMARK    8  A    between atoms: C_26  and  C_33
REMARK    9  A    between atoms: C_28  and  C_32
REMARK   10  A    between atoms: C_34  and  O_35
REMARK   11  A    between atoms: O_35  and  C_36
REMARK   12  A    between atoms: C_38  and  O_51
REMARK   13  A    between atoms: C_40  and  O_50
REMARK   14  A    between atoms: C_42  and  O_49
REMARK   15  A    between atoms: C_44  and  C_47
REMARK   16  A    between atoms: C_47  and  O_48
REMARK   17  A    between atoms: C_53  and  O_54
REMARK                            x       y       z     vdW  Elec       q    Type
REMARK                         _______ _______ _______ _____ _____    ______ ____
ROOT
ATOM      1  C   LIG A   1      -3.449  -2.121   5.084  0.00  0.00    +0.120 C 
ATOM      2  C   LIG A   1      -2.638  -3.414   4.958  0.00  0.00    +0.032 C 
ATOM      3  C   LIG A   1      -1.629  -3.364   3.801  0.00  0.00    +0.010 C 
ATOM      4  C   LIG A   1      -0.648  -2.140   3.838  0.00  0.00    -0.025 C 
ATOM      5  C   LIG A   1      -1.537  -0.849   3.989  0.00  0.00    +0.003 C 
ATOM      6  C   LIG A   1      -2.559  -0.848   5.189  0.00  0.00    -0.006 C 
ATOM      7  C   LIG A   1      -3.467   0.410   5.102  0.00  0.00    +0.014 C 
ATOM      8  C   LIG A   1      -1.898  -0.788   6.580  0.00  0.00    +0.014 C 
ATOM      9  C   LIG A   1      -0.716   0.437   3.858  0.00  0.00    +0.005 C 
ATOM     10  C   LIG A   1       0.066   0.493   2.542  0.00  0.00    +0.009 C 
ATOM     11  C   LIG A   1       1.053  -0.687   2.296  0.00  0.00    -0.009 C 
ATOM     12  C   LIG A   1       0.229  -2.034   2.489  0.00  0.00    +0.006 C 
ATOM     13  C   LIG A   1      -0.685  -2.321   1.278  0.00  0.00    +0.031 C 
ATOM     14  C   LIG A   1      -0.169  -1.978  -0.062  0.00  0.00    -0.026 C 
ATOM     15  C   LIG A   1       0.918  -1.244  -0.329  0.00  0.00    -0.052 C 
ATOM     16  C   LIG A   1       1.746  -0.603   0.800  0.00  0.00    +0.094 C 
ATOM     17  C   LIG A   1       1.970   0.894   0.397  0.00  0.00    +0.024 C 
ATOM     18  C   LIG A   1       2.414   1.173  -1.043  0.00  0.00    +0.020 C 
ATOM     19  C   LIG A   1       1.605   0.445  -2.153  0.00  0.00    +0.075 C 
ATOM     20  C   LIG A   1       1.447  -1.055  -1.765  0.00  0.00    +0.036 C 
ATOM     21  C   LIG A   1       0.756  -1.914  -2.889  0.00  0.00    -0.003 C 
ATOM     22  C   LIG A   1       1.060  -1.367  -4.310  0.00  0.00    -0.011 C 
ATOM     23  C   LIG A   1       2.435  -0.709  -4.342  0.00  0.00    +0.004 C 
ATOM     24  C   LIG A   1       2.469   0.543  -3.459  0.00  0.00    +0.019 C 
ATOM     25  C   LIG A   1       0.902  -2.394  -5.430  0.00  0.00    +0.008 C 
ATOM     26  C   LIG A   1       1.147  -3.401  -2.736  0.00  0.00    +0.008 C 
ATOM     27  C   LIG A   1       2.180  -0.533   3.363  0.00  0.00    +0.013 C 
ATOM     28  C   LIG A   1       0.328  -2.395   5.014  0.00  0.00    +0.012 C 
ENDROOT
BRANCH   1  29
ATOM     29  O   LIG A   1      -4.301  -2.054   3.935  0.00  0.00    -0.391 OA
ATOM     30  H   LIG A   1      -4.981  -1.380   4.105  0.00  0.00    +0.210 HD
ENDBRANCH   1  29
BRANCH  19  31
ATOM     31  C   LIG A   1       0.209   1.133  -2.300  0.00  0.00    +0.316 C 
ATOM     32  O   LIG A   1      -0.650   1.157  -1.420  0.00  0.00    -0.250 OA
BRANCH  31  33
ATOM     33  O   LIG A   1       0.034   1.736  -3.504  0.00  0.00    -0.432 OA
BRANCH  33  34
ATOM     34  C   LIG A   1      -1.246   2.304  -3.851  0.00  0.00    +0.342 C 
ATOM     35  C   LIG A   1      -1.853   3.354  -2.895  0.00  0.00    +0.214 C 
ATOM     36  C   LIG A   1      -0.898   4.542  -2.700  0.00  0.00    +0.180 C 
ATOM     37  C   LIG A   1       0.174   4.612  -3.799  0.00  0.00    +0.177 C 
ATOM     38  C   LIG A   1      -0.394   4.183  -5.160  0.00  0.00    +0.179 C 
ATOM     39  O   LIG A   1      -1.130   2.935  -5.148  0.00  0.00    -0.331 OA
BRANCH  37  40
ATOM     40  O   LIG A   1       0.717   5.934  -3.862  0.00  0.00    -0.387 OA
ATOM     41  H   LIG A   1       1.072   6.120  -2.971  0.00  0.00    +0.210 HD
ENDBRANCH  37  40
BRANCH  36  42
ATOM     42  O   LIG A   1      -0.209   4.456  -1.442  0.00  0.00    -0.386 OA
ATOM     43  H   LIG A   1      -0.866   4.210  -0.762  0.00  0.00    +0.210 HD
ENDBRANCH  36  42
BRANCH  35  44
ATOM     44  O   LIG A   1      -3.093   3.855  -3.445  0.00  0.00    -0.383 OA
ATOM     45  H   LIG A   1      -2.942   4.058  -4.388  0.00  0.00    +0.210 HD
ENDBRANCH  35  44
BRANCH  38  46
ATOM     46  C   LIG A   1       0.720   4.025  -6.200  0.00  0.00    +0.190 C 
BRANCH  46  47
ATOM     47  O   LIG A   1       0.156   3.641  -7.456  0.00  0.00    -0.392 OA
ATOM     48  H   LIG A   1      -0.443   2.896  -7.255  0.00  0.00    +0.209 HD
ENDBRANCH  46  47
ENDBRANCH  38  46
ENDBRANCH  33  34
ENDBRANCH  31  33
ENDBRANCH  19  31
BRANCH  16  49
ATOM     49  C   LIG A   1       3.102  -1.371   0.793  0.00  0.00    +0.316 C 
ATOM     50  O   LIG A   1       3.288  -2.560   0.522  0.00  0.00    -0.250 OA
BRANCH  49  51
ATOM     51  O   LIG A   1       4.176  -0.623   1.117  0.00  0.00    -0.480 OA
ATOM     52  H   LIG A   1       4.930  -1.248   1.055  0.00  0.00    +0.295 HD
ENDBRANCH  49  51
ENDBRANCH  16  49
TORSDOF 11
