REMARK  Name = NuBBE_1015
REMARK  4 active torsions:
REMARK  status: ('A' for Active; 'I' for Inactive)
REMARK    1  A    between atoms: O_1  and  C_2
REMARK    2  A    between atoms: C_2  and  C_3
REMARK    3  A    between atoms: C_3  and  C_4
REMARK    4  A    between atoms: C_7  and  O_8
REMARK                            x       y       z     vdW  Elec       q    Type
REMARK                         _______ _______ _______ _____ _____    ______ ____
ROOT
ATOM      1  C   LIG A   1      -0.201  -0.043   0.429  0.00  0.00    -0.045 A 
ATOM      2  C   LIG A   1       0.528   1.155   0.393  0.00  0.00    +0.007 A 
ATOM      3  C   LIG A   1       1.920   1.136   0.278  0.00  0.00    +0.045 A 
ATOM      4  C   LIG A   1       2.583  -0.084   0.196  0.00  0.00    +0.117 A 
ATOM      5  C   LIG A   1       1.877  -1.281   0.228  0.00  0.00    +0.045 A 
ATOM      6  C   LIG A   1       0.487  -1.262   0.343  0.00  0.00    +0.007 A 
ENDROOT
BRANCH   4   7
ATOM      7  O   LIG A   1       3.939  -0.149   0.078  0.00  0.00    -0.507 OA
ATOM      8  H   LIG A   1       4.292   0.756   0.070  0.00  0.00    +0.292 HD
ENDBRANCH   4   7
BRANCH   1   9
ATOM      9  C   LIG A   1      -1.704  -0.020   0.525  0.00  0.00    +0.063 C 
BRANCH   9  10
ATOM     10  C   LIG A   1      -2.363   0.000  -0.850  0.00  0.00    +0.160 C 
BRANCH  10  11
ATOM     11  O   LIG A   1      -3.778   0.044  -0.696  0.00  0.00    -0.395 OA
ATOM     12  H   LIG A   1      -4.160   0.047  -1.590  0.00  0.00    +0.209 HD
ENDBRANCH  10  11
ENDBRANCH   9  10
ENDBRANCH   1   9
TORSDOF 4
