@<TRIPOS>MOLECULE
NuBBE_2198
 52 54 0 0 0
SMALL
GASTEIGER

@<TRIPOS>ATOM
      1 C          -1.9888   -0.1787    0.0402 C.3     1  LIG1       -0.0586
      2 C          -0.8488    0.7549   -0.4391 C.3     1  LIG1       -0.0182
      3 C          -0.1228    1.4879    0.7437 C.3     1  LIG1       -0.0231
      4 C           0.5345    0.4611    1.6756 C.3     1  LIG1        0.0100
      5 C           1.5233   -0.4091    0.9370 C.2     1  LIG1        0.1374
      6 C           1.5845   -0.3080   -0.5810 C.3     1  LIG1        0.0283
      7 C           2.3590   -1.4664   -1.2391 C.3     1  LIG1       -0.0336
      8 C           1.6248   -2.8435   -1.2212 C.3     1  LIG1       -0.0070
      9 C           2.1471   -3.6917   -0.0637 C.2     1  LIG1       -0.0848
     10 C           1.4463   -4.4447    0.7960 C.2     1  LIG1       -0.1021
     11 C           1.9994   -3.6073   -2.5105 C.3     1  LIG1       -0.0557
     12 C           0.0970   -2.6474   -1.1768 C.3     1  LIG1        0.0150
     13 H           2.1915    0.5947   -0.7509 H       1  LIG1        0.0385
     14 C           0.2222   -0.0651   -1.2704 C.3     1  LIG1        0.0327
     15 H           0.4822    0.5287   -2.1612 H       1  LIG1        0.0390
     16 C          -0.2990   -1.3692   -1.8761 C.2     1  LIG1        0.1384
     17 O          -1.0457   -1.3707   -2.8508 O.2     1  LIG1       -0.2970
     18 O           2.3149   -1.1037    1.5760 O.2     1  LIG1       -0.2971
     19 H           0.7035    2.0397    0.2654 H       1  LIG1        0.0315
     20 C          -0.9304    2.6094    1.4964 C.3     1  LIG1       -0.0312
     21 C           0.0493    3.4637    2.3465 C.3     1  LIG1       -0.0595
     22 C          -2.0036    2.0959    2.4778 C.3     1  LIG1       -0.0595
     23 C          -1.5760    3.5618    0.4600 C.3     1  LIG1       -0.0476
     24 C          -2.3459    2.8477   -0.6459 C.3     1  LIG1       -0.0520
     25 C          -1.4699    1.8309   -1.3736 C.3     1  LIG1       -0.0467
     26 H          -1.6257   -0.9838    0.6829 H       1  LIG1        0.0235
     27 H          -2.5105   -0.6405   -0.8055 H       1  LIG1        0.0235
     28 H          -2.7679    0.3422    0.5904 H       1  LIG1        0.0235
     29 H          -0.1987   -0.1943    2.1531 H       1  LIG1        0.0345
     30 H           1.1002    0.9647    2.4649 H       1  LIG1        0.0345
     31 H           3.3582   -1.5491   -0.7913 H       1  LIG1        0.0280
     32 H           2.5423   -1.1715   -2.2830 H       1  LIG1        0.0280
     33 H           3.2299   -3.6783    0.0769 H       1  LIG1        0.0572
     34 H           0.3689   -4.5519    0.7549 H       1  LIG1        0.0532
     35 H           1.9601   -4.9859    1.5864 H       1  LIG1        0.0532
     36 H           1.6454   -3.0793   -3.4032 H       1  LIG1        0.0238
     37 H           1.5547   -4.6100   -2.5246 H       1  LIG1        0.0238
     38 H           3.0856   -3.7266   -2.6043 H       1  LIG1        0.0238
     39 H          -0.2776   -2.5668   -0.1514 H       1  LIG1        0.0350
     40 H          -0.4342   -3.4882   -1.6388 H       1  LIG1        0.0350
     41 H           0.8997    3.8113    1.7496 H       1  LIG1        0.0235
     42 H           0.4427    2.9040    3.2012 H       1  LIG1        0.0235
     43 H          -0.4515    4.3518    2.7502 H       1  LIG1        0.0235
     44 H          -2.9043    1.7354    1.9821 H       1  LIG1        0.0235
     45 H          -2.3409    2.9047    3.1383 H       1  LIG1        0.0235
     46 H          -1.6228    1.3001    3.1244 H       1  LIG1        0.0235
     47 H          -2.2455    4.2716    0.9626 H       1  LIG1        0.0271
     48 H          -0.7910    4.1684   -0.0123 H       1  LIG1        0.0271
     49 H          -2.6983    3.5935   -1.3688 H       1  LIG1        0.0266
     50 H          -3.2441    2.3697   -0.2431 H       1  LIG1        0.0266
     51 H          -0.6671    2.3859   -1.8783 H       1  LIG1        0.0271
     52 H          -2.0562    1.3521   -2.1676 H       1  LIG1        0.0271
@<TRIPOS>BOND
     1     2     3    1
     2     3     4    1
     3     4     5    1
     4     5     6    1
     5     6     7    1
     6     7     8    1
     7     9    10    2
     8     8    12    1
     9     6    14    1
    10     2    14    1
    11    14    16    1
    12    12    16    1
    13     3    20    1
    14    20    23    1
    15    23    24    1
    16    24    25    1
    17     2    25    1
    18     1     2    1
    19     3    19    1
    20     5    18    2
    21     6    13    1
    22    14    15    1
    23    16    17    2
    24    20    21    1
    25    20    22    1
    26     8    11    1
    27     8     9    1
    28     1    26    1
    29     1    27    1
    30     1    28    1
    31     4    29    1
    32     4    30    1
    33     7    31    1
    34     7    32    1
    35     9    33    1
    36    10    34    1
    37    10    35    1
    38    11    36    1
    39    11    37    1
    40    11    38    1
    41    12    39    1
    42    12    40    1
    43    21    41    1
    44    21    42    1
    45    21    43    1
    46    22    44    1
    47    22    45    1
    48    22    46    1
    49    23    47    1
    50    23    48    1
    51    24    49    1
    52    24    50    1
    53    25    51    1
    54    25    52    1
