REMARK  Name = NuBBE_1544
REMARK  7 active torsions:
REMARK  status: ('A' for Active; 'I' for Inactive)
REMARK    1  A    between atoms: C_1  and  C_2
REMARK    2  A    between atoms: C_8  and  C_9
REMARK    3  A    between atoms: C_8  and  C_10
REMARK    4  A    between atoms: C_10  and  C_11
REMARK    5  A    between atoms: C_11  and  C_12
REMARK    6  A    between atoms: C_13  and  C_14
REMARK    7  A    between atoms: C_13  and  C_15
REMARK                            x       y       z     vdW  Elec       q    Type
REMARK                         _______ _______ _______ _____ _____    ______ ____
ROOT
ATOM      1  C   LIG A   1      -4.835   1.848  -0.849  0.00  0.00    +0.038 C 
ATOM      2  C   LIG A   1      -3.347   1.770  -0.664  0.00  0.00    -0.076 C 
ATOM      3  C   LIG A   1      -2.588   2.853  -0.434  0.00  0.00    -0.024 C 
ATOM      4  C   LIG A   1      -1.090   2.838  -0.273  0.00  0.00    +0.057 C 
ATOM      5  C   LIG A   1      -0.445   1.459  -0.332  0.00  0.00    -0.067 C 
ATOM      6  C   LIG A   1      -1.395   0.329   0.022  0.00  0.00    +0.035 C 
ATOM      7  C   LIG A   1      -2.720   0.403  -0.745  0.00  0.00    +0.034 C 
ATOM      8  C   LIG A   1       0.875   1.283  -0.612  0.00  0.00    -0.073 C 
ATOM      9  C   LIG A   1       1.831   2.424  -0.880  0.00  0.00    +0.039 C 
ENDROOT
BRANCH   8  10
ATOM     10  C   LIG A   1       1.566  -0.074  -0.657  0.00  0.00    +0.034 C 
BRANCH  10  11
ATOM     11  C   LIG A   1       2.161  -0.457   0.704  0.00  0.00    +0.031 C 
BRANCH  11  12
ATOM     12  C   LIG A   1       2.851  -1.795   0.666  0.00  0.00    -0.028 C 
ATOM     13  C   LIG A   1       2.335  -2.987   1.019  0.00  0.00    -0.080 C 
ATOM     14  C   LIG A   1       0.916  -3.209   1.467  0.00  0.00    +0.038 C 
ATOM     15  C   LIG A   1       3.173  -4.238   0.972  0.00  0.00    +0.038 C 
ENDBRANCH  11  12
ENDBRANCH  10  11
ENDBRANCH   8  10
TORSDOF 3
