@<TRIPOS>MOLECULE
NuBBE_2121
 26 25 0 0 0
SMALL
GASTEIGER

@<TRIPOS>ATOM
      1 C           0.1652    0.4625   -0.8148 C.3     1  LIG1       -0.0653
      2 C          -0.2667   -0.5557   -1.7591 C.3     1  LIG1       -0.0559
      3 C          -0.2030   -1.7908   -0.8189 C.3     1  LIG1       -0.0533
      4 C           1.1371   -1.7490    0.0450 C.3     1  LIG1       -0.0531
      5 C           1.1802   -0.8530    1.3719 C.3     1  LIG1       -0.0531
      6 C           0.9360    0.8308    1.4396 C.3     1  LIG1       -0.0533
      7 C          -0.7480    1.6345    1.1140 C.3     1  LIG1       -0.0559
      8 C          -1.8465    1.4427   -0.3538 C.3     1  LIG1       -0.0653
      9 H           0.1984    1.5530   -0.9383 H       1  LIG1        0.0230
     10 H           1.2216    0.3805   -0.7577 H       1  LIG1        0.0230
     11 H          -0.2485    0.0623    0.0256 H       1  LIG1        0.0230
     12 H           0.4698   -0.4314   -2.5549 H       1  LIG1        0.0263
     13 H          -1.2785   -0.4214   -2.1507 H       1  LIG1        0.0263
     14 H          -0.3523   -2.6461   -1.4783 H       1  LIG1        0.0265
     15 H          -1.0621   -1.8144   -0.1074 H       1  LIG1        0.0265
     16 H           1.9121   -1.4672   -0.6602 H       1  LIG1        0.0265
     17 H           1.3248   -2.8600    0.3064 H       1  LIG1        0.0265
     18 H           2.1811   -1.0400    1.7431 H       1  LIG1        0.0265
     19 H           0.4654   -1.2663    2.0784 H       1  LIG1        0.0265
     20 H           1.7676    1.2798    0.8515 H       1  LIG1        0.0265
     21 H           1.2612    1.1511    2.4641 H       1  LIG1        0.0265
     22 H          -0.5005    2.6874    1.1689 H       1  LIG1        0.0263
     23 H          -1.2921    1.2104    1.9269 H       1  LIG1        0.0263
     24 H          -1.4677    1.7177   -1.3483 H       1  LIG1        0.0230
     25 H          -2.7303    2.0647   -0.3903 H       1  LIG1        0.0230
     26 H          -2.2246    0.4179   -0.4026 H       1  LIG1        0.0230
@<TRIPOS>BOND
     1     1     2    1
     2     2     3    1
     3     3     4    1
     4     4     5    1
     5     5     6    1
     6     6     7    1
     7     7     8    1
     8     1     9    1
     9     1    10    1
    10     1    11    1
    11     2    12    1
    12     2    13    1
    13     3    14    1
    14     3    15    1
    15     4    16    1
    16     4    17    1
    17     5    18    1
    18     5    19    1
    19     6    20    1
    20     6    21    1
    21     7    22    1
    22     7    23    1
    23     8    24    1
    24     8    25    1
    25     8    26    1
