REMARK  Name = NuBBE_1291
REMARK  13 active torsions:
REMARK  status: ('A' for Active; 'I' for Inactive)
REMARK    1  A    between atoms: C_1  and  C_2
REMARK    2  A    between atoms: C_2  and  O_36
REMARK    3  A    between atoms: C_4  and  C_5
REMARK    4  A    between atoms: C_6  and  C_8
REMARK    5  A    between atoms: C_8  and  C_9
REMARK    6  A    between atoms: C_9  and  O_10
REMARK    7  A    between atoms: O_10  and  C_11
REMARK    8  A    between atoms: C_13  and  C_27
REMARK    9  A    between atoms: C_15  and  C_16
REMARK   10  A    between atoms: C_17  and  C_19
REMARK   11  A    between atoms: C_30  and  O_32
REMARK   12  A    between atoms: O_32  and  C_33
REMARK   13  A    between atoms: C_33  and  C_34
REMARK                            x       y       z     vdW  Elec       q    Type
REMARK                         _______ _______ _______ _____ _____    ______ ____
ROOT
ATOM      1  C   LIG A   1      -4.877   0.592  -1.534  0.00  0.00    +0.046 C 
ATOM      2  C   LIG A   1      -3.364   0.793  -1.717  0.00  0.00    +0.089 C 
ATOM      3  C   LIG A   1      -2.573  -0.018  -0.616  0.00  0.00    +0.081 C 
ATOM      4  C   LIG A   1      -1.687  -1.253  -1.116  0.00  0.00    +0.043 C 
ATOM      5  C   LIG A   1      -2.236  -2.522  -0.368  0.00  0.00    +0.020 C 
ATOM      6  C   LIG A   1      -0.109  -1.161  -0.771  0.00  0.00    +0.026 C 
ATOM      7  C   LIG A   1       0.508   0.267  -0.560  0.00  0.00    +0.025 C 
ATOM      8  C   LIG A   1       1.374   0.535   0.657  0.00  0.00    -0.033 C 
ATOM      9  C   LIG A   1       2.328   0.004   1.440  0.00  0.00    -0.063 C 
ATOM     10  C   LIG A   1       2.681  -1.404   1.737  0.00  0.00    +0.040 C 
ATOM     11  C   LIG A   1       3.234   1.162   1.907  0.00  0.00    +0.051 C 
ATOM     12  C   LIG A   1       2.546   2.404   1.274  0.00  0.00    +0.048 C 
ATOM     13  C   LIG A   1       1.114   1.920   1.157  0.00  0.00    +0.146 C 
ATOM     14  O   LIG A   1       0.210   2.496   0.244  0.00  0.00    -0.364 OA
ATOM     15  C   LIG A   1       1.371   0.745  -1.766  0.00  0.00    +0.019 C 
ATOM     16  C   LIG A   1      -0.518   1.388  -0.362  0.00  0.00    +0.170 C 
ATOM     17  C   LIG A   1      -1.806   0.936   0.350  0.00  0.00    +0.213 C 
ATOM     18  C   LIG A   1      -3.014   0.493  -3.133  0.00  0.00    +0.011 C 
ATOM     19  C   LIG A   1      -2.378  -0.600  -3.547  0.00  0.00    +0.045 C 
ATOM     20  C   LIG A   1      -1.953  -1.625  -2.585  0.00  0.00    +0.163 C 
ATOM     21  O   LIG A   1      -1.807  -2.773  -3.010  0.00  0.00    -0.292 OA
ENDROOT
BRANCH  11  22
ATOM     22  C   LIG A   1       3.469   1.321   3.371  0.00  0.00    -0.003 A 
ATOM     23  C   LIG A   1       4.619   1.843   3.941  0.00  0.00    +0.199 A 
ATOM     24  O   LIG A   1       4.511   1.903   5.290  0.00  0.00    -0.471 OA
ATOM     25  C   LIG A   1       3.284   1.421   5.604  0.00  0.00    +0.195 A 
ATOM     26  C   LIG A   1       2.606   1.050   4.466  0.00  0.00    +0.045 A 
ENDBRANCH  11  22
BRANCH   2  27
ATOM     27  O   LIG A   1      -3.135   2.193  -1.558  0.00  0.00    -0.384 OA
ATOM     28  H   LIG A   1      -3.608   2.685  -2.250  0.00  0.00    +0.211 HD
ENDBRANCH   2  27
BRANCH   6  29
ATOM     29  C   LIG A   1       0.837  -2.134  -1.591  0.00  0.00    +0.126 C 
BRANCH  29  30
ATOM     30  C   LIG A   1       1.072  -1.837  -3.085  0.00  0.00    +0.307 C 
ATOM     31  O   LIG A   1       0.427  -1.111  -3.802  0.00  0.00    -0.251 OA
BRANCH  30  32
ATOM     32  O   LIG A   1       2.208  -2.518  -3.482  0.00  0.00    -0.468 OA
ATOM     33  C   LIG A   1       2.582  -2.308  -4.855  0.00  0.00    +0.280 C 
ENDBRANCH  30  32
ENDBRANCH  29  30
ENDBRANCH   6  29
BRANCH  17  34
ATOM     34  O   LIG A   1      -1.638   0.210   1.598  0.00  0.00    -0.459 OA
BRANCH  34  35
ATOM     35  C   LIG A   1      -2.174   0.833   2.690  0.00  0.00    +0.304 C 
ATOM     36  C   LIG A   1      -2.575  -0.179   3.755  0.00  0.00    +0.136 C 
ATOM     37  O   LIG A   1      -2.375   2.010   2.819  0.00  0.00    -0.251 OA
ENDBRANCH  34  35
ENDBRANCH  17  34
TORSDOF 7
