@<TRIPOS>MOLECULE
NuBBE_1480
 39 38 0 0 0
SMALL
GASTEIGER

@<TRIPOS>ATOM
      1 C           0.1476    0.1045    0.1689 C.2     1  LIG1       -0.0762
      2 C          -0.2606    1.0997   -0.6413 C.2     1  LIG1       -0.0847
      3 C           0.6206    2.0043   -1.4610 C.3     1  LIG1       -0.0305
      4 C           0.7790    1.4797   -2.8988 C.3     1  LIG1       -0.0248
      5 C           1.6000    2.3744   -3.8107 C.2     1  LIG1       -0.0547
      6 C           2.7558    1.9309   -4.3427 C.2     1  LIG1       -0.0955
      7 C           1.1238    3.7071   -4.1561 C.2     1  LIG1       -0.0662
      8 C          -0.0299    4.2766   -3.7566 C.2     1  LIG1       -0.0985
      9 C          -0.8589   -0.7398    0.9316 C.3     1  LIG1       -0.0286
     10 C          -0.6770   -0.7190    2.4568 C.3     1  LIG1       -0.0308
     11 C          -1.7084   -1.5841    3.1357 C.2     1  LIG1       -0.0850
     12 C          -1.5869   -2.8814    3.4817 C.2     1  LIG1       -0.0796
     13 C          -0.3639   -3.7253    3.2469 C.3     1  LIG1       -0.0440
     14 C          -2.7331   -3.6187    4.1246 C.3     1  LIG1       -0.0440
     15 C           1.5915   -0.2909    0.3197 C.3     1  LIG1       -0.0438
     16 H          -1.3274    1.3048   -0.7364 H       1  LIG1        0.0572
     17 H           1.6007    2.1532   -0.9963 H       1  LIG1        0.0311
     18 H           0.1547    2.9925   -1.4316 H       1  LIG1        0.0311
     19 H          -0.2048    1.3118   -3.3584 H       1  LIG1        0.0316
     20 H           1.2465    0.4864   -2.8478 H       1  LIG1        0.0316
     21 H           3.1302    0.9373   -4.1264 H       1  LIG1        0.0537
     22 H           3.3526    2.5370   -5.0136 H       1  LIG1        0.0537
     23 H           1.7643    4.3003   -4.8034 H       1  LIG1        0.0614
     24 H          -0.7543    3.7724   -3.1323 H       1  LIG1        0.0535
     25 H          -0.2741    5.2888   -4.0486 H       1  LIG1        0.0535
     26 H          -0.7841   -1.7718    0.5647 H       1  LIG1        0.0313
     27 H          -1.8806   -0.4109    0.6966 H       1  LIG1        0.0313
     28 H          -0.7855    0.3068    2.8317 H       1  LIG1        0.0310
     29 H           0.3327   -1.0320    2.7409 H       1  LIG1        0.0310
     30 H          -2.6478   -1.0743    3.3491 H       1  LIG1        0.0572
     31 H           0.4327   -3.1968    2.7180 H       1  LIG1        0.0274
     32 H          -0.6222   -4.6032    2.6451 H       1  LIG1        0.0274
     33 H           0.0437   -4.0710    4.2027 H       1  LIG1        0.0274
     34 H          -3.6167   -2.9845    4.2519 H       1  LIG1        0.0274
     35 H          -2.4431   -3.9919    5.1120 H       1  LIG1        0.0274
     36 H          -3.0273   -4.4716    3.5033 H       1  LIG1        0.0274
     37 H           2.2581    0.2383   -0.3663 H       1  LIG1        0.0274
     38 H           1.7144   -1.3581    0.1115 H       1  LIG1        0.0274
     39 H           1.9377   -0.0814    1.3351 H       1  LIG1        0.0274
@<TRIPOS>BOND
     1     1     2    2
     2     2     3    1
     3     3     4    1
     4     4     5    1
     5     5     6    2
     6     5     7    1
     7     7     8    2
     8     1     9    1
     9     9    10    1
    10    10    11    1
    11    11    12    2
    12    12    13    1
    13    12    14    1
    14     1    15    1
    15     2    16    1
    16     3    17    1
    17     3    18    1
    18     4    19    1
    19     4    20    1
    20     6    21    1
    21     6    22    1
    22     7    23    1
    23     8    24    1
    24     8    25    1
    25     9    26    1
    26     9    27    1
    27    10    28    1
    28    10    29    1
    29    11    30    1
    30    13    31    1
    31    13    32    1
    32    13    33    1
    33    14    34    1
    34    14    35    1
    35    14    36    1
    36    15    37    1
    37    15    38    1
    38    15    39    1
