REMARK  Name = NuBBE_1677
REMARK  15 active torsions:
REMARK  status: ('A' for Active; 'I' for Inactive)
REMARK    1  A    between atoms: C_1  and  C_2
REMARK    2  A    between atoms: C_2  and  C_3
REMARK    3  A    between atoms: C_3  and  C_4
REMARK    4  A    between atoms: C_4  and  C_5
REMARK    5  A    between atoms: C_5  and  C_6
REMARK    6  A    between atoms: C_6  and  C_7
REMARK    7  A    between atoms: C_8  and  C_9
REMARK    8  A    between atoms: C_9  and  C_10
REMARK    9  A    between atoms: C_10  and  C_11
REMARK   10  A    between atoms: C_11  and  C_12
REMARK   11  A    between atoms: C_12  and  C_13
REMARK   12  A    between atoms: C_13  and  C_14
REMARK   13  A    between atoms: C_14  and  C_15
REMARK   14  A    between atoms: C_15  and  C_16
REMARK   15  A    between atoms: C_18  and  O_19
REMARK                            x       y       z     vdW  Elec       q    Type
REMARK                         _______ _______ _______ _____ _____    ______ ____
ROOT
ATOM      1  C   LIG A   1       1.677   1.258   3.457  0.00  0.00    +0.000 C 
ENDROOT
BRANCH   1   2
ATOM      2  C   LIG A   1       0.869   0.160   4.334  0.00  0.00    +0.000 C 
BRANCH   2   3
ATOM      3  C   LIG A   1      -0.657   0.360   4.613  0.00  0.00    +0.004 C 
BRANCH   3   4
ATOM      4  C   LIG A   1      -1.878   0.114   3.633  0.00  0.00    +0.027 C 
BRANCH   4   6
ATOM      5  C   LIG A   1      -1.343   0.661   1.174  0.00  0.00    -0.031 C 
ATOM      6  C   LIG A   1      -2.057   0.822   2.316  0.00  0.00    -0.031 C 
BRANCH   5   7
ATOM      7  C   LIG A   1      -0.085  -0.362   0.999  0.00  0.00    +0.027 C 
BRANCH   7   8
ATOM      8  C   LIG A   1       1.008  -0.767  -0.000  0.00  0.00    +0.004 C 
BRANCH   8   9
ATOM      9  C   LIG A   1       0.175  -1.467  -0.925  0.00  0.00    +0.000 C 
BRANCH   9  10
ATOM     10  C   LIG A   1       0.189  -1.109  -3.176  0.00  0.00    -0.000 C 
BRANCH  10  12
ATOM     11  C   LIG A   1      -1.320   1.102  -3.720  0.00  0.00    +0.004 C 
ATOM     12  C   LIG A   1       0.053   0.380  -3.945  0.00  0.00    -0.003 C 
ENDBRANCH  10  12
ENDBRANCH   9  10
ENDBRANCH   8   9
ENDBRANCH   7   8
ENDBRANCH   5   7
ENDBRANCH   4   6
ENDBRANCH   3   4
ENDBRANCH   2   3
ENDBRANCH   1   2
BRANCH   1  13
ATOM     13  C   LIG A   1       0.933   1.375   2.229  0.00  0.00    +0.000 C 
BRANCH  13  14
ATOM     14  C   LIG A   1       1.210   2.087   0.640  0.00  0.00    +0.005 C 
BRANCH  14  15
ATOM     15  C   LIG A   1       0.283   1.795  -0.920  0.00  0.00    +0.035 C 
BRANCH  15  16
ATOM     16  C   LIG A   1       0.162   0.423  -1.733  0.00  0.00    -0.044 A 
ATOM     17  C   LIG A   1      -1.406  -0.612  -1.967  0.00  0.00    +0.049 A 
ATOM     18  C   LIG A   1      -1.142  -2.424  -2.220  0.00  0.00    +0.117 A 
ATOM     19  C   LIG A   1       0.522  -3.100  -2.344  0.00  0.00    +0.045 A 
ATOM     20  C   LIG A   1       1.956  -2.095  -2.201  0.00  0.00    +0.004 A 
ATOM     21  C   LIG A   1       1.808  -0.362  -2.058  0.00  0.00    +0.004 A 
BRANCH  18  22
ATOM     22  O   LIG A   1      -2.184  -3.200  -2.469  0.00  0.00    -0.507 OA
ATOM     23  H   LIG A   1      -2.863  -2.585  -2.146  0.00  0.00    +0.292 HD
ENDBRANCH  18  22
ENDBRANCH  15  16
ENDBRANCH  14  15
ENDBRANCH  13  14
ENDBRANCH   1  13
TORSDOF 14
