@<TRIPOS>MOLECULE
NuBBE_961
 85 89 0 0 0
SMALL
GASTEIGER

@<TRIPOS>ATOM
      1 H          -2.7062    0.2505   -1.4962 H       1  LIG1        0.0355
      2 C          -1.6596    0.0837   -1.7748 C.3     1  LIG1       -0.0072
      3 C          -1.4752   -1.5106   -1.8145 C.3     1  LIG1        0.0372
      4 C          -1.9479   -2.0323   -3.1925 C.3     1  LIG1       -0.0520
      5 C          -2.2258   -2.2709   -0.6152 C.3     1  LIG1       -0.0108
      6 H          -3.1677   -1.7063   -0.5148 H       1  LIG1        0.0321
      7 C          -2.7895   -3.6899   -0.9670 C.3     1  LIG1        0.0492
      8 C          -1.7823   -4.7317   -1.3937 C.2     1  LIG1        0.3071
      9 O          -2.4458   -5.8570   -1.7754 O.3     1  LIG1       -0.4679
     10 C          -1.7298   -6.6270   -2.7374 C.3     1  LIG1        0.0817
     11 O          -0.5755   -4.5637   -1.4657 O.2     1  LIG1       -0.2509
     12 C          -1.5341   -2.2040    0.8388 C.3     1  LIG1       -0.0035
     13 C          -1.7638   -3.4972    1.6673 C.3     1  LIG1       -0.0571
     14 C          -2.2725   -1.0960    1.6467 C.3     1  LIG1       -0.0571
     15 C           0.0398   -2.0334    0.8548 C.3     1  LIG1        0.0776
     16 H           0.4888   -3.0350    0.7949 H       1  LIG1        0.0611
     17 O           0.4283   -1.4754    2.1498 O.3     1  LIG1       -0.3672
     18 C           1.8207   -1.2770    2.3612 C.3     1  LIG1        0.1104
     19 C           2.2953   -0.7266    3.7404 C.2     1  LIG1        0.1841
     20 C           3.7525   -0.9293    4.1261 C.2     1  LIG1       -0.0099
     21 C           4.1469   -0.7599    5.5708 C.3     1  LIG1       -0.0366
     22 C           4.6456   -1.2452    3.1670 C.2     1  LIG1       -0.0808
     23 C           6.1109   -1.4853    3.3416 C.3     1  LIG1       -0.0462
     24 O           1.5531   -0.0888    4.4879 O.2     1  LIG1       -0.2899
     25 C          -0.7685    0.7985   -0.7780 C.2     1  LIG1       -0.0644
     26 C          -0.9098    2.2941   -0.6379 C.3     1  LIG1       -0.0005
     27 H          -0.2553    2.6256    0.1796 H       1  LIG1        0.0357
     28 C          -0.4219    2.9215   -1.9529 C.3     1  LIG1        0.0164
     29 C          -1.3505    2.3696   -3.0867 C.3     1  LIG1       -0.0428
     30 C          -1.4333    0.8116   -3.1397 C.3     1  LIG1       -0.0450
     31 C           1.0370    2.5373   -2.3153 C.3     1  LIG1       -0.0553
     32 C          -2.3247    2.7496   -0.2655 C.3     1  LIG1        0.0521
     33 C          -2.6943    4.1598   -0.6470 C.2     1  LIG1        0.3083
     34 O          -1.8689    4.8596   -1.4513 O.3     1  LIG1       -0.4557
     35 C          -0.5056    4.4637   -1.7398 C.3     1  LIG1        0.1404
     36 H          -0.2650    4.9549   -2.6906 H       1  LIG1        0.0793
     37 C           0.3860    5.0575   -0.6709 C.2     1  LIG1        0.0792
     38 C           0.1331    5.4289    0.5927 C.2     1  LIG1       -0.0030
     39 C           1.3334    5.9736    1.2517 C.3     1  LIG1        0.2233
     40 O           1.1004    7.2851    1.7078 O.3     1  LIG1       -0.3545
     41 O           2.3255    5.9604    0.2495 O.3     1  LIG1       -0.4282
     42 C           1.7922    5.4383   -0.9001 C.2     1  LIG1        0.3410
     43 O           2.3835    5.3174   -1.9388 O.2     1  LIG1       -0.2451
     44 O          -3.7668    4.6416   -0.2915 O.2     1  LIG1       -0.2508
     45 C           0.2616    0.1990   -0.1701 C.2     1  LIG1       -0.0716
     46 C           0.5908   -1.2451   -0.3252 C.3     1  LIG1        0.0631
     47 C           0.0182   -1.7476   -1.6348 C.2     1  LIG1        0.1493
     48 O           0.7350   -2.2374   -2.5063 O.2     1  LIG1       -0.2961
     49 H          -1.3372   -1.6423   -4.0131 H       1  LIG1        0.0239
     50 H          -2.9926   -1.7602   -3.3782 H       1  LIG1        0.0239
     51 H          -1.8605   -3.1149   -3.2965 H       1  LIG1        0.0239
     52 H          -3.3564   -4.1061   -0.1282 H       1  LIG1        0.0381
     53 H          -3.5263   -3.5923   -1.7760 H       1  LIG1        0.0381
     54 H          -2.4011   -7.4088   -3.1013 H       1  LIG1        0.0661
     55 H          -0.8365   -7.0903   -2.3090 H       1  LIG1        0.0661
     56 H          -1.4671   -5.9857   -3.5853 H       1  LIG1        0.0661
     57 H          -2.8170   -3.6374    1.9255 H       1  LIG1        0.0236
     58 H          -1.1968   -3.4741    2.6040 H       1  LIG1        0.0236
     59 H          -1.4094   -4.3807    1.1291 H       1  LIG1        0.0236
     60 H          -3.3445   -1.3247    1.7157 H       1  LIG1        0.0236
     61 H          -2.1979   -0.1086    1.1915 H       1  LIG1        0.0236
     62 H          -1.9071   -1.0200    2.6754 H       1  LIG1        0.0236
     63 H           2.1783   -0.5259    1.6515 H       1  LIG1        0.0643
     64 H           2.3236   -2.2280    2.1716 H       1  LIG1        0.0643
     65 H           3.3242   -0.4476    6.2199 H       1  LIG1        0.0279
     66 H           4.9462   -0.0163    5.6812 H       1  LIG1        0.0279
     67 H           4.5217   -1.7132    5.9632 H       1  LIG1        0.0279
     68 H           4.3365   -1.3484    2.1315 H       1  LIG1        0.0573
     69 H           6.4613   -1.3365    4.3651 H       1  LIG1        0.0272
     70 H           6.6673   -0.8054    2.6889 H       1  LIG1        0.0272
     71 H           6.3460   -2.5118    3.0439 H       1  LIG1        0.0272
     72 H          -0.9979    2.7318   -4.0605 H       1  LIG1        0.0272
     73 H          -2.3708    2.7551   -2.9810 H       1  LIG1        0.0272
     74 H          -0.5142    0.4343   -3.6036 H       1  LIG1        0.0271
     75 H          -2.2497    0.5524   -3.8253 H       1  LIG1        0.0271
     76 H           1.1329    1.5085   -2.6754 H       1  LIG1        0.0237
     77 H           1.7109    2.6320   -1.4584 H       1  LIG1        0.0237
     78 H           1.4102    3.1743   -3.1248 H       1  LIG1        0.0237
     79 H          -2.4566    2.6482    0.8186 H       1  LIG1        0.0384
     80 H          -3.0892    2.1238   -0.7359 H       1  LIG1        0.0384
     81 H          -0.8084    5.3322    1.1106 H       1  LIG1        0.0640
     82 H           1.6543    5.3549    2.0956 H       1  LIG1        0.1105
     83 H           0.7867    7.7967    0.9451 H       1  LIG1        0.2139
     84 H           0.9186    0.7780    0.4738 H       1  LIG1        0.0580
     85 H           1.6804   -1.3523   -0.3886 H       1  LIG1        0.0446
@<TRIPOS>BOND
     1     1     2    1
     2     2     3    1
     3     3     4    1
     4     3     5    1
     5     7     8    1
     6     8     9    1
     7     9    10    1
     8     8    11    2
     9     5    12    1
    10    12    13    1
    11    12    14    1
    12    12    15    1
    13    15    16    1
    14    15    17    1
    15    17    18    1
    16    18    19    1
    17    19    20    1
    18    20    21    1
    19    20    22    2
    20    22    23    1
    21    19    24    2
    22     2    25    1
    23    25    26    1
    24    26    27    1
    25    26    28    1
    26    28    29    1
    27    29    30    1
    28     2    30    1
    29    28    31    1
    30    26    32    1
    31    32    33    1
    32    33    34    1
    33    34    35    1
    34    28    35    1
    35    37    38    2
    36    38    39    1
    37    39    40    1
    38    39    41    1
    39    41    42    1
    40    37    42    1
    41    42    43    2
    42    33    44    2
    43    25    45    2
    44    45    46    1
    45    15    46    1
    46    46    47    1
    47     3    47    1
    48    47    48    2
    49     5     7    1
    50     5     6    1
    51    35    37    1
    52    35    36    1
    53     4    49    1
    54     4    50    1
    55     4    51    1
    56     7    52    1
    57     7    53    1
    58    10    54    1
    59    10    55    1
    60    10    56    1
    61    13    57    1
    62    13    58    1
    63    13    59    1
    64    14    60    1
    65    14    61    1
    66    14    62    1
    67    18    63    1
    68    18    64    1
    69    21    65    1
    70    21    66    1
    71    21    67    1
    72    22    68    1
    73    23    69    1
    74    23    70    1
    75    23    71    1
    76    29    72    1
    77    29    73    1
    78    30    74    1
    79    30    75    1
    80    31    76    1
    81    31    77    1
    82    31    78    1
    83    32    79    1
    84    32    80    1
    85    38    81    1
    86    39    82    1
    87    40    83    1
    88    45    84    1
    89    46    85    1
