REMARK  Name = NuBBE_1637
REMARK  17 active torsions:
REMARK  status: ('A' for Active; 'I' for Inactive)
REMARK    1  A    between atoms: C_1  and  C_2
REMARK    2  A    between atoms: C_7  and  C_9
REMARK    3  A    between atoms: C_7  and  C_27
REMARK    4  A    between atoms: C_9  and  C_10
REMARK    5  A    between atoms: C_10  and  C_11
REMARK    6  A    between atoms: C_12  and  C_13
REMARK    7  A    between atoms: C_12  and  C_26
REMARK    8  A    between atoms: C_13  and  C_14
REMARK    9  A    between atoms: C_14  and  C_15
REMARK   10  A    between atoms: C_16  and  C_17
REMARK   11  A    between atoms: C_16  and  C_23
REMARK   12  A    between atoms: C_17  and  C_18
REMARK   13  A    between atoms: C_18  and  C_19
REMARK   14  A    between atoms: C_20  and  C_21
REMARK   15  A    between atoms: C_20  and  C_22
REMARK   16  A    between atoms: C_23  and  O_25
REMARK   17  A    between atoms: C_29  and  O_31
REMARK                            x       y       z     vdW  Elec       q    Type
REMARK                         _______ _______ _______ _____ _____    ______ ____
ROOT
ATOM      1  C   LIG A   1      -1.906  -0.589  -1.952  0.00  0.00    -0.028 C 
ATOM      2  C   LIG A   1      -2.615  -0.254  -0.862  0.00  0.00    -0.076 C 
ATOM      3  C   LIG A   1      -2.162   0.657   0.196  0.00  0.00    +0.038 C 
ENDROOT
BRANCH   1   4
ATOM      4  C   LIG A   1      -0.523  -0.272  -2.514  0.00  0.00    +0.031 C 
BRANCH   4   5
ATOM      5  C   LIG A   1       0.668   0.255  -1.663  0.00  0.00    +0.051 C 
BRANCH   5  12
ATOM      6  C   LIG A   1       2.912  -2.965  -4.823  0.00  0.00    +0.048 C 
ATOM      7  C   LIG A   1       3.346  -2.808  -3.393  0.00  0.00    -0.005 A 
ATOM      8  C   LIG A   1       3.149  -1.628  -2.633  0.00  0.00    +0.128 A 
ATOM      9  C   LIG A   1       3.681  -1.526  -1.335  0.00  0.00    -0.002 A 
ATOM     10  C   LIG A   1       3.590  -0.221  -0.571  0.00  0.00    +0.043 C 
ATOM     11  C   LIG A   1       3.192   0.927  -1.480  0.00  0.00    +0.052 C 
ATOM     12  C   LIG A   1       2.042   0.521  -2.424  0.00  0.00    +0.108 C 
ATOM     13  O   LIG A   1       2.431  -0.615  -3.229  0.00  0.00    -0.485 OA
ATOM     14  C   LIG A   1       1.944   1.728  -3.382  0.00  0.00    +0.056 C 
ATOM     15  C   LIG A   1       4.314  -2.664  -0.776  0.00  0.00    +0.052 A 
ATOM     16  C   LIG A   1       4.501  -3.824  -1.539  0.00  0.00    +0.118 A 
ATOM     17  C   LIG A   1       4.033  -3.897  -2.837  0.00  0.00    +0.052 A 
BRANCH  16  18
ATOM     18  O   LIG A   1       5.162  -4.925  -1.075  0.00  0.00    -0.507 OA
ATOM     19  H   LIG A   1       5.380  -4.807  -0.139  0.00  0.00    +0.292 HD
ENDBRANCH  16  18
ENDBRANCH   5  12
ENDBRANCH   4   5
ENDBRANCH   1   4
BRANCH   2  20
ATOM     20  C   LIG A   1      -4.083  -0.768  -0.670  0.00  0.00    +0.034 C 
BRANCH  20  21
ATOM     21  C   LIG A   1      -4.937  -0.294   0.552  0.00  0.00    +0.032 C 
BRANCH  21  22
ATOM     22  C   LIG A   1      -4.339  -0.730   1.876  0.00  0.00    -0.016 C 
ATOM     23  C   LIG A   1      -3.717   0.062   2.741  0.00  0.00    +0.033 C 
BRANCH  23  24
ATOM     24  C   LIG A   1      -3.783   1.481   2.355  0.00  0.00    +0.333 C 
ATOM     25  O   LIG A   1      -4.192   2.239   1.599  0.00  0.00    -0.245 OA
BRANCH  24  26
ATOM     26  O   LIG A   1      -2.864   1.944   3.147  0.00  0.00    -0.477 OA
ATOM     27  H   LIG A   1      -2.992   2.769   2.639  0.00  0.00    +0.295 HD
ENDBRANCH  24  26
ENDBRANCH  23  24
BRANCH  23  28
ATOM     28  C   LIG A   1      -2.754  -0.449   3.885  0.00  0.00    +0.046 C 
BRANCH  28  29
ATOM     29  C   LIG A   1      -1.795   0.517   4.751  0.00  0.00    +0.032 C 
BRANCH  29  30
ATOM     30  C   LIG A   1      -0.572   1.202   4.084  0.00  0.00    -0.028 C 
ATOM     31  C   LIG A   1      -0.423   2.462   3.563  0.00  0.00    -0.080 C 
ATOM     32  C   LIG A   1      -1.392   3.658   3.472  0.00  0.00    +0.038 C 
ATOM     33  C   LIG A   1       0.782   2.798   2.736  0.00  0.00    +0.038 C 
ENDBRANCH  29  30
ENDBRANCH  28  29
ENDBRANCH  23  28
ENDBRANCH  21  22
ENDBRANCH  20  21
ENDBRANCH   2  20
TORSDOF 12
