REMARK  Name = NuBBE_963
REMARK  20 active torsions:
REMARK  status: ('A' for Active; 'I' for Inactive)
REMARK    1  A    between atoms: C_1  and  C_2
REMARK    2  A    between atoms: C_6  and  C_8
REMARK    3  A    between atoms: C_8  and  C_9
REMARK    4  A    between atoms: C_9  and  C_10
REMARK    5  A    between atoms: C_10  and  C_11
REMARK    6  A    between atoms: C_11  and  C_12
REMARK    7  A    between atoms: C_12  and  C_13
REMARK    8  A    between atoms: C_13  and  C_14
REMARK    9  A    between atoms: C_14  and  C_15
REMARK   10  A    between atoms: C_15  and  C_16
REMARK   11  A    between atoms: C_16  and  C_17
REMARK   12  A    between atoms: C_17  and  C_18
REMARK   13  A    between atoms: C_18  and  C_19
REMARK   14  A    between atoms: C_19  and  C_20
REMARK   15  A    between atoms: C_20  and  C_21
REMARK   16  A    between atoms: C_21  and  C_22
REMARK   17  A    between atoms: C_22  and  C_23
REMARK   18  A    between atoms: C_23  and  C_24
REMARK   19  A    between atoms: C_24  and  C_25
REMARK   20  A    between atoms: C_31  and  O_33
REMARK                            x       y       z     vdW  Elec       q    Type
REMARK                         _______ _______ _______ _____ _____    ______ ____
ROOT
ATOM      1  C   LIG A   1       1.618  -1.225  -1.175  0.00  0.00    -0.000 C 
ENDROOT
BRANCH   1   2
ATOM      2  C   LIG A   1       1.752  -1.021  -2.717  0.00  0.00    -0.000 C 
BRANCH   2   3
ATOM      3  C   LIG A   1       3.135  -1.143  -3.356  0.00  0.00    -0.000 C 
BRANCH   3   4
ATOM      4  C   LIG A   1       4.104  -2.296  -3.196  0.00  0.00    -0.000 C 
BRANCH   4   5
ATOM      5  C   LIG A   1       5.459  -1.916  -3.865  0.00  0.00    -0.000 C 
BRANCH   5   6
ATOM      6  C   LIG A   1       6.281  -0.731  -3.252  0.00  0.00    -0.000 C 
BRANCH   6   7
ATOM      7  C   LIG A   1       6.074   0.847  -3.434  0.00  0.00    -0.000 C 
BRANCH   7   8
ATOM      8  C   LIG A   1       4.773   1.626  -2.979  0.00  0.00    +0.000 C 
BRANCH   8   9
ATOM      9  C   LIG A   1       4.704   3.186  -3.116  0.00  0.00    +0.000 C 
BRANCH   9  10
ATOM     10  C   LIG A   1       3.363   3.939  -2.675  0.00  0.00    +0.005 C 
BRANCH  10  11
ATOM     11  C   LIG A   1       2.754   3.596  -1.292  0.00  0.00    +0.035 C 
BRANCH  11  12
ATOM     12  C   LIG A   1       1.293   4.025  -1.054  0.00  0.00    -0.047 A 
ATOM     13  C   LIG A   1       0.278   3.052  -1.102  0.00  0.00    +0.003 A 
ATOM     14  C   LIG A   1      -1.068   3.330  -0.815  0.00  0.00    +0.000 A 
ATOM     15  C   LIG A   1      -1.454   4.626  -0.515  0.00  0.00    +0.000 A 
ATOM     16  C   LIG A   1      -0.474   5.620  -0.461  0.00  0.00    +0.000 A 
ATOM     17  C   LIG A   1       0.891   5.324  -0.707  0.00  0.00    +0.003 A 
ENDBRANCH  11  12
ENDBRANCH  10  11
ENDBRANCH   9  10
ENDBRANCH   8   9
ENDBRANCH   7   8
ENDBRANCH   6   7
ENDBRANCH   5   6
ENDBRANCH   4   5
ENDBRANCH   3   4
ENDBRANCH   2   3
ENDBRANCH   1   2
BRANCH   1  18
ATOM     18  C   LIG A   1       0.175  -0.903  -0.604  0.00  0.00    -0.000 C 
BRANCH  18  19
ATOM     19  C   LIG A   1      -0.122  -1.118   0.904  0.00  0.00    -0.000 C 
BRANCH  19  20
ATOM     20  C   LIG A   1      -1.605  -0.834   1.391  0.00  0.00    -0.000 C 
BRANCH  20  21
ATOM     21  C   LIG A   1      -2.720  -1.789   0.903  0.00  0.00    +0.000 C 
BRANCH  21  22
ATOM     22  C   LIG A   1      -4.145  -1.602   1.564  0.00  0.00    +0.001 C 
BRANCH  22  23
ATOM     23  C   LIG A   1      -4.271  -1.915   3.087  0.00  0.00    +0.017 C 
BRANCH  23  28
ATOM     24  C   LIG A   1      -6.513  -3.616   6.945  0.00  0.00    +0.055 C 
ATOM     25  C   LIG A   1      -5.855  -3.292   5.577  0.00  0.00    +0.203 C 
ATOM     26  O   LIG A   1      -6.647  -3.741   4.497  0.00  0.00    -0.459 OA
ATOM     27  C   LIG A   1      -6.665  -2.832   3.463  0.00  0.00    +0.313 C 
ATOM     28  C   LIG A   1      -5.702  -1.766   3.748  0.00  0.00    +0.130 C 
ATOM     29  C   LIG A   1      -5.665  -1.823   5.287  0.00  0.00    +0.168 C 
ATOM     30  O   LIG A   1      -7.398  -2.935   2.433  0.00  0.00    -0.250 OA
BRANCH  29  31
ATOM     31  O   LIG A   1      -6.757  -1.061   5.815  0.00  0.00    -0.387 OA
ATOM     32  H   LIG A   1      -6.511  -0.122   5.840  0.00  0.00    +0.210 HD
ENDBRANCH  29  31
ENDBRANCH  23  28
ENDBRANCH  22  23
ENDBRANCH  21  22
ENDBRANCH  20  21
ENDBRANCH  19  20
ENDBRANCH  18  19
ENDBRANCH   1  18
TORSDOF 19
