REMARK  Name = NuBBE_1944
REMARK  4 active torsions:
REMARK  status: ('A' for Active; 'I' for Inactive)
REMARK    1  A    between atoms: C_1  and  C_2
REMARK    2  A    between atoms: C_2  and  C_4
REMARK    3  A    between atoms: C_2  and  C_19
REMARK    4  A    between atoms: C_11  and  C_12
REMARK                            x       y       z     vdW  Elec       q    Type
REMARK                         _______ _______ _______ _____ _____    ______ ____
ROOT
ATOM      1  C   LIG A   1       0.787  -1.267   0.173  0.00  0.00    -0.001 C 
ATOM      2  C   LIG A   1       0.614   0.061   0.995  0.00  0.00    +0.022 C 
ATOM      3  C   LIG A   1       0.877   1.409   0.264  0.00  0.00    +0.022 C 
ATOM      4  C   LIG A   1      -0.392   2.031  -0.328  0.00  0.00    +0.013 C 
ATOM      5  C   LIG A   1      -1.497   2.187   0.719  0.00  0.00    +0.031 C 
ATOM      6  C   LIG A   1      -1.602   1.048   1.701  0.00  0.00    -0.076 C 
ATOM      7  C   LIG A   1      -2.830   1.046   2.566  0.00  0.00    +0.038 C 
ATOM      8  C   LIG A   1      -0.655   0.100   1.813  0.00  0.00    -0.024 C 
ATOM      9  C   LIG A   1       1.975   1.313  -0.772  0.00  0.00    -0.073 C 
ATOM     10  C   LIG A   1       1.893   0.135  -1.696  0.00  0.00    +0.031 C 
ATOM     11  C   LIG A   1       1.903  -1.157  -0.890  0.00  0.00    +0.009 C 
ATOM     12  C   LIG A   1       2.977   2.205  -0.841  0.00  0.00    +0.008 C 
ENDROOT
BRANCH   1  14
ATOM     13  C   LIG A   1      -0.201  -3.452  -0.753  0.00  0.00    +0.007 C 
ATOM     14  C   LIG A   1      -0.507  -2.012  -0.303  0.00  0.00    -0.013 C 
ATOM     15  C   LIG A   1      -1.323  -1.324  -1.391  0.00  0.00    +0.007 C 
ENDBRANCH   1  14
TORSDOF 1
