REMARK  Name = NuBBE_2336
REMARK  6 active torsions:
REMARK  status: ('A' for Active; 'I' for Inactive)
REMARK    1  A    between atoms: O_1  and  C_2
REMARK    2  A    between atoms: C_2  and  C_3
REMARK    3  A    between atoms: C_6  and  C_8
REMARK    4  A    between atoms: C_8  and  C_9
REMARK    5  A    between atoms: C_8  and  C_10
REMARK    6  A    between atoms: C_17  and  C_18
REMARK                            x       y       z     vdW  Elec       q    Type
REMARK                         _______ _______ _______ _____ _____    ______ ____
ROOT
ATOM      1  C   LIG A   1      -1.669  -1.532   0.748  0.00  0.00    +0.067 C 
ATOM      2  C   LIG A   1      -1.723  -3.033   0.406  0.00  0.00    +0.041 C 
ATOM      3  C   LIG A   1      -0.789  -1.301   1.985  0.00  0.00    +0.035 C 
ATOM      4  C   LIG A   1       0.691  -1.507   1.689  0.00  0.00    +0.007 C 
ATOM      5  C   LIG A   1       1.204  -0.507   0.630  0.00  0.00    -0.001 C 
ATOM      6  C   LIG A   1       0.358  -0.737  -0.673  0.00  0.00    +0.021 C 
ATOM      7  C   LIG A   1      -1.191  -0.725  -0.491  0.00  0.00    +0.028 C 
ATOM      8  C   LIG A   1      -1.751   0.703  -0.600  0.00  0.00    +0.011 C 
ATOM      9  C   LIG A   1      -1.385   1.346  -1.943  0.00  0.00    +0.030 C 
ATOM     10  C   LIG A   1       0.003   1.028  -2.437  0.00  0.00    -0.076 C 
ATOM     11  C   LIG A   1       0.467   1.811  -3.632  0.00  0.00    +0.038 C 
ATOM     12  C   LIG A   1       0.785   0.106  -1.846  0.00  0.00    -0.024 C 
ENDROOT
BRANCH   5  13
ATOM     13  C   LIG A   1       1.329   0.954   1.199  0.00  0.00    -0.013 C 
ATOM     14  C   LIG A   1       2.118   1.903   0.285  0.00  0.00    +0.007 C 
ATOM     15  C   LIG A   1       2.018   0.991   2.577  0.00  0.00    +0.007 C 
ENDBRANCH   5  13
BRANCH   1  16
ATOM     16  O   LIG A   1      -3.017  -1.186   1.087  0.00  0.00    -0.389 OA
ATOM     17  H   LIG A   1      -3.013  -0.305   1.498  0.00  0.00    +0.210 HD
ENDBRANCH   1  16
TORSDOF 2
