REMARK  Name = NuBBE_1330
REMARK  11 active torsions:
REMARK  status: ('A' for Active; 'I' for Inactive)
REMARK    1  A    between atoms: C_4  and  C_5
REMARK    2  A    between atoms: C_8  and  O_9
REMARK    3  A    between atoms: C_12  and  O_13
REMARK    4  A    between atoms: C_19  and  C_20
REMARK    5  A    between atoms: C_19  and  C_21
REMARK    6  A    between atoms: C_24  and  C_25
REMARK    7  A    between atoms: C_25  and  C_26
REMARK    8  A    between atoms: C_27  and  C_28
REMARK    9  A    between atoms: C_27  and  C_29
REMARK   10  A    between atoms: C_30  and  O_31
REMARK   11  A    between atoms: O_31  and  C_32
REMARK                            x       y       z     vdW  Elec       q    Type
REMARK                         _______ _______ _______ _____ _____    ______ ____
ROOT
ATOM      1  O   LIG A   1      -4.955   0.720   0.320  0.00  0.00    -0.244 OA
ATOM      2  C   LIG A   1      -3.735   0.782   0.336  0.00  0.00    +0.349 A 
ATOM      3  O   LIG A   1      -2.966  -0.373   0.290  0.00  0.00    -0.421 OA
ATOM      4  C   LIG A   1      -2.993   2.065   0.409  0.00  0.00    +0.109 A 
ATOM      5  C   LIG A   1      -1.648   2.062   0.486  0.00  0.00    +0.146 A 
ATOM      6  C   LIG A   1      -0.839   0.807   0.456  0.00  0.00    +0.102 A 
ATOM      7  C   LIG A   1      -1.552  -0.388   0.333  0.00  0.00    +0.157 A 
ATOM      8  C   LIG A   1      -0.929  -1.643   0.267  0.00  0.00    +0.060 A 
ATOM      9  C   LIG A   1      -1.696  -2.884   0.205  0.00  0.00    +0.015 C 
ATOM     10  C   LIG A   1      -1.038  -4.045   0.256  0.00  0.00    +0.020 C 
ATOM     11  C   LIG A   1       0.463  -4.133   0.332  0.00  0.00    +0.123 C 
ATOM     12  C   LIG A   1       0.890  -4.693   1.695  0.00  0.00    +0.060 C 
ATOM     13  C   LIG A   1       0.968  -5.057  -0.783  0.00  0.00    +0.060 C 
ATOM     14  O   LIG A   1       1.150  -2.881   0.151  0.00  0.00    -0.481 OA
ATOM     15  C   LIG A   1       0.466  -1.695   0.269  0.00  0.00    +0.139 A 
ATOM     16  C   LIG A   1       1.255  -0.517   0.380  0.00  0.00    +0.041 A 
ATOM     17  C   LIG A   1       0.589   0.733   0.513  0.00  0.00    +0.141 A 
ENDROOT
BRANCH   4  18
ATOM     18  C   LIG A   1      -3.765   3.336   0.406  0.00  0.00    -0.007 A 
ATOM     19  C   LIG A   1      -4.199   3.919   1.607  0.00  0.00    +0.012 A 
ATOM     20  C   LIG A   1      -4.939   5.110   1.603  0.00  0.00    +0.046 A 
ATOM     21  C   LIG A   1      -5.256   5.718   0.393  0.00  0.00    +0.117 A 
ATOM     22  C   LIG A   1      -4.839   5.157  -0.808  0.00  0.00    +0.046 A 
ATOM     23  C   LIG A   1      -4.091   3.973  -0.803  0.00  0.00    +0.012 A 
BRANCH  21  24
ATOM     24  O   LIG A   1      -5.979   6.873   0.340  0.00  0.00    -0.507 OA
ATOM     25  H   LIG A   1      -6.200   7.146   1.245  0.00  0.00    +0.292 HD
ENDBRANCH  21  24
ENDBRANCH   4  18
BRANCH   5  26
ATOM     26  O   LIG A   1      -0.967   3.267   0.575  0.00  0.00    -0.505 OA
ATOM     27  H   LIG A   1      -0.039   3.067   0.797  0.00  0.00    +0.292 HD
ENDBRANCH   5  26
BRANCH  17  28
ATOM     28  O   LIG A   1       1.178   1.935   0.830  0.00  0.00    -0.494 OA
ATOM     29  C   LIG A   1       2.469   2.295   0.365  0.00  0.00    +0.277 C 
ENDBRANCH  17  28
BRANCH  16  30
ATOM     30  C   LIG A   1       2.766  -0.708   0.329  0.00  0.00    +0.069 C 
BRANCH  30  31
ATOM     31  C   LIG A   1       3.311  -0.640  -1.083  0.00  0.00    -0.023 C 
ATOM     32  C   LIG A   1       4.394  -1.271  -1.581  0.00  0.00    -0.079 C 
ATOM     33  C   LIG A   1       5.299  -2.172  -0.791  0.00  0.00    +0.038 C 
ATOM     34  C   LIG A   1       4.791  -1.104  -3.026  0.00  0.00    +0.038 C 
ENDBRANCH  30  31
ENDBRANCH  16  30
TORSDOF 6
