@<TRIPOS>MOLECULE
NuBBE_1476
 34 36 0 0 0
SMALL
GASTEIGER

@<TRIPOS>ATOM
      1 O          -3.3013    1.4340    0.0077 O.3     1  LIG1       -0.5059
      2 C          -1.9386    1.3563   -0.0368 C.ar    1  LIG1        0.1334
      3 C          -1.2087    2.5399    0.0627 C.ar    1  LIG1        0.0260
      4 C           0.1905    2.5304    0.0342 C.ar    1  LIG1        0.1670
      5 O           0.8961    3.7036    0.1208 O.3     1  LIG1       -0.4913
      6 C           0.3571    4.7205    0.9627 C.3     1  LIG1        0.0790
      7 C           0.8713    1.3087   -0.1574 C.ar    1  LIG1        0.1857
      8 C           0.1234    0.1003   -0.2579 C.ar    1  LIG1        0.1001
      9 C          -1.2845    0.1294   -0.1684 C.ar    1  LIG1        0.0907
     10 C          -2.0357   -1.1676   -0.2169 C.ar    1  LIG1        0.2008
     11 C          -1.2724   -2.4397   -0.2295 C.ar    1  LIG1        0.0493
     12 C          -1.9478   -3.6665   -0.1419 C.ar    1  LIG1       -0.0487
     13 C          -1.2263   -4.8592   -0.1310 C.ar    1  LIG1       -0.0575
     14 C           0.1664   -4.8267   -0.2068 C.ar    1  LIG1       -0.0181
     15 C           0.8276   -3.5974   -0.3010 C.ar    1  LIG1        0.1408
     16 O           2.1963   -3.5546   -0.3576 O.3     1  LIG1       -0.5047
     17 C           0.1204   -2.3883   -0.3286 C.ar    1  LIG1        0.0926
     18 N           0.7775   -1.1493   -0.3384 N.ar    1  LIG1       -0.3481
     19 O          -3.2552   -1.2277   -0.2395 O.2     1  LIG1       -0.2864
     20 O           2.2369    1.1332   -0.2513 O.3     1  LIG1       -0.4895
     21 C           3.0838    2.2700   -0.1206 C.3     1  LIG1        0.0791
     22 H          -3.5942    2.3575    0.0064 H       1  LIG1        0.2922
     23 H          -1.7484    3.4754    0.1494 H       1  LIG1        0.0692
     24 H           0.1513    4.3395    1.9689 H       1  LIG1        0.0660
     25 H          -0.5354    5.1737    0.5215 H       1  LIG1        0.0660
     26 H           1.1076    5.5125    1.0488 H       1  LIG1        0.0660
     27 H          -3.0339   -3.6888   -0.0727 H       1  LIG1        0.0625
     28 H          -1.7516   -5.8089   -0.0573 H       1  LIG1        0.0619
     29 H           0.7154   -5.7636   -0.1881 H       1  LIG1        0.0655
     30 H           2.5372   -4.4504   -0.1980 H       1  LIG1        0.2922
     31 H           1.7560   -1.1503   -0.6111 H       1  LIG1        0.1661
     32 H           2.9938    2.7195    0.8744 H       1  LIG1        0.0660
     33 H           2.9049    2.9977   -0.9195 H       1  LIG1        0.0660
     34 H           4.1208    1.9369   -0.2271 H       1  LIG1        0.0660
@<TRIPOS>BOND
     1     1     2    1
     2     2     3   ar
     3     3     4   ar
     4     4     5    1
     5     5     6    1
     6     4     7   ar
     7     7     8   ar
     8     8     9   ar
     9     2     9   ar
    10     9    10   ar
    11    10    11   ar
    12    11    12   ar
    13    12    13   ar
    14    13    14   ar
    15    14    15   ar
    16    15    16    1
    17    15    17   ar
    18    11    17   ar
    19    17    18   ar
    20     8    18   ar
    21    10    19    2
    22     7    20    1
    23    20    21    1
    24     1    22    1
    25     3    23    1
    26     6    24    1
    27     6    25    1
    28     6    26    1
    29    12    27    1
    30    13    28    1
    31    14    29    1
    32    16    30    1
    33    18    31    1
    34    21    32    1
    35    21    33    1
    36    21    34    1
