@<TRIPOS>MOLECULE
NuBBE_450
 39 40 0 0 0
SMALL
GASTEIGER

@<TRIPOS>ATOM
      1 H          -1.3669   -0.3950    1.8177 H       1  LIG1        0.0381
      2 C          -0.3975    0.0497    1.5489 C.3     1  LIG1        0.0426
      3 C           0.5642   -0.0596    2.7421 C.3     1  LIG1       -0.0337
      4 H           1.4974    0.4843    2.5471 H       1  LIG1        0.0303
      5 C          -0.0183    0.4341    4.0563 C.3     1  LIG1       -0.0619
      6 C           0.8591   -1.5553    2.7606 C.3     1  LIG1       -0.0494
      7 C           0.9866   -1.9374    1.2854 C.3     1  LIG1       -0.0455
      8 C           0.2565   -0.8452    0.4723 C.3     1  LIG1       -0.0037
      9 H          -0.5306   -1.3011   -0.1414 H       1  LIG1        0.0353
     10 C           1.1680   -0.0517   -0.4461 C.2     1  LIG1        0.0053
     11 C           1.9163   -0.7725   -1.5376 C.3     1  LIG1        0.1169
     12 O           0.9731   -1.4324   -2.3955 O.3     1  LIG1       -0.4603
     13 C           1.0090   -1.0597   -3.7035 C.2     1  LIG1        0.3043
     14 C           0.0296   -1.8501   -4.5097 C.3     1  LIG1        0.0332
     15 O           1.7614   -0.2328   -4.1898 O.2     1  LIG1       -0.2512
     16 C           1.2924    1.2794   -0.3100 C.2     1  LIG1        0.0917
     17 O           0.5852    2.0651    0.5604 O.2     1  LIG1       -0.4607
     18 C          -0.6332    1.4653    1.0230 C.3     1  LIG1        0.2489
     19 H          -1.0288    2.0864    1.8350 H       1  LIG1        0.1209
     20 O          -1.6039    1.3730   -0.0384 O.3     1  LIG1       -0.4247
     21 C          -2.2862    2.5103   -0.3062 C.2     1  LIG1        0.3068
     22 C          -3.1285    2.3255   -1.5314 C.3     1  LIG1        0.0333
     23 O          -2.2235    3.5568    0.3260 O.2     1  LIG1       -0.2511
     24 H          -0.9912   -0.0241    4.2620 H       1  LIG1        0.0233
     25 H          -0.1516    1.5202    4.0384 H       1  LIG1        0.0233
     26 H           0.6514    0.1923    4.8885 H       1  LIG1        0.0233
     27 H           0.0306   -2.1119    3.2168 H       1  LIG1        0.0268
     28 H           1.7667   -1.7933    3.3247 H       1  LIG1        0.0268
     29 H           0.5283   -2.9186    1.1172 H       1  LIG1        0.0271
     30 H           2.0446   -2.0244    1.0187 H       1  LIG1        0.0271
     31 H           2.5619   -0.0762   -2.0841 H       1  LIG1        0.0746
     32 H           2.5759   -1.5372   -1.1176 H       1  LIG1        0.0746
     33 H          -0.8924   -2.0123   -3.9472 H       1  LIG1        0.0342
     34 H           0.4787   -2.8049   -4.7924 H       1  LIG1        0.0342
     35 H          -0.2234   -1.2841   -5.4119 H       1  LIG1        0.0342
     36 H           1.9706    1.8932   -0.8923 H       1  LIG1        0.1025
     37 H          -3.5172    1.3037   -1.5752 H       1  LIG1        0.0342
     38 H          -2.5303    2.5357   -2.4212 H       1  LIG1        0.0342
     39 H          -3.9840    3.0048   -1.4893 H       1  LIG1        0.0342
@<TRIPOS>BOND
     1     2     3    1
     2     3     6    1
     3     6     7    1
     4     7     8    1
     5     2     8    1
     6     8    10    1
     7    11    12    1
     8    12    13    1
     9    13    14    1
    10    13    15    2
    11    10    16    2
    12    16    17    1
    13    17    18    1
    14     2    18    1
    15    20    21    1
    16    21    22    1
    17    21    23    2
    18     1     2    1
    19     3     4    1
    20     3     5    1
    21     8     9    1
    22    10    11    1
    23    18    19    1
    24    18    20    1
    25     5    24    1
    26     5    25    1
    27     5    26    1
    28     6    27    1
    29     6    28    1
    30     7    29    1
    31     7    30    1
    32    11    31    1
    33    11    32    1
    34    14    33    1
    35    14    34    1
    36    14    35    1
    37    16    36    1
    38    22    37    1
    39    22    38    1
    40    22    39    1
