@<TRIPOS>MOLECULE
NuBBE_1483
 48 52 0 0 0
SMALL
GASTEIGER

@<TRIPOS>ATOM
      1 C          -1.0138    1.6212    3.5520 C.3     1  LIG1       -0.0215
      2 C           0.3770    1.5883    2.9084 C.3     1  LIG1        0.1235
      3 O           0.5918    0.2696    2.3782 O.3     1  LIG1       -0.4808
      4 C           1.4482    1.7772    3.9894 C.3     1  LIG1       -0.0215
      5 C           0.5058    2.6836    1.8820 C.2     1  LIG1       -0.0408
      6 C           0.4479    2.4470    0.5683 C.2     1  LIG1       -0.0493
      7 C           0.2169    1.0739    0.1112 C.ar    1  LIG1        0.0414
      8 C           0.3114    0.0297    1.0529 C.ar    1  LIG1        0.1420
      9 C           0.1862   -1.3273    0.6745 C.ar    1  LIG1        0.0666
     10 C           0.2975   -2.4095    1.6762 C.ar    1  LIG1       -0.0108
     11 C           1.3681   -3.3178    1.6436 C.ar    1  LIG1       -0.0538
     12 C           1.4775   -4.3352    2.5951 C.ar    1  LIG1       -0.0612
     13 C           0.5169   -4.4602    3.5960 C.ar    1  LIG1       -0.0617
     14 C          -0.5536   -3.5706    3.6452 C.ar    1  LIG1       -0.0612
     15 C          -0.6623   -2.5543    2.6923 C.ar    1  LIG1       -0.0538
     16 C          -0.0466   -1.6114   -0.6838 C.ar    1  LIG1        0.1409
     17 O          -0.1706   -2.9317   -1.0540 O.3     1  LIG1       -0.5053
     18 C          -0.1625   -0.5779   -1.6293 C.ar    1  LIG1        0.0883
     19 C          -0.0600    0.7716   -1.2397 C.ar    1  LIG1        0.0650
     20 N          -0.1313    1.7932   -2.2233 N.ar    1  LIG1       -0.3505
     21 H          -0.5704    2.6447   -1.8794 H       1  LIG1        0.1660
     22 C          -0.4554    1.5287   -3.5696 C.ar    1  LIG1        0.0926
     23 C          -0.5498    2.5658   -4.5043 C.ar    1  LIG1        0.1408
     24 O          -0.2952    3.8589   -4.1375 O.3     1  LIG1       -0.5047
     25 C          -0.8698    2.3189   -5.8361 C.ar    1  LIG1       -0.0181
     26 C          -1.0482    1.0051   -6.2686 C.ar    1  LIG1       -0.0575
     27 C          -0.8966   -0.0510   -5.3685 C.ar    1  LIG1       -0.0487
     28 C          -0.5916    0.2162   -4.0278 C.ar    1  LIG1        0.0493
     29 C          -0.4300   -0.8874   -3.0588 C.ar    1  LIG1        0.2007
     30 O          -0.5251   -2.0568   -3.4255 O.2     1  LIG1       -0.2864
     31 H          -1.1163    0.8243    4.2978 H       1  LIG1        0.0271
     32 H          -1.7985    1.4462    2.8064 H       1  LIG1        0.0271
     33 H          -1.2147    2.5807    4.0409 H       1  LIG1        0.0271
     34 H           1.3900    0.9797    4.7397 H       1  LIG1        0.0271
     35 H           1.3486    2.7398    4.5031 H       1  LIG1        0.0271
     36 H           2.4547    1.7198    3.5573 H       1  LIG1        0.0271
     37 H           0.6473    3.7006    2.2379 H       1  LIG1        0.0611
     38 H           0.5702    3.2540   -0.1422 H       1  LIG1        0.0623
     39 H           2.1232   -3.2371    0.8648 H       1  LIG1        0.0624
     40 H           2.3113   -5.0302    2.5496 H       1  LIG1        0.0618
     41 H           0.6009   -5.2527    4.3345 H       1  LIG1        0.0618
     42 H          -1.3063   -3.6668    4.4226 H       1  LIG1        0.0618
     43 H          -1.5047   -1.8687    2.7438 H       1  LIG1        0.0624
     44 H          -0.3346   -2.9740   -2.0228 H       1  LIG1        0.2922
     45 H           0.3767    3.8127   -3.4339 H       1  LIG1        0.2922
     46 H          -0.9553    3.1437   -6.5384 H       1  LIG1        0.0655
     47 H          -1.2876    0.8025   -7.3099 H       1  LIG1        0.0619
     48 H          -1.0174   -1.0767   -5.7108 H       1  LIG1        0.0625
@<TRIPOS>BOND
     1     1     2    1
     2     2     3    1
     3     2     4    1
     4     2     5    1
     5     5     6    2
     6     6     7    1
     7     7     8   ar
     8     3     8    1
     9     8     9   ar
    10     9    10    1
    11    10    11   ar
    12    11    12   ar
    13    12    13   ar
    14    13    14   ar
    15    14    15   ar
    16    10    15   ar
    17     9    16   ar
    18    16    17    1
    19    16    18   ar
    20    18    19   ar
    21     7    19   ar
    22    19    20   ar
    23    20    21    1
    24    20    22   ar
    25    22    23   ar
    26    23    24    1
    27    23    25   ar
    28    25    26   ar
    29    26    27   ar
    30    27    28   ar
    31    22    28   ar
    32    28    29   ar
    33    18    29   ar
    34    29    30    2
    35     1    31    1
    36     1    32    1
    37     1    33    1
    38     4    34    1
    39     4    35    1
    40     4    36    1
    41     5    37    1
    42     6    38    1
    43    11    39    1
    44    12    40    1
    45    13    41    1
    46    14    42    1
    47    15    43    1
    48    17    44    1
    49    24    45    1
    50    25    46    1
    51    26    47    1
    52    27    48    1
