REMARK  Name = NuBBE_858
REMARK  6 active torsions:
REMARK  status: ('A' for Active; 'I' for Inactive)
REMARK    1  A    between atoms: C_1  and  C_2
REMARK    2  A    between atoms: C_2  and  C_3
REMARK    3  A    between atoms: C_3  and  S_4
REMARK    4  A    between atoms: S_4  and  C_5
REMARK    5  A    between atoms: C_13  and  O_14
REMARK    6  A    between atoms: O_14  and  C_15
REMARK                            x       y       z     vdW  Elec       q    Type
REMARK                         _______ _______ _______ _____ _____    ______ ____
ROOT
ATOM      1  C   LIG A   1      -1.216   1.481   0.379  0.00  0.00    +0.041 A 
ATOM      2  C   LIG A   1      -2.001   0.454  -0.168  0.00  0.00    +0.019 A 
ATOM      3  C   LIG A   1      -1.732  -0.896   0.086  0.00  0.00    +0.029 A 
ATOM      4  C   LIG A   1      -0.655  -1.167   0.924  0.00  0.00    +0.068 A 
ATOM      5  C   LIG A   1       0.127  -0.185   1.523  0.00  0.00    +0.092 A 
ATOM      6  N   LIG A   1       1.087  -0.756   2.334  0.00  0.00    -0.214 NA
ATOM      7  C   LIG A   1       0.985  -2.052   2.119  0.00  0.00    +0.203 A 
ATOM      8  N   LIG A   1       1.863  -2.987   2.582  0.00  0.00    -0.221 N 
ATOM      9  C   LIG A   1       2.260  -4.002   1.728  0.00  0.00    +0.406 C 
ATOM     10  O   LIG A   1       1.724  -4.340   0.695  0.00  0.00    -0.226 OA
ATOM     11  N   LIG A   1      -0.101  -2.343   1.347  0.00  0.00    -0.326 N 
ATOM     12  C   LIG A   1      -0.145   1.166   1.240  0.00  0.00    +0.047 A 
ATOM     13  H   LIG A   1       2.485  -2.748   3.319  0.00  0.00    +0.161 HD
ATOM     14  H   LIG A   1      -0.404  -3.279   1.108  0.00  0.00    +0.169 HD
ENDROOT
BRANCH   1  15
ATOM     15  S   LIG A   1      -1.664   3.215   0.052  0.00  0.00    +0.054 S 
ATOM     16  O   LIG A   1      -0.556   4.042   0.635  0.00  0.00    -0.252 OA
BRANCH  15  17
ATOM     17  C   LIG A   1      -1.472   3.226  -1.769  0.00  0.00    +0.108 C 
BRANCH  17  19
ATOM     18  C   LIG A   1      -1.675   4.641  -3.869  0.00  0.00    +0.005 C 
ATOM     19  C   LIG A   1      -1.782   4.607  -2.348  0.00  0.00    +0.010 C 
ENDBRANCH  17  19
ENDBRANCH  15  17
ENDBRANCH   1  15
BRANCH   9  20
ATOM     20  O   LIG A   1       3.390  -4.564   2.267  0.00  0.00    -0.453 OA
ATOM     21  C   LIG A   1       3.814  -5.785   1.657  0.00  0.00    +0.282 C 
ENDBRANCH   9  20
TORSDOF 4
