@<TRIPOS>MOLECULE
NuBBE_338
 99 104 0 0 0
SMALL
GASTEIGER

@<TRIPOS>ATOM
      1 H          -1.2696    4.3578    0.4873 H       1  LIG1        0.0400
      2 C          -1.2889    3.4191    1.0401 C.3     1  LIG1        0.0235
      3 C           0.0219    2.7219    0.9021 C.2     1  LIG1       -0.0768
      4 C          -0.1270    1.4045    0.7197 C.2     1  LIG1       -0.0524
      5 C          -1.5751    1.0028    0.7943 C.3     1  LIG1        0.1273
      6 O          -1.8289    0.0734   -0.2628 O.3     1  LIG1       -0.3806
      7 C          -1.9229    0.3738    2.1583 C.3     1  LIG1        0.1255
      8 O          -1.2413   -0.8880    2.3563 O.3     1  LIG1       -0.4581
      9 C           0.0705   -0.9408    2.7526 C.2     1  LIG1        0.3385
     10 C           0.5971   -2.3309    2.5028 C.2     1  LIG1        0.0744
     11 C          -0.2910   -3.2192    2.0237 C.2     1  LIG1        0.0981
     12 O          -0.0306   -4.3992    1.4012 O.2     1  LIG1       -0.4701
     13 C           1.3058   -4.6156    0.9786 C.3     1  LIG1        0.2094
     14 H           1.4308   -5.7010    1.0625 H       1  LIG1        0.1060
     15 O           1.5002   -4.3920   -0.4601 O.3     1  LIG1       -0.3095
     16 C           1.1778   -3.1649   -1.1503 C.3     1  LIG1        0.1918
     17 H           0.1059   -2.9586   -1.0363 H       1  LIG1        0.0939
     18 C           2.0158   -1.9382   -0.7182 C.3     1  LIG1        0.1342
     19 H           1.6724   -1.7121    0.2574 H       1  LIG1        0.0671
     20 O           1.6402   -0.7124   -1.3928 O.3     1  LIG1       -0.3841
     21 O           1.3762   -3.3692   -2.5870 O.3     1  LIG1       -0.3404
     22 C           2.6308   -2.8438   -3.0999 C.3     1  LIG1        0.1130
     23 H           2.5393   -1.7607   -3.2507 H       1  LIG1        0.0647
     24 C           2.9091   -3.4049   -4.4840 C.3     1  LIG1        0.0730
     25 O           2.9716   -4.8244   -4.4358 O.3     1  LIG1       -0.3924
     26 C           3.7456   -3.1398   -2.1049 C.3     1  LIG1        0.1119
     27 H           3.6730   -4.1770   -1.7462 H       1  LIG1        0.0647
     28 O           5.0581   -2.9590   -2.6346 O.3     1  LIG1       -0.3865
     29 C           3.5458   -2.1677   -0.9380 C.3     1  LIG1        0.1141
     30 H           4.0138   -1.2043   -1.1753 H       1  LIG1        0.0648
     31 O           4.3456   -2.6870    0.1241 O.3     1  LIG1       -0.3864
     32 C           2.4133   -3.9749    1.8424 C.3     1  LIG1        0.0572
     33 H           3.2092   -3.9781    1.1104 H       1  LIG1        0.0395
     34 C           2.0890   -2.5664    2.3898 C.3     1  LIG1        0.0050
     35 H           2.4220   -1.8107    1.7021 H       1  LIG1        0.0358
     36 C           3.1332   -2.2561    3.4760 C.3     1  LIG1       -0.0427
     37 C           4.0609   -3.4675    3.4789 C.3     1  LIG1       -0.0232
     38 C           3.1520   -4.6326    3.0313 C.3     1  LIG1        0.0724
     39 O           3.9471   -5.7335    2.6076 O.3     1  LIG1       -0.3883
     40 C           2.3209   -5.0831    4.2196 C.3     1  LIG1       -0.0356
     41 O           0.7661   -0.0283    3.0884 O.2     1  LIG1       -0.2452
     42 C          -2.2217    2.3541    0.4219 C.3     1  LIG1        0.0677
     43 H          -2.1705    2.3535   -0.6584 H       1  LIG1        0.0403
     44 C          -3.6619    2.7175    0.7184 C.3     1  LIG1        0.2101
     45 H          -4.3541    1.9829    0.2854 H       1  LIG1        0.1060
     46 O          -3.9931    4.0310    0.2048 O.3     1  LIG1       -0.3094
     47 C          -4.0454    4.2717   -1.2201 C.3     1  LIG1        0.1918
     48 H          -4.4758    5.2825   -1.2746 H       1  LIG1        0.0939
     49 C          -2.6422    4.3439   -1.9143 C.3     1  LIG1        0.1342
     50 H          -1.8756    4.1692   -1.1910 H       1  LIG1        0.0671
     51 O          -2.3091    5.6916   -2.3130 O.3     1  LIG1       -0.3841
     52 O          -5.0092    3.4265   -1.8412 O.3     1  LIG1       -0.3404
     53 C          -4.8705    3.3686   -3.2653 C.3     1  LIG1        0.1130
     54 H          -4.8263    4.3743   -3.7078 H       1  LIG1        0.0647
     55 C          -6.0981    2.6477   -3.8266 C.3     1  LIG1        0.0730
     56 O          -5.9977    2.5157   -5.2423 O.3     1  LIG1       -0.3924
     57 C          -3.5843    2.5947   -3.5580 C.3     1  LIG1        0.1119
     58 H          -3.6202    1.6350   -3.0245 H       1  LIG1        0.0647
     59 O          -3.3483    2.2861   -4.9337 O.3     1  LIG1       -0.3865
     60 C          -2.3745    3.3939   -3.0893 C.3     1  LIG1        0.1141
     61 H          -1.9493    3.9671   -3.9224 H       1  LIG1        0.0648
     62 O          -1.3244    2.4583   -2.7441 O.3     1  LIG1       -0.3864
     63 O          -3.8667    2.7250    2.1577 O.2     1  LIG1       -0.4701
     64 C          -2.9275    3.3863    2.8879 C.2     1  LIG1        0.0984
     65 C          -1.6418    3.6883    2.4287 C.2     1  LIG1        0.0781
     66 C          -0.7268    4.5531    3.1632 C.2     1  LIG1        0.3384
     67 O           0.1621    5.1619    2.3746 O.3     1  LIG1       -0.4646
     68 C           1.5006    5.3538    2.8565 C.3     1  LIG1        0.0820
     69 O          -0.7078    4.6057    4.4067 O.2     1  LIG1       -0.2452
     70 H           0.9799    3.2213    0.9286 H       1  LIG1        0.0576
     71 H           0.6928    0.7176    0.6016 H       1  LIG1        0.0599
     72 H          -1.3167    0.3715   -1.0406 H       1  LIG1        0.2108
     73 H          -1.7250    1.0166    3.0175 H       1  LIG1        0.0730
     74 H          -2.9907    0.1202    2.1611 H       1  LIG1        0.0730
     75 H          -1.3660   -3.0629    1.9615 H       1  LIG1        0.1029
     76 H           2.1996   -0.0012   -1.0158 H       1  LIG1        0.2101
     77 H           3.8529   -3.0136   -4.8803 H       1  LIG1        0.0584
     78 H           2.1063   -3.1169   -5.1689 H       1  LIG1        0.0584
     79 H           2.1876   -5.0923   -3.9163 H       1  LIG1        0.2095
     80 H           5.4916   -3.8331   -2.5583 H       1  LIG1        0.2100
     81 H           4.1926   -2.1754    0.9671 H       1  LIG1        0.2100
     82 H           2.7012   -2.0308    4.4525 H       1  LIG1        0.0272
     83 H           3.7282   -1.3778    3.1744 H       1  LIG1        0.0272
     84 H           4.5409   -3.6150    4.4502 H       1  LIG1        0.0293
     85 H           4.8856   -3.3243    2.7627 H       1  LIG1        0.0293
     86 H           4.7775   -5.4023    2.2191 H       1  LIG1        0.2102
     87 H           1.7180   -4.2741    4.6408 H       1  LIG1        0.0257
     88 H           2.9927   -5.4366    5.0146 H       1  LIG1        0.0257
     89 H           1.6727   -5.9194    3.9563 H       1  LIG1        0.0257
     90 H          -1.3268    5.7045   -2.3656 H       1  LIG1        0.2101
     91 H          -7.0089    3.2043   -3.5814 H       1  LIG1        0.0584
     92 H          -6.1901    1.6494   -3.3854 H       1  LIG1        0.0584
     93 H          -6.8555    2.1657   -5.5480 H       1  LIG1        0.2095
     94 H          -4.2196    2.2655   -5.3848 H       1  LIG1        0.2100
     95 H          -1.3200    1.7876   -3.4562 H       1  LIG1        0.2100
     96 H          -3.2542    3.5508    3.9088 H       1  LIG1        0.1029
     97 H           1.8277    4.5517    3.5322 H       1  LIG1        0.0661
     98 H           1.5344    6.3335    3.3405 H       1  LIG1        0.0661
     99 H           2.1656    5.3641    2.0024 H       1  LIG1        0.0661
@<TRIPOS>BOND
     1     2     3    1
     2     3     4    2
     3     4     5    1
     4     7     8    1
     5     8     9    1
     6    10    11    2
     7    11    12    1
     8    12    13    1
     9    16    18    1
    10    16    21    1
    11    21    22    1
    12    22    23    1
    13    22    24    1
    14    24    25    1
    15    22    26    1
    16    26    29    1
    17    29    30    1
    18    18    29    1
    19    29    31    1
    20    13    32    1
    21    32    34    1
    22    10    34    1
    23    34    36    1
    24    36    37    1
    25    37    38    1
    26    32    38    1
    27     9    41    2
    28     2    42    1
    29     5    42    1
    30    42    44    1
    31    47    49    1
    32    47    52    1
    33    52    53    1
    34    53    54    1
    35    53    55    1
    36    55    56    1
    37    53    57    1
    38    57    60    1
    39    60    61    1
    40    49    60    1
    41    60    62    1
    42    44    63    1
    43    63    64    1
    44    64    65    2
    45     2    65    1
    46    66    67    1
    47    67    68    1
    48    66    69    2
    49     1     2    1
    50    42    43    1
    51    65    66    1
    52     9    10    1
    53    13    14    1
    54    13    15    1
    55    32    33    1
    56    34    35    1
    57    38    39    1
    58    38    40    1
    59    16    17    1
    60    16    15    1
    61     5     7    1
    62     5     6    1
    63    18    20    1
    64    18    19    1
    65    26    28    1
    66    26    27    1
    67    44    46    1
    68    44    45    1
    69    47    48    1
    70    47    46    1
    71    49    51    1
    72    49    50    1
    73    57    59    1
    74    57    58    1
    75     3    70    1
    76     4    71    1
    77     6    72    1
    78     7    73    1
    79     7    74    1
    80    11    75    1
    81    20    76    1
    82    24    77    1
    83    24    78    1
    84    25    79    1
    85    28    80    1
    86    31    81    1
    87    36    82    1
    88    36    83    1
    89    37    84    1
    90    37    85    1
    91    39    86    1
    92    40    87    1
    93    40    88    1
    94    40    89    1
    95    51    90    1
    96    55    91    1
    97    55    92    1
    98    56    93    1
    99    59    94    1
   100    62    95    1
   101    64    96    1
   102    68    97    1
   103    68    98    1
   104    68    99    1
