REMARK  Name = NuBBE_89
REMARK  17 active torsions:
REMARK  status: ('A' for Active; 'I' for Inactive)
REMARK    1  A    between atoms: C_4  and  C_43
REMARK    2  A    between atoms: C_9  and  C_10
REMARK    3  A    between atoms: C_11  and  C_12
REMARK    4  A    between atoms: C_12  and  C_14
REMARK    5  A    between atoms: C_12  and  C_15
REMARK    6  A    between atoms: C_15  and  C_16
REMARK    7  A    between atoms: C_21  and  C_22
REMARK    8  A    between atoms: C_22  and  C_23
REMARK    9  A    between atoms: C_23  and  C_25
REMARK   10  A    between atoms: C_23  and  C_26
REMARK   11  A    between atoms: C_26  and  O_28
REMARK   12  A    between atoms: C_26  and  C_41
REMARK   13  A    between atoms: O_28  and  C_29
REMARK   14  A    between atoms: C_29  and  C_30
REMARK   15  A    between atoms: C_30  and  O_31
REMARK   16  A    between atoms: C_30  and  C_34
REMARK   17  A    between atoms: O_31  and  C_32
REMARK                            x       y       z     vdW  Elec       q    Type
REMARK                         _______ _______ _______ _____ _____    ______ ____
ROOT
ATOM      1  O   LIG A   1       2.486  -3.109   2.140  0.00  0.00    -0.245 OA
ATOM      2  C   LIG A   1       2.495  -2.076   1.546  0.00  0.00    +0.344 C 
ATOM      3  O   LIG A   1       3.626  -1.469   1.137  0.00  0.00    -0.442 OA
ATOM      4  C   LIG A   1       3.329  -0.116   0.834  0.00  0.00    +0.200 C 
ATOM      5  C   LIG A   1       1.853  -0.069   0.800  0.00  0.00    +0.031 C 
ATOM      6  C   LIG A   1       1.343   1.281   0.720  0.00  0.00    +0.027 C 
ATOM      7  C   LIG A   1       0.562   1.809  -0.242  0.00  0.00    +0.204 C 
ATOM      8  O   LIG A   1       0.087   3.123  -0.206  0.00  0.00    -0.463 OA
ATOM      9  C   LIG A   1       0.205   3.828   1.004  0.00  0.00    +0.128 C 
ATOM     10  C   LIG A   1       1.037   3.412   1.974  0.00  0.00    +0.056 C 
ATOM     11  C   LIG A   1       1.837   2.231   1.730  0.00  0.00    +0.011 C 
ATOM     12  C   LIG A   1       2.992   1.972   2.378  0.00  0.00    +0.096 C 
ATOM     13 CL   LIG A   1       3.614   2.958   3.659  0.00  0.00    -0.079 Cl
ATOM     14  C   LIG A   1       1.324  -1.235   1.197  0.00  0.00    +0.110 C 
ATOM     15  C   LIG A   1       3.942   0.189  -0.524  0.00  0.00    +0.070 C 
ATOM     16  C   LIG A   1       3.836   0.786   1.985  0.00  0.00    +0.222 C 
ATOM     17  O   LIG A   1       4.887   0.537   2.579  0.00  0.00    -0.286 OA
ENDROOT
BRANCH   9  18
ATOM     18  C   LIG A   1      -0.592   5.036   1.090  0.00  0.00    +0.042 C 
ATOM     19  C   LIG A   1      -0.714   5.815   2.182  0.00  0.00    -0.020 C 
BRANCH  19  20
ATOM     20  C   LIG A   1      -1.474   7.117   2.203  0.00  0.00    +0.008 C 
ATOM     21  C   LIG A   1      -2.927   6.866   2.608  0.00  0.00    +0.012 C 
BRANCH  20  22
ATOM     22  C   LIG A   1      -0.835   8.153   3.154  0.00  0.00    +0.004 C 
ATOM     23  C   LIG A   1       0.603   8.521   2.805  0.00  0.00    +0.004 C 
ENDBRANCH  20  22
ENDBRANCH  19  20
ENDBRANCH   9  18
BRANCH  14  24
ATOM     24  C   LIG A   1      -0.089  -1.576   1.510  0.00  0.00    +0.177 C 
ATOM     25  O   LIG A   1      -0.869  -0.671   1.807  0.00  0.00    -0.291 OA
BRANCH  24  26
ATOM     26  C   LIG A   1      -0.547  -3.044   1.552  0.00  0.00    +0.098 C 
ATOM     27  C   LIG A   1      -0.352  -3.582   2.983  0.00  0.00    +0.020 C 
BRANCH  26  28
ATOM     28  C   LIG A   1       0.096  -3.978   0.499  0.00  0.00    +0.184 C 
ATOM     29  C   LIG A   1      -0.315  -5.445   0.653  0.00  0.00    +0.052 C 
BRANCH  28  30
ATOM     30  O   LIG A   1       0.019  -3.549  -0.883  0.00  0.00    -0.459 OA
BRANCH  30  31
ATOM     31  C   LIG A   1      -1.179  -3.644  -1.535  0.00  0.00    +0.341 C 
ATOM     32  O   LIG A   1      -2.220  -3.182  -1.092  0.00  0.00    -0.247 OA
BRANCH  31  33
ATOM     33  C   LIG A   1      -1.016  -4.518  -2.792  0.00  0.00    +0.256 C 
BRANCH  33  34
ATOM     34  C   LIG A   1      -1.359  -3.815  -4.095  0.00  0.00    -0.008 A 
ATOM     35  C   LIG A   1      -0.379  -3.111  -4.817  0.00  0.00    +0.007 A 
ATOM     36  C   LIG A   1      -0.657  -2.619  -6.097  0.00  0.00    +0.000 A 
ATOM     37  C   LIG A   1      -1.907  -2.838  -6.675  0.00  0.00    +0.000 A 
ATOM     38  C   LIG A   1      -2.902  -3.483  -5.947  0.00  0.00    +0.000 A 
ATOM     39  C   LIG A   1      -2.640  -3.933  -4.653  0.00  0.00    +0.007 A 
ENDBRANCH  33  34
BRANCH  33  40
ATOM     40  O   LIG A   1      -1.841  -5.680  -2.567  0.00  0.00    -0.364 OA
ATOM     41  C   LIG A   1      -1.475  -6.819  -3.334  0.00  0.00    +0.195 C 
ENDBRANCH  33  40
ENDBRANCH  31  33
ENDBRANCH  30  31
ENDBRANCH  28  30
ENDBRANCH  26  28
ENDBRANCH  24  26
ENDBRANCH  14  24
TORSDOF 11
