REMARK  Name = NuBBE_1118
REMARK  6 active torsions:
REMARK  status: ('A' for Active; 'I' for Inactive)
REMARK    1  A    between atoms: C_1  and  O_2
REMARK    2  A    between atoms: O_2  and  C_3
REMARK    3  A    between atoms: C_7  and  C_8
REMARK    4  A    between atoms: C_8  and  C_9
REMARK    5  A    between atoms: C_8  and  O_10
REMARK    6  A    between atoms: C_8  and  C_11
REMARK                            x       y       z     vdW  Elec       q    Type
REMARK                         _______ _______ _______ _____ _____    ______ ____
ROOT
ATOM      1  C   LIG A   1      -1.211  -0.534   1.162  0.00  0.00    +0.142 A 
ATOM      2  C   LIG A   1      -0.342   0.063   0.225  0.00  0.00    +0.082 A 
ATOM      3  C   LIG A   1       0.299  -0.799  -0.660  0.00  0.00    +0.232 A 
ATOM      4  O   LIG A   1       1.117  -0.100  -1.495  0.00  0.00    -0.439 OA
ATOM      5  C   LIG A   1       0.993   1.222  -1.181  0.00  0.00    +0.139 A 
ATOM      6  C   LIG A   1       0.106   1.366  -0.132  0.00  0.00    +0.061 A 
ATOM      7  N   LIG A   1       0.179  -2.131  -0.740  0.00  0.00    -0.212 NA
ATOM      8  C   LIG A   1      -0.667  -2.674   0.137  0.00  0.00    +0.078 A 
ATOM      9  C   LIG A   1      -1.387  -1.942   1.110  0.00  0.00    +0.043 A 
ATOM     10  C   LIG A   1      -2.244  -2.638   1.993  0.00  0.00    +0.013 A 
ATOM     11  C   LIG A   1      -2.394  -4.022   1.917  0.00  0.00    +0.001 A 
ATOM     12  C   LIG A   1      -1.695  -4.730   0.953  0.00  0.00    +0.002 A 
ATOM     13  C   LIG A   1      -0.843  -4.051   0.078  0.00  0.00    +0.028 A 
ENDROOT
BRANCH   5  14
ATOM     14  C   LIG A   1       1.825   2.178  -1.983  0.00  0.00    +0.118 C 
ATOM     15  C   LIG A   1       3.190   2.385  -1.330  0.00  0.00    +0.049 C 
ATOM     16  C   LIG A   1       1.118   3.515  -2.197  0.00  0.00    +0.049 C 
BRANCH  14  17
ATOM     17  O   LIG A   1       2.029   1.599  -3.275  0.00  0.00    -0.381 OA
ATOM     18  H   LIG A   1       2.084   0.633  -3.141  0.00  0.00    +0.211 HD
ENDBRANCH  14  17
ENDBRANCH   5  14
BRANCH   1  20
ATOM     19  C   LIG A   1      -1.457   1.353   2.605  0.00  0.00    +0.277 C 
ATOM     20  O   LIG A   1      -1.990   0.140   2.095  0.00  0.00    -0.494 OA
ENDBRANCH   1  20
TORSDOF 3
