@<TRIPOS>MOLECULE
NuBBE_1852
 45 48 0 0 0
SMALL
GASTEIGER

@<TRIPOS>ATOM
      1 C          -4.7918    1.8810    2.1543 C.2     1  LIG1       -0.1023
      2 C          -3.8460    1.0112    1.7843 C.2     1  LIG1       -0.0866
      3 C          -2.8919    1.2330    0.6403 C.3     1  LIG1       -0.0027
      4 C          -1.4472    1.2139    1.0618 C.ar    1  LIG1        0.0433
      5 C          -0.7019    0.0441    1.0512 C.ar    1  LIG1        0.1321
      6 C           0.6447    0.0074    1.4026 C.ar    1  LIG1        0.0049
      7 C           1.1231   -1.4023    1.3332 C.3     1  LIG1        0.0261
      8 H           1.0264   -1.8126    2.3483 H       1  LIG1        0.0387
      9 C           2.5543   -1.6090    0.8658 C.3     1  LIG1       -0.0546
     10 C          -0.0029   -2.0059    0.4568 C.3     1  LIG1        0.1319
     11 H          -0.2600   -2.9985    0.8502 H       1  LIG1        0.0790
     12 C           0.2827   -2.1673   -1.0338 C.ar    1  LIG1       -0.0031
     13 C           0.8603   -3.3730   -1.5059 C.ar    1  LIG1       -0.0514
     14 C           1.1316   -3.5660   -2.8660 C.ar    1  LIG1       -0.0158
     15 C           0.8146   -2.5461   -3.7349 C.ar    1  LIG1        0.1662
     16 O           0.9926   -2.5604   -5.0828 O.3     1  LIG1       -0.4526
     17 C           0.4625   -1.2658   -5.4393 C.3     1  LIG1        0.2332
     18 O           0.0183   -0.4953   -4.3050 O.3     1  LIG1       -0.4526
     19 C           0.2599   -1.3708   -3.2932 C.ar    1  LIG1        0.1666
     20 C          -0.0110   -1.1494   -1.9598 C.ar    1  LIG1       -0.0095
     21 O          -1.1902   -1.1824    0.6560 O.3     1  LIG1       -0.4829
     22 C           1.3122    1.1557    1.8001 C.ar    1  LIG1       -0.0093
     23 C           0.5983    2.3546    1.8338 C.ar    1  LIG1        0.1621
     24 O           1.1071    3.5775    2.2005 O.3     1  LIG1       -0.4914
     25 C           2.4907    3.6142    2.5334 C.3     1  LIG1        0.0790
     26 C          -0.7695    2.3674    1.4721 C.ar    1  LIG1        0.1655
     27 O          -1.4465    3.5618    1.5183 O.3     1  LIG1       -0.5030
     28 H          -5.4563    1.6620    2.9799 H       1  LIG1        0.0532
     29 H          -4.9130    2.8304    1.6442 H       1  LIG1        0.0532
     30 H          -3.7527    0.0657    2.3145 H       1  LIG1        0.0570
     31 H          -3.1115    2.1752    0.1224 H       1  LIG1        0.0358
     32 H          -3.0650    0.4538   -0.1143 H       1  LIG1        0.0358
     33 H           3.2604   -1.1713    1.5807 H       1  LIG1        0.0237
     34 H           2.7471   -1.1379   -0.1036 H       1  LIG1        0.0237
     35 H           2.7872   -2.6760    0.7902 H       1  LIG1        0.0237
     36 H           1.0980   -4.1742   -0.8082 H       1  LIG1        0.0623
     37 H           1.5695   -4.4894   -3.2276 H       1  LIG1        0.0655
     38 H          -0.3857   -1.4085   -6.1192 H       1  LIG1        0.1166
     39 H           1.2411   -0.6998   -5.9629 H       1  LIG1        0.1166
     40 H          -0.4555   -0.2070   -1.6593 H       1  LIG1        0.0659
     41 H           2.3569    1.0953    2.0777 H       1  LIG1        0.0659
     42 H           2.7456    4.6458    2.7938 H       1  LIG1        0.0660
     43 H           3.1105    3.3232    1.6785 H       1  LIG1        0.0660
     44 H           2.7021    2.9889    3.4072 H       1  LIG1        0.0660
     45 H          -0.7993    4.2064    1.8636 H       1  LIG1        0.2923
@<TRIPOS>BOND
     1     1     2    2
     2     2     3    1
     3     3     4    1
     4     4     5   ar
     5     5     6   ar
     6     6     7    1
     7     7     8    1
     8     7     9    1
     9     7    10    1
    10    10    11    1
    11    10    12    1
    12    12    13   ar
    13    13    14   ar
    14    14    15   ar
    15    15    16    1
    16    16    17    1
    17    17    18    1
    18    15    19   ar
    19    18    19    1
    20    19    20   ar
    21    12    20   ar
    22    10    21    1
    23     5    21    1
    24     6    22   ar
    25    22    23   ar
    26    23    24    1
    27    24    25    1
    28    23    26   ar
    29     4    26   ar
    30    26    27    1
    31     1    28    1
    32     1    29    1
    33     2    30    1
    34     3    31    1
    35     3    32    1
    36     9    33    1
    37     9    34    1
    38     9    35    1
    39    13    36    1
    40    14    37    1
    41    17    38    1
    42    17    39    1
    43    20    40    1
    44    22    41    1
    45    25    42    1
    46    25    43    1
    47    25    44    1
    48    27    45    1
