REMARK  Name = NuBBE_1506
REMARK  11 active torsions:
REMARK  status: ('A' for Active; 'I' for Inactive)
REMARK    1  A    between atoms: C_1  and  C_2
REMARK    2  A    between atoms: C_1  and  C_15
REMARK    3  A    between atoms: C_2  and  S_3
REMARK    4  A    between atoms: S_3  and  C_4
REMARK    5  A    between atoms: C_8  and  S_13
REMARK    6  A    between atoms: S_13  and  C_14
REMARK    7  A    between atoms: C_18  and  O_21
REMARK    8  A    between atoms: O_21  and  C_22
REMARK    9  A    between atoms: C_22  and  C_23
REMARK   10  A    between atoms: C_24  and  C_25
REMARK   11  A    between atoms: C_24  and  C_26
REMARK                            x       y       z     vdW  Elec       q    Type
REMARK                         _______ _______ _______ _____ _____    ______ ____
ROOT
ATOM      1  C   LIG A   1      -0.536  -3.073   0.153  0.00  0.00    +0.161 C 
ATOM      2  C   LIG A   1      -0.224  -4.595   0.317  0.00  0.00    +0.248 C 
ATOM      3  O   LIG A   1       0.711  -5.028   0.984  0.00  0.00    -0.273 OA
ATOM      4  N   LIG A   1      -1.205  -5.464  -0.108  0.00  0.00    -0.293 N 
ATOM      5  C   LIG A   1      -2.053  -5.165  -1.244  0.00  0.00    +0.218 C 
ATOM      6  C   LIG A   1      -2.272  -3.656  -1.508  0.00  0.00    +0.245 C 
ATOM      7  O   LIG A   1      -3.171  -3.216  -2.215  0.00  0.00    -0.273 OA
ATOM      8  N   LIG A   1      -1.269  -2.817  -1.085  0.00  0.00    -0.291 N 
ATOM      9  H   LIG A   1      -0.960  -6.436   0.021  0.00  0.00    +0.150 HD
ATOM     10  H   LIG A   1      -1.502  -1.846  -1.254  0.00  0.00    +0.151 HD
ENDROOT
BRANCH   1  11
ATOM     11  S   LIG A   1      -1.690  -2.567   1.531  0.00  0.00    -0.129 S 
ATOM     12  C   LIG A   1      -0.701  -2.978   2.993  0.00  0.00    +0.087 C 
ENDBRANCH   1  11
BRANCH   5  13
ATOM     13  S   LIG A   1      -1.313  -5.992  -2.693  0.00  0.00    -0.133 S 
ATOM     14  C   LIG A   1      -2.514  -5.525  -3.969  0.00  0.00    +0.086 C 
ENDBRANCH   5  13
BRANCH   1  15
ATOM     15  C   LIG A   1       0.811  -2.307   0.146  0.00  0.00    +0.081 C 
BRANCH  15  16
ATOM     16  C   LIG A   1       0.727  -0.806  -0.021  0.00  0.00    -0.044 A 
ATOM     17  C   LIG A   1       0.748  -0.215  -1.291  0.00  0.00    +0.007 A 
ATOM     18  C   LIG A   1       0.712   1.181  -1.429  0.00  0.00    +0.046 A 
ATOM     19  C   LIG A   1       0.646   1.999  -0.296  0.00  0.00    +0.121 A 
ATOM     20  C   LIG A   1       0.587   1.397   0.960  0.00  0.00    +0.046 A 
ATOM     21  C   LIG A   1       0.635   0.017   1.100  0.00  0.00    +0.007 A 
BRANCH  19  22
ATOM     22  O   LIG A   1       0.652   3.362  -0.480  0.00  0.00    -0.488 OA
BRANCH  22  23
ATOM     23  C   LIG A   1       0.573   4.124   0.739  0.00  0.00    +0.256 C 
BRANCH  23  24
ATOM     24  C   LIG A   1       0.609   5.587   0.431  0.00  0.00    +0.012 C 
ATOM     25  C   LIG A   1       1.496   6.512   0.853  0.00  0.00    -0.076 C 
ATOM     26  C   LIG A   1       2.691   6.259   1.733  0.00  0.00    +0.038 C 
ATOM     27  C   LIG A   1       1.352   7.948   0.424  0.00  0.00    +0.038 C 
ENDBRANCH  23  24
ENDBRANCH  22  23
ENDBRANCH  19  22
ENDBRANCH  15  16
ENDBRANCH   1  15
TORSDOF 7
