@<TRIPOS>MOLECULE
NuBBE_2115
 32 31 0 0 0
SMALL
GASTEIGER

@<TRIPOS>ATOM
      1 C          -1.8327    2.5878   -2.9259 C.3     1  LIG1       -0.0653
      2 C          -0.5425    3.1191   -2.3157 C.3     1  LIG1       -0.0559
      3 C          -0.0674    2.3023   -1.1132 C.3     1  LIG1       -0.0533
      4 C           0.2361    0.8542   -1.4938 C.3     1  LIG1       -0.0531
      5 C           0.6615    0.0244   -0.2960 C.3     1  LIG1       -0.0531
      6 C           0.8263   -1.4436   -0.6782 C.3     1  LIG1       -0.0531
      7 C           1.3018   -2.3627    0.4501 C.3     1  LIG1       -0.0531
      8 C           0.3463   -2.5014    1.6456 C.3     1  LIG1       -0.0533
      9 C           0.4504   -1.3700    2.6755 C.3     1  LIG1       -0.0559
     10 C          -0.5680   -1.5190    3.7946 C.3     1  LIG1       -0.0653
     11 H          -2.1482    3.2233   -3.7579 H       1  LIG1        0.0230
     12 H          -2.6370    2.5656   -2.1835 H       1  LIG1        0.0230
     13 H          -1.7084    1.5770   -3.3253 H       1  LIG1        0.0230
     14 H          -0.7006    4.1567   -1.9993 H       1  LIG1        0.0263
     15 H           0.2423    3.1330   -3.0807 H       1  LIG1        0.0263
     16 H          -0.8328    2.3292   -0.3274 H       1  LIG1        0.0265
     17 H           0.8336    2.7705   -0.6946 H       1  LIG1        0.0265
     18 H           1.0213    0.8214   -2.2620 H       1  LIG1        0.0265
     19 H          -0.6573    0.3852   -1.9194 H       1  LIG1        0.0265
     20 H          -0.1390    0.1253    0.4352 H       1  LIG1        0.0265
     21 H           1.5896    0.4195    0.1359 H       1  LIG1        0.0265
     22 H           1.5499   -1.5161   -1.5016 H       1  LIG1        0.0265
     23 H          -0.1243   -1.8251   -1.0695 H       1  LIG1        0.0265
     24 H           2.2977   -2.0599    0.7921 H       1  LIG1        0.0265
     25 H           1.4222   -3.3633    0.0089 H       1  LIG1        0.0265
     26 H           0.5973   -3.4400    2.1603 H       1  LIG1        0.0265
     27 H          -0.6819   -2.6124    1.2857 H       1  LIG1        0.0265
     28 H           0.2832   -0.3921    2.2284 H       1  LIG1        0.0263
     29 H           1.4593   -1.3474    3.0927 H       1  LIG1        0.0263
     30 H          -1.5890   -1.5148    3.3981 H       1  LIG1        0.0230
     31 H          -0.4743   -0.6797    4.4910 H       1  LIG1        0.0230
     32 H          -0.4156   -2.4469    4.3500 H       1  LIG1        0.0230
@<TRIPOS>BOND
     1     1     2    1
     2     2     3    1
     3     3     4    1
     4     4     5    1
     5     5     6    1
     6     6     7    1
     7     7     8    1
     8     8     9    1
     9     9    10    1
    10     1    11    1
    11     1    12    1
    12     1    13    1
    13     2    14    1
    14     2    15    1
    15     3    16    1
    16     3    17    1
    17     4    18    1
    18     4    19    1
    19     5    20    1
    20     5    21    1
    21     6    22    1
    22     6    23    1
    23     7    24    1
    24     7    25    1
    25     8    26    1
    26     8    27    1
    27     9    28    1
    28     9    29    1
    29    10    30    1
    30    10    31    1
    31    10    32    1
