@<TRIPOS>MOLECULE
NuBBE_1625
 53 55 0 0 0
SMALL
GASTEIGER

@<TRIPOS>ATOM
      1 O          -2.7505   -2.9347   -2.9094 O.3     1  LIG1       -0.4905
      2 C          -3.7109   -3.9597   -2.6922 C.3     1  LIG1        0.0790
      3 C          -1.6155   -2.9090   -2.1486 C.ar    1  LIG1        0.1792
      4 C          -1.1051   -1.6222   -1.8474 C.ar    1  LIG1        0.1045
      5 C          -0.0095   -1.4899   -1.0287 C.ar    1  LIG1        0.1391
      6 O           0.5182   -0.2890   -0.6096 O.3     1  LIG1       -0.4828
      7 C          -0.0286    0.9058   -1.2034 C.3     1  LIG1        0.1324
      8 C          -1.5259    0.8001   -1.4156 C.3     1  LIG1        0.0520
      9 C          -1.7195   -0.3815   -2.3410 C.2     1  LIG1        0.1742
     10 O          -2.2741   -0.2949   -3.4029 O.2     1  LIG1       -0.2917
     11 C           0.3034    2.0519   -0.2640 C.ar    1  LIG1        0.0002
     12 C           0.4826    3.3606   -0.7244 C.ar    1  LIG1       -0.0094
     13 C           0.6942    4.4254    0.1684 C.ar    1  LIG1        0.1655
     14 O           0.7516    5.6271   -0.4983 O.3     1  LIG1       -0.4913
     15 C           0.9817    6.8236    0.2317 C.3     1  LIG1        0.0790
     16 C           0.7910    4.1826    1.5563 C.ar    1  LIG1        0.2035
     17 C           0.6869    2.8578    2.0215 C.ar    1  LIG1        0.1655
     18 C           0.3954    1.8263    1.1161 C.ar    1  LIG1       -0.0094
     19 O           0.7772    2.5837    3.3685 O.3     1  LIG1       -0.4913
     20 C           1.4767    1.3666    3.6567 C.3     1  LIG1        0.0790
     21 O           0.8929    5.2901    2.3474 O.3     1  LIG1       -0.4885
     22 C           1.4693    5.2171    3.6368 C.3     1  LIG1        0.0791
     23 C           0.6759   -2.6001   -0.5494 C.ar    1  LIG1        0.0264
     24 C           0.2660   -3.8879   -0.9082 C.ar    1  LIG1        0.1687
     25 C          -0.9141   -4.0579   -1.6698 C.ar    1  LIG1        0.2045
     26 O          -1.4192   -5.2764   -2.0592 O.3     1  LIG1       -0.4885
     27 C          -1.1632   -6.3922   -1.2127 C.3     1  LIG1        0.0791
     28 O           1.0006   -4.9993   -0.5636 O.3     1  LIG1       -0.4912
     29 C           2.2050   -4.8081    0.1742 C.3     1  LIG1        0.0790
     30 H          -3.6581   -4.4180   -1.6984 H       1  LIG1        0.0660
     31 H          -3.6239   -4.7154   -3.4800 H       1  LIG1        0.0660
     32 H          -4.7019   -3.5018   -2.7766 H       1  LIG1        0.0660
     33 H           0.5064    1.0502   -2.1533 H       1  LIG1        0.0789
     34 H          -1.9608    1.6858   -1.8713 H       1  LIG1        0.0385
     35 H          -2.0779    0.5736   -0.4968 H       1  LIG1        0.0385
     36 H           0.4283    3.6026   -1.7891 H       1  LIG1        0.0659
     37 H           1.9837    6.8208    0.6749 H       1  LIG1        0.0660
     38 H           0.1918    7.0035    0.9721 H       1  LIG1        0.0660
     39 H           0.9469    7.6624   -0.4800 H       1  LIG1        0.0660
     40 H           0.2063    0.8212    1.4865 H       1  LIG1        0.0659
     41 H           1.8380    1.4126    4.6893 H       1  LIG1        0.0660
     42 H           2.3518    1.2340    3.0066 H       1  LIG1        0.0660
     43 H           0.7997    0.5070    3.5770 H       1  LIG1        0.0660
     44 H           1.9352    6.1950    3.8133 H       1  LIG1        0.0660
     45 H           2.2595    4.4642    3.7215 H       1  LIG1        0.0660
     46 H           0.6866    5.0870    4.3919 H       1  LIG1        0.0660
     47 H           1.5386   -2.4196    0.0785 H       1  LIG1        0.0692
     48 H          -1.0858   -6.1202   -0.1532 H       1  LIG1        0.0660
     49 H          -0.2667   -6.9149   -1.5618 H       1  LIG1        0.0660
     50 H          -2.0067   -7.0869   -1.3009 H       1  LIG1        0.0660
     51 H           2.5957   -5.7928    0.4505 H       1  LIG1        0.0660
     52 H           2.0190   -4.2636    1.1065 H       1  LIG1        0.0660
     53 H           2.9622   -4.3025   -0.4365 H       1  LIG1        0.0660
@<TRIPOS>BOND
     1     1     2    1
     2     1     3    1
     3     3     4   ar
     4     4     5   ar
     5     5     6    1
     6     6     7    1
     7     7     8    1
     8     8     9    1
     9     4     9    1
    10     9    10    2
    11     7    11    1
    12    11    12   ar
    13    12    13   ar
    14    13    14    1
    15    14    15    1
    16    13    16   ar
    17    16    17   ar
    18    17    18   ar
    19    11    18   ar
    20    17    19    1
    21    19    20    1
    22    16    21    1
    23    21    22    1
    24     5    23   ar
    25    23    24   ar
    26    24    25   ar
    27     3    25   ar
    28    25    26    1
    29    26    27    1
    30    24    28    1
    31    28    29    1
    32     2    30    1
    33     2    31    1
    34     2    32    1
    35     7    33    1
    36     8    34    1
    37     8    35    1
    38    12    36    1
    39    15    37    1
    40    15    38    1
    41    15    39    1
    42    18    40    1
    43    20    41    1
    44    20    42    1
    45    20    43    1
    46    22    44    1
    47    22    45    1
    48    22    46    1
    49    23    47    1
    50    27    48    1
    51    27    49    1
    52    27    50    1
    53    29    51    1
    54    29    52    1
    55    29    53    1
