@<TRIPOS>MOLECULE
NuBBE_2504
 51 54 0 0 0
SMALL
GASTEIGER

@<TRIPOS>ATOM
      1 C          -4.6090   -2.3514    0.9375 C.3     1  LIG1       -0.0585
      2 C          -3.7534   -2.8045   -0.2493 C.3     1  LIG1       -0.0179
      3 C          -3.4214   -4.2958   -0.1426 C.3     1  LIG1       -0.0585
      4 C          -2.4952   -1.9632   -0.3816 C.ar    1  LIG1        0.0006
      5 C          -1.5342   -1.9350    0.6383 C.ar    1  LIG1       -0.0487
      6 C          -0.3771   -1.1644    0.4921 C.ar    1  LIG1       -0.0111
      7 C          -0.1255   -0.3912   -0.6739 C.ar    1  LIG1        0.0119
      8 C          -1.0917   -0.4029   -1.6693 C.ar    1  LIG1        0.1627
      9 O          -1.0301    0.3213   -2.8261 O.3     1  LIG1       -0.5031
     10 C          -2.2477   -1.1919   -1.5243 C.ar    1  LIG1        0.1620
     11 O          -3.1583   -1.1829   -2.5523 O.3     1  LIG1       -0.5031
     12 C           1.2569    0.2969   -0.5913 C.3     1  LIG1        0.0264
     13 C           1.7711    1.0747   -1.8170 C.3     1  LIG1       -0.0408
     14 C           1.4344    2.5610   -1.7421 C.3     1  LIG1       -0.0517
     15 C           2.0860    3.2547   -0.5400 C.3     1  LIG1       -0.0476
     16 C           2.1744    2.3883    0.7528 C.3     1  LIG1       -0.0311
     17 C           1.8469    3.2922    1.9642 C.3     1  LIG1       -0.0595
     18 C           3.6308    1.9114    0.9305 C.3     1  LIG1       -0.0595
     19 C           1.1395    1.2242    0.6737 C.3     1  LIG1       -0.0213
     20 C           0.9976    0.3423    1.9437 C.3     1  LIG1       -0.0182
     21 C           0.7251   -1.1114    1.5289 C.3     1  LIG1        0.0843
     22 H           0.5045   -1.7348    2.4008 H       1  LIG1        0.0646
     23 O           1.9237   -1.6036    0.9103 O.3     1  LIG1       -0.3711
     24 C           2.2281   -0.8983   -0.3084 C.3     1  LIG1        0.0584
     25 H          -5.5495   -2.9122    0.9695 H       1  LIG1        0.0235
     26 H          -4.8561   -1.2869    0.8574 H       1  LIG1        0.0235
     27 H          -4.0991   -2.5051    1.8947 H       1  LIG1        0.0235
     28 H          -4.3720   -2.6832   -1.1465 H       1  LIG1        0.0345
     29 H          -2.8619   -4.5282    0.7699 H       1  LIG1        0.0235
     30 H          -2.8189   -4.6243   -0.9969 H       1  LIG1        0.0235
     31 H          -4.3390   -4.8939   -0.1301 H       1  LIG1        0.0235
     32 H          -1.6740   -2.5242    1.5414 H       1  LIG1        0.0625
     33 H          -0.6103    1.1680   -2.6122 H       1  LIG1        0.2923
     34 H          -2.7383   -0.6315   -3.2421 H       1  LIG1        0.2923
     35 H           1.4149    0.6385   -2.7549 H       1  LIG1        0.0275
     36 H           2.8643    0.9975   -1.8803 H       1  LIG1        0.0275
     37 H           0.3498    2.7027   -1.6807 H       1  LIG1        0.0266
     38 H           1.7574    3.0608   -2.6628 H       1  LIG1        0.0266
     39 H           1.5174    4.1745   -0.3491 H       1  LIG1        0.0271
     40 H           3.0890    3.5934   -0.8312 H       1  LIG1        0.0271
     41 H           0.8109    3.6473    1.9246 H       1  LIG1        0.0235
     42 H           2.4974    4.1744    1.9855 H       1  LIG1        0.0235
     43 H           1.9829    2.7633    2.9135 H       1  LIG1        0.0235
     44 H           4.0199    1.4247    0.0336 H       1  LIG1        0.0235
     45 H           3.7419    1.2188    1.7693 H       1  LIG1        0.0235
     46 H           4.2952    2.7615    1.1292 H       1  LIG1        0.0235
     47 H           0.1664    1.7398    0.5858 H       1  LIG1        0.0316
     48 H           0.1731    0.7239    2.5586 H       1  LIG1        0.0297
     49 H           1.9038    0.3738    2.5559 H       1  LIG1        0.0297
     50 H           2.1895   -1.6307   -1.1252 H       1  LIG1        0.0569
     51 H           3.2697   -0.5785   -0.2317 H       1  LIG1        0.0569
@<TRIPOS>BOND
     1     1     2    1
     2     2     3    1
     3     4     5   ar
     4     5     6   ar
     5     6     7   ar
     6     7     8   ar
     7     8    10   ar
     8     4    10   ar
     9     7    12    1
    10    12    13    1
    11    13    14    1
    12    14    15    1
    13    15    16    1
    14    16    19    1
    15    12    19    1
    16    19    20    1
    17    20    21    1
    18     6    21    1
    19    21    23    1
    20    23    24    1
    21    12    24    1
    22     2     4    1
    23     8     9    1
    24    10    11    1
    25    16    17    1
    26    16    18    1
    27    21    22    1
    28     1    25    1
    29     1    26    1
    30     1    27    1
    31     2    28    1
    32     3    29    1
    33     3    30    1
    34     3    31    1
    35     5    32    1
    36     9    33    1
    37    11    34    1
    38    13    35    1
    39    13    36    1
    40    14    37    1
    41    14    38    1
    42    15    39    1
    43    15    40    1
    44    17    41    1
    45    17    42    1
    46    17    43    1
    47    18    44    1
    48    18    45    1
    49    18    46    1
    50    19    47    1
    51    20    48    1
    52    20    49    1
    53    24    50    1
    54    24    51    1
