REMARK  Name = NuBBE_1318
REMARK  3 active torsions:
REMARK  status: ('A' for Active; 'I' for Inactive)
REMARK    1  A    between atoms: C_4  and  C_5
REMARK    2  A    between atoms: C_8  and  O_9
REMARK    3  A    between atoms: O_9  and  C_10
REMARK                            x       y       z     vdW  Elec       q    Type
REMARK                         _______ _______ _______ _____ _____    ______ ____
ROOT
ATOM      1  O   LIG A   1      -4.202   1.343   0.098  0.00  0.00    -0.287 OA
ATOM      2  C   LIG A   1      -2.985   1.224   0.094  0.00  0.00    +0.193 A 
ATOM      3  C   LIG A   1      -2.356  -0.106   0.087  0.00  0.00    +0.098 A 
ATOM      4  C   LIG A   1      -1.019  -0.208   0.097  0.00  0.00    +0.139 A 
ATOM      5  O   LIG A   1      -0.163   0.885   0.097  0.00  0.00    -0.454 OA
ATOM      6  C   LIG A   1      -2.081   2.384   0.092  0.00  0.00    +0.065 A 
ATOM      7  C   LIG A   1      -0.700   2.150   0.092  0.00  0.00    +0.150 A 
ATOM      8  C   LIG A   1       0.164   3.262   0.086  0.00  0.00    +0.063 A 
ATOM      9  C   LIG A   1       1.573   3.461   0.083  0.00  0.00    +0.053 A 
ATOM     10  C   LIG A   1       1.775   4.822   0.081  0.00  0.00    +0.196 A 
ATOM     11  O   LIG A   1       0.587   5.482   0.080  0.00  0.00    -0.463 OA
ATOM     12  C   LIG A   1      -0.393   4.537   0.083  0.00  0.00    +0.138 A 
ATOM     13  C   LIG A   1      -1.762   4.797   0.085  0.00  0.00    +0.048 A 
ATOM     14  C   LIG A   1      -2.607   3.683   0.089  0.00  0.00    +0.019 A 
ENDROOT
BRANCH   4  15
ATOM     15  C   LIG A   1      -0.327  -1.518   0.080  0.00  0.00    +0.018 A 
ATOM     16  C   LIG A   1      -0.872  -2.661   0.684  0.00  0.00    +0.015 A 
ATOM     17  C   LIG A   1      -0.185  -3.882   0.661  0.00  0.00    +0.046 A 
ATOM     18  C   LIG A   1       1.063  -3.989   0.048  0.00  0.00    +0.120 A 
ATOM     19  C   LIG A   1       1.620  -2.861  -0.549  0.00  0.00    +0.046 A 
ATOM     20  C   LIG A   1       0.932  -1.640  -0.530  0.00  0.00    +0.015 A 
BRANCH  18  21
ATOM     21  O   LIG A   1       1.627  -5.232   0.104  0.00  0.00    -0.495 OA
ATOM     22  C   LIG A   1       2.909  -5.382  -0.494  0.00  0.00    +0.277 C 
ENDBRANCH  18  21
ENDBRANCH   4  15
TORSDOF 2
