REMARK  Name = NuBBE_1449
REMARK  8 active torsions:
REMARK  status: ('A' for Active; 'I' for Inactive)
REMARK    1  A    between atoms: O_1  and  C_2
REMARK    2  A    between atoms: C_5  and  O_30
REMARK    3  A    between atoms: C_10  and  C_12
REMARK    4  A    between atoms: C_12  and  C_13
REMARK    5  A    between atoms: C_23  and  O_28
REMARK    6  A    between atoms: C_24  and  O_25
REMARK    7  A    between atoms: O_25  and  C_26
REMARK    8  A    between atoms: O_28  and  C_29
REMARK                            x       y       z     vdW  Elec       q    Type
REMARK                         _______ _______ _______ _____ _____    ______ ____
ROOT
ATOM      1  C   LIG A   1      -1.715   0.915   0.190  0.00  0.00    +0.197 C 
ATOM      2  C   LIG A   1      -1.816  -0.223  -0.840  0.00  0.00    +0.210 C 
ATOM      3  C   LIG A   1      -0.642  -0.501  -1.681  0.00  0.00    +0.104 A 
ATOM      4  C   LIG A   1      -0.515  -1.703  -2.402  0.00  0.00    +0.134 A 
ATOM      5  C   LIG A   1       0.619  -1.955  -3.178  0.00  0.00    +0.092 A 
ATOM      6  C   LIG A   1       1.599  -0.986  -3.213  0.00  0.00    +0.132 A 
ATOM      7  C   LIG A   1       1.466   0.217  -2.539  0.00  0.00    +0.041 A 
ATOM      8  C   LIG A   1       2.642   1.073  -2.812  0.00  0.00    +0.091 C 
ATOM      9  C   LIG A   1       3.571   0.032  -3.462  0.00  0.00    +0.203 C 
ATOM     10  O   LIG A   1       2.771  -1.096  -3.915  0.00  0.00    -0.484 OA
ATOM     11  C   LIG A   1       0.345   0.473  -1.771  0.00  0.00    +0.142 A 
ATOM     12  O   LIG A   1       0.244   1.692  -1.173  0.00  0.00    -0.480 OA
ATOM     13  C   LIG A   1      -0.348   1.628   0.139  0.00  0.00    +0.254 C 
ATOM     14  C   LIG A   1       0.679   1.053   1.134  0.00  0.00    +0.277 C 
ATOM     15  O   LIG A   1       0.360  -0.283   1.549  0.00  0.00    -0.488 OA
ATOM     16  C   LIG A   1      -0.850  -0.256   2.193  0.00  0.00    +0.131 A 
ATOM     17  C   LIG A   1      -1.936   0.381   1.592  0.00  0.00    +0.041 A 
ATOM     18  C   LIG A   1      -3.132   0.448   2.313  0.00  0.00    +0.060 A 
ATOM     19  C   LIG A   1      -3.238  -0.106   3.607  0.00  0.00    +0.162 A 
ATOM     20  C   LIG A   1      -2.129  -0.762   4.176  0.00  0.00    +0.165 A 
ATOM     21  C   LIG A   1      -0.943  -0.857   3.441  0.00  0.00    +0.095 A 
ATOM     22  O   LIG A   1      -2.849  -0.889  -1.007  0.00  0.00    -0.288 OA
ENDROOT
BRANCH   9  23
ATOM     23  C   LIG A   1       4.383   0.597  -4.611  0.00  0.00    -0.040 C 
ATOM     24  C   LIG A   1       3.760   0.565  -5.979  0.00  0.00    +0.042 C 
ATOM     25  C   LIG A   1       5.612   1.110  -4.418  0.00  0.00    +0.011 C 
ENDBRANCH   9  23
BRANCH   1  26
ATOM     26  O   LIG A   1      -2.748   1.854  -0.165  0.00  0.00    -0.373 OA
ATOM     27  H   LIG A   1      -3.538   1.323  -0.385  0.00  0.00    +0.211 HD
ENDBRANCH   1  26
BRANCH  20  28
ATOM     28  O   LIG A   1      -2.240  -1.341   5.413  0.00  0.00    -0.491 OA
ATOM     29  C   LIG A   1      -1.068  -1.301   6.223  0.00  0.00    +0.277 C 
ENDBRANCH  20  28
BRANCH  19  30
ATOM     30  O   LIG A   1      -4.475   0.102   4.161  0.00  0.00    -0.491 OA
ATOM     31  C   LIG A   1      -4.714  -0.348   5.487  0.00  0.00    +0.277 C 
ENDBRANCH  19  30
BRANCH   4  32
ATOM     32  O   LIG A   1      -1.480  -2.677  -2.394  0.00  0.00    -0.506 OA
ATOM     33  H   LIG A   1      -2.267  -2.327  -1.918  0.00  0.00    +0.292 HD
ENDBRANCH   4  32
TORSDOF 5
