@<TRIPOS>MOLECULE
NuBBE_2192
 51 53 0 0 0
SMALL
GASTEIGER

@<TRIPOS>ATOM
      1 C          -1.6973   -0.6136    1.6635 C.3     1  LIG1       -0.0551
      2 C          -0.4388   -0.0055    1.0000 C.3     1  LIG1        0.0004
      3 C          -0.6530    1.4829    0.5545 C.3     1  LIG1       -0.0194
      4 C          -1.6467    1.5817   -0.6055 C.3     1  LIG1        0.0143
      5 C          -1.1877    0.7498   -1.7754 C.2     1  LIG1        0.1599
      6 C          -0.4294   -0.5119   -1.5131 C.2     1  LIG1        0.0030
      7 C          -0.0697   -1.3081   -2.7437 C.3     1  LIG1       -0.0124
      8 C           1.1422   -2.2387   -2.5178 C.3     1  LIG1        0.0229
      9 C           2.4243   -1.3974   -2.4436 C.2     1  LIG1       -0.0820
     10 C           3.3610   -1.3885   -1.4847 C.2     1  LIG1       -0.1020
     11 C           1.2913   -3.1559   -3.7513 C.3     1  LIG1       -0.0530
     12 C           0.8505   -3.0870   -1.2648 C.3     1  LIG1        0.1263
     13 H           1.7309   -3.6880   -1.0066 H       1  LIG1        0.0685
     14 O          -0.2312   -3.9990   -1.4854 O.3     1  LIG1       -0.3831
     15 C          -0.1356   -0.8674   -0.2452 C.2     1  LIG1        0.0103
     16 C           0.4770   -2.2333   -0.0512 C.2     1  LIG1        0.1892
     17 O           0.5820   -2.7231    1.0759 O.2     1  LIG1       -0.2896
     18 O          -1.4927    1.0634   -2.9252 O.2     1  LIG1       -0.2924
     19 H           0.3187    1.7860    0.1264 H       1  LIG1        0.0319
     20 C          -0.9416    2.5048    1.7172 C.3     1  LIG1       -0.0309
     21 C          -0.3647    3.8861    1.3086 C.3     1  LIG1       -0.0595
     22 C          -2.4424    2.7255    2.0003 C.3     1  LIG1       -0.0595
     23 C          -0.2491    2.0625    3.0304 C.3     1  LIG1       -0.0476
     24 C           1.0213    1.2722    2.7660 C.3     1  LIG1       -0.0518
     25 C           0.7576   -0.0313    2.0062 C.3     1  LIG1       -0.0432
     26 H          -2.5741   -0.5558    1.0103 H       1  LIG1        0.0238
     27 H          -1.9514   -0.1269    2.6063 H       1  LIG1        0.0238
     28 H          -1.5582   -1.6733    1.9058 H       1  LIG1        0.0238
     29 H          -1.7122    2.6184   -0.9539 H       1  LIG1        0.0348
     30 H          -2.6531    1.2530   -0.3295 H       1  LIG1        0.0348
     31 H           0.1569   -0.6331   -3.5800 H       1  LIG1        0.0324
     32 H          -0.9532   -1.8862   -3.0463 H       1  LIG1        0.0324
     33 H           2.5881   -0.7316   -3.2943 H       1  LIG1        0.0573
     34 H           3.3246   -2.0135   -0.5990 H       1  LIG1        0.0532
     35 H           4.2270   -0.7369   -1.5761 H       1  LIG1        0.0532
     36 H           1.5027   -2.5772   -4.6588 H       1  LIG1        0.0239
     37 H           0.3791   -3.7315   -3.9446 H       1  LIG1        0.0239
     38 H           2.1118   -3.8701   -3.6143 H       1  LIG1        0.0239
     39 H          -0.3208   -4.5164   -0.6617 H       1  LIG1        0.2104
     40 H          -0.8295    4.2620    0.3911 H       1  LIG1        0.0235
     41 H           0.7161    3.8356    1.1372 H       1  LIG1        0.0235
     42 H          -0.5379    4.6346    2.0907 H       1  LIG1        0.0235
     43 H          -2.9520    3.1937    1.1512 H       1  LIG1        0.0235
     44 H          -2.5815    3.3909    2.8609 H       1  LIG1        0.0235
     45 H          -2.9641    1.7926    2.2256 H       1  LIG1        0.0235
     46 H          -0.9222    1.4522    3.6433 H       1  LIG1        0.0271
     47 H          -0.0090    2.9362    3.6496 H       1  LIG1        0.0271
     48 H           1.5207    1.0412    3.7144 H       1  LIG1        0.0266
     49 H           1.7266    1.8889    2.1954 H       1  LIG1        0.0266
     50 H           0.5957   -0.8234    2.7492 H       1  LIG1        0.0274
     51 H           1.6928   -0.2895    1.4918 H       1  LIG1        0.0274
@<TRIPOS>BOND
     1     1     2    1
     2     2     3    1
     3     3     4    1
     4     4     5    1
     5     5     6    1
     6     6     7    1
     7     7     8    1
     8     8     9    1
     9     9    10    2
    10     8    11    1
    11     8    12    1
    12    12    13    1
    13    12    14    1
    14     6    15    2
    15     2    15    1
    16    15    16    1
    17    12    16    1
    18    16    17    2
    19     5    18    2
    20     3    19    1
    21     3    20    1
    22    20    21    1
    23    20    22    1
    24    20    23    1
    25    23    24    1
    26    24    25    1
    27     2    25    1
    28     1    26    1
    29     1    27    1
    30     1    28    1
    31     4    29    1
    32     4    30    1
    33     7    31    1
    34     7    32    1
    35     9    33    1
    36    10    34    1
    37    10    35    1
    38    11    36    1
    39    11    37    1
    40    11    38    1
    41    14    39    1
    42    21    40    1
    43    21    41    1
    44    21    42    1
    45    22    43    1
    46    22    44    1
    47    22    45    1
    48    23    46    1
    49    23    47    1
    50    24    48    1
    51    24    49    1
    52    25    50    1
    53    25    51    1
