@<TRIPOS>MOLECULE
NuBBE_1251
 53 57 0 0 0
SMALL
GASTEIGER

@<TRIPOS>ATOM
      1 O          -1.9798   -6.3600   -1.6564 O.2     1  LIG1       -0.2445
      2 C          -1.7536   -5.2777   -1.1305 C.ar    1  LIG1        0.3454
      3 C          -2.4658   -4.8651    0.1097 C.ar    1  LIG1        0.0744
      4 C          -3.3737   -5.7296    0.7475 C.ar    1  LIG1       -0.0017
      5 C          -4.0071   -5.3108    1.9195 C.ar    1  LIG1        0.1628
      6 O          -4.8993   -6.1016    2.5887 O.3     1  LIG1       -0.5032
      7 C          -3.7551   -4.0501    2.4528 C.ar    1  LIG1        0.2022
      8 C          -2.8832   -3.1970    1.7974 C.ar    1  LIG1        0.1854
      9 O          -2.6863   -1.9027    2.3210 O.2     1  LIG1       -0.4178
     10 C          -2.2303   -3.5962    0.6338 C.ar    1  LIG1        0.0468
     11 C          -1.3361   -2.6854   -0.0137 C.ar    1  LIG1        0.0468
     12 C          -0.6109   -3.0743   -1.1320 C.ar    1  LIG1        0.1854
     13 O          -0.8085   -4.3787   -1.6547 O.2     1  LIG1       -0.4178
     14 C           0.2956   -2.1972   -1.7515 C.ar    1  LIG1        0.2026
     15 O           1.0293   -2.6206   -2.8257 O.3     1  LIG1       -0.5009
     16 C           0.4420   -0.8840   -1.2674 C.ar    1  LIG1        0.1697
     17 O           1.3454   -0.0304   -1.8672 O.3     1  LIG1       -0.4570
     18 C           1.4763    1.2901   -1.2745 C.3     1  LIG1        0.2320
     19 H           1.6750    1.1525   -0.2027 H       1  LIG1        0.1085
     20 O           0.2652    2.0322   -1.4817 O.3     1  LIG1       -0.3338
     21 C           0.2408    3.3629   -0.9645 C.3     1  LIG1        0.0894
     22 H          -0.6864    3.7937   -1.3625 H       1  LIG1        0.0621
     23 C           1.4187    4.1940   -1.5121 C.3     1  LIG1        0.1206
     24 H           1.4234    5.1763   -1.0260 H       1  LIG1        0.0657
     25 C           2.7647    3.4784   -1.3184 C.3     1  LIG1        0.1627
     26 H           3.5636    4.0045   -1.8558 H       1  LIG1        0.0789
     27 C           2.6926    2.0385   -1.8703 C.3     1  LIG1        0.1564
     28 H           2.5957    2.0690   -2.9611 H       1  LIG1        0.0694
     29 O           3.9293    1.3639   -1.5758 O.3     1  LIG1       -0.3818
     30 O           3.0748    3.4250    0.0971 O.3     1  LIG1       -0.4560
     31 C           3.7419    4.5015    0.6108 C.2     1  LIG1        0.3044
     32 C           3.5454    4.5463    2.1004 C.3     1  LIG1        0.0332
     33 O           4.2982    5.3662   -0.0328 O.2     1  LIG1       -0.2512
     34 O           1.2402    4.4129   -2.9172 O.3     1  LIG1       -0.3855
     35 C           0.0954    3.3918    0.5578 C.3     1  LIG1       -0.0360
     36 C          -0.3457   -0.4976   -0.1785 C.ar    1  LIG1       -0.0014
     37 C          -1.1926   -1.3946    0.4661 C.ar    1  LIG1        0.0744
     38 C          -1.9090   -0.9477    1.6826 C.ar    1  LIG1        0.3454
     39 O          -1.7844    0.1925    2.1112 O.2     1  LIG1       -0.2445
     40 O          -4.3701   -3.6551    3.6048 O.3     1  LIG1       -0.5009
     41 H          -3.5736   -6.7118    0.3266 H       1  LIG1        0.0664
     42 H          -5.0334   -6.9255    2.0884 H       1  LIG1        0.2923
     43 H           0.7536   -3.5290   -3.0455 H       1  LIG1        0.2924
     44 H           4.0842    1.4423   -0.6183 H       1  LIG1        0.2102
     45 H           3.4027    3.5397    2.5019 H       1  LIG1        0.0342
     46 H           2.6607    5.1517    2.3176 H       1  LIG1        0.0342
     47 H           4.4251    4.9846    2.5767 H       1  LIG1        0.0342
     48 H           0.3320    4.7281   -3.0683 H       1  LIG1        0.2101
     49 H           0.9031    2.8724    1.0778 H       1  LIG1        0.0255
     50 H          -0.8298    2.8881    0.8598 H       1  LIG1        0.0255
     51 H           0.0524    4.4227    0.9248 H       1  LIG1        0.0255
     52 H          -0.3323    0.5137    0.2073 H       1  LIG1        0.0664
     53 H          -4.9202   -4.4128    3.8830 H       1  LIG1        0.2924
@<TRIPOS>BOND
     1     1     2    2
     2     2     3   ar
     3     3     4   ar
     4     4     5   ar
     5     5     6    1
     6     5     7   ar
     7     7     8   ar
     8     8     9   ar
     9     8    10   ar
    10     3    10   ar
    11    10    11   ar
    12    11    12   ar
    13    12    13   ar
    14     2    13   ar
    15    12    14   ar
    16    14    15    1
    17    14    16   ar
    18    16    17    1
    19    17    18    1
    20    18    19    1
    21    18    20    1
    22    20    21    1
    23    21    23    1
    24    23    24    1
    25    23    25    1
    26    25    27    1
    27    18    27    1
    28    30    31    1
    29    31    32    1
    30    31    33    2
    31    23    34    1
    32    16    36   ar
    33    36    37   ar
    34    11    37   ar
    35    37    38   ar
    36     9    38   ar
    37    38    39    2
    38     7    40    1
    39    21    35    1
    40    21    22    1
    41    25    30    1
    42    25    26    1
    43    27    29    1
    44    27    28    1
    45     4    41    1
    46     6    42    1
    47    15    43    1
    48    29    44    1
    49    32    45    1
    50    32    46    1
    51    32    47    1
    52    34    48    1
    53    35    49    1
    54    35    50    1
    55    35    51    1
    56    36    52    1
    57    40    53    1
