@<TRIPOS>MOLECULE
NuBBE_1358
 42 45 0 0 0
SMALL
GASTEIGER

@<TRIPOS>ATOM
      1 O          -1.2903    2.6915   -1.2814 O.2     1  LIG1       -0.2756
      2 C          -1.2870    2.0163   -0.2678 C.2     1  LIG1        0.2158
      3 C          -2.5522    1.8553    0.5448 C.3     1  LIG1        0.0242
      4 C          -2.2908    1.6752    2.0250 C.3     1  LIG1       -0.0431
      5 C          -1.3558    0.4887    2.2026 C.3     1  LIG1       -0.0336
      6 C          -0.0044    0.8748    1.5858 C.3     1  LIG1        0.0300
      7 N          -0.1550    1.3300    0.1886 N.am    1  LIG1       -0.2978
      8 C           1.0856    1.5513   -0.5375 C.3     1  LIG1        0.0192
      9 C           2.0972    0.4139   -0.3807 C.3     1  LIG1       -0.0092
     10 H           3.0269    0.7182   -0.8808 H       1  LIG1        0.0331
     11 C           2.3955    0.2531    1.1203 C.3     1  LIG1       -0.0417
     12 C           1.1037   -0.2003    1.8055 C.3     1  LIG1       -0.0092
     13 H           1.2824   -0.2876    2.8853 H       1  LIG1        0.0331
     14 C           0.7705   -1.6000    1.2747 C.3     1  LIG1        0.0037
     15 N           0.5888   -1.5549   -0.1576 N.3     1  LIG1       -0.2988
     16 C          -0.4485   -2.3774   -0.7160 C.3     1  LIG1       -0.0008
     17 C          -1.1225   -1.7491   -1.9310 C.3     1  LIG1       -0.0401
     18 C          -0.2864   -0.7505   -2.7231 C.3     1  LIG1       -0.0505
     19 C           1.2147   -0.8551   -2.4751 C.3     1  LIG1       -0.0370
     20 C           1.6232   -0.9492   -0.9861 C.3     1  LIG1        0.0147
     21 H          -3.0994    0.9942    0.1387 H       1  LIG1        0.0358
     22 H          -3.1698    2.7475    0.3923 H       1  LIG1        0.0358
     23 H          -3.2342    1.5112    2.5616 H       1  LIG1        0.0270
     24 H          -1.8339    2.5820    2.4380 H       1  LIG1        0.0270
     25 H          -1.7863   -0.3918    1.7160 H       1  LIG1        0.0283
     26 H          -1.2383    0.2573    3.2688 H       1  LIG1        0.0283
     27 H           0.3381    1.7689    2.1198 H       1  LIG1        0.0503
     28 H           1.5093    2.4856   -0.1497 H       1  LIG1        0.0468
     29 H           0.8813    1.7393   -1.5987 H       1  LIG1        0.0468
     30 H           2.7444    1.1966    1.5556 H       1  LIG1        0.0273
     31 H           3.1933   -0.4834    1.2763 H       1  LIG1        0.0273
     32 H          -0.1242   -1.9711    1.7842 H       1  LIG1        0.0430
     33 H           1.5718   -2.3030    1.5518 H       1  LIG1        0.0430
     34 H          -0.0963   -3.3880   -0.9454 H       1  LIG1        0.0427
     35 H          -1.2443   -2.5082    0.0294 H       1  LIG1        0.0427
     36 H          -2.0425   -1.2403   -1.6109 H       1  LIG1        0.0278
     37 H          -1.4452   -2.5573   -2.5969 H       1  LIG1        0.0278
     38 H          -0.6344    0.2621   -2.4981 H       1  LIG1        0.0266
     39 H          -0.4896   -0.8884   -3.7925 H       1  LIG1        0.0266
     40 H           1.7166   -0.0118   -2.9674 H       1  LIG1        0.0280
     41 H           1.5687   -1.7558   -2.9930 H       1  LIG1        0.0280
     42 H           2.5189   -1.5898   -0.9754 H       1  LIG1        0.0466
@<TRIPOS>BOND
     1     1     2    2
     2     2     3    1
     3     3     4    1
     4     4     5    1
     5     5     6    1
     6     6     7    1
     7     2     7   am
     8     7     8    1
     9     8     9    1
    10     9    10    1
    11     9    11    1
    12    11    12    1
    13    12    13    1
    14     6    12    1
    15    12    14    1
    16    14    15    1
    17    15    16    1
    18    16    17    1
    19    17    18    1
    20    18    19    1
    21    19    20    1
    22     9    20    1
    23    15    20    1
    24     3    21    1
    25     3    22    1
    26     4    23    1
    27     4    24    1
    28     5    25    1
    29     5    26    1
    30     6    27    1
    31     8    28    1
    32     8    29    1
    33    11    30    1
    34    11    31    1
    35    14    32    1
    36    14    33    1
    37    16    34    1
    38    16    35    1
    39    17    36    1
    40    17    37    1
    41    18    38    1
    42    18    39    1
    43    19    40    1
    44    19    41    1
    45    20    42    1
