@<TRIPOS>MOLECULE
NuBBE_2449
 30 32 0 0 0
SMALL
GASTEIGER

@<TRIPOS>ATOM
      1 O          -2.6359   -1.3264    0.1726 O.3     1  LIG1       -0.5007
      2 C          -1.2606   -1.1871    0.1283 C.ar    1  LIG1        0.2081
      3 C          -0.6172   -0.0068    0.0557 C.ar    1  LIG1        0.1806
      4 O           0.7656    0.1191   -0.0193 O.2     1  LIG1       -0.4508
      5 C           1.5359   -1.0146    0.0009 C.ar    1  LIG1        0.1430
      6 C           0.9968   -2.2948    0.0797 C.ar    1  LIG1        0.0679
      7 C          -0.4612   -2.4361    0.1437 C.ar    1  LIG1        0.2343
      8 O          -1.0265   -3.5234    0.2054 O.2     1  LIG1       -0.2831
      9 C           1.8282   -3.4198    0.0948 C.ar    1  LIG1       -0.0438
     10 C           3.2131   -3.2543    0.0302 C.ar    1  LIG1       -0.0193
     11 C           3.7446   -1.9686   -0.0487 C.ar    1  LIG1        0.1204
     12 C           2.9181   -0.8483   -0.0638 C.ar    1  LIG1        0.0229
     13 O           5.0904   -1.7617   -0.1142 O.3     1  LIG1       -0.5066
     14 C          -1.3147    1.2969    0.0223 C.ar    1  LIG1        0.0213
     15 C          -0.9244    2.2734   -0.9098 C.ar    1  LIG1       -0.0475
     16 C          -1.5488    3.5242   -0.9449 C.ar    1  LIG1       -0.0195
     17 C          -2.5648    3.8055   -0.0391 C.ar    1  LIG1        0.1169
     18 C          -2.9620    2.8606    0.8976 C.ar    1  LIG1       -0.0195
     19 C          -2.3365    1.6114    0.9309 C.ar    1  LIG1       -0.0475
     20 O          -3.2008    5.0111   -0.0358 O.3     1  LIG1       -0.5068
     21 H          -2.7916   -2.2946    0.1971 H       1  LIG1        0.2924
     22 H           1.4005   -4.4183    0.1562 H       1  LIG1        0.0627
     23 H           3.8545   -4.1306    0.0421 H       1  LIG1        0.0654
     24 H           3.3510    0.1462   -0.1246 H       1  LIG1        0.0691
     25 H           5.5452   -2.6201   -0.0882 H       1  LIG1        0.2921
     26 H          -0.1296    2.0628   -1.6225 H       1  LIG1        0.0626
     27 H          -1.2285    4.2563   -1.6790 H       1  LIG1        0.0654
     28 H          -3.7557    3.0922    1.6020 H       1  LIG1        0.0654
     29 H          -2.6570    0.8862    1.6754 H       1  LIG1        0.0626
     30 H          -2.8280    5.5598   -0.7449 H       1  LIG1        0.2921
@<TRIPOS>BOND
     1     1     2    1
     2     2     3   ar
     3     3     4   ar
     4     4     5   ar
     5     5     6   ar
     6     6     7   ar
     7     2     7   ar
     8     7     8    2
     9     6     9   ar
    10     9    10   ar
    11    10    11   ar
    12    11    12   ar
    13     5    12   ar
    14    11    13    1
    15     3    14    1
    16    14    15   ar
    17    15    16   ar
    18    16    17   ar
    19    17    18   ar
    20    18    19   ar
    21    14    19   ar
    22    17    20    1
    23     1    21    1
    24     9    22    1
    25    10    23    1
    26    12    24    1
    27    13    25    1
    28    15    26    1
    29    16    27    1
    30    18    28    1
    31    19    29    1
    32    20    30    1
