@<TRIPOS>MOLECULE
NuBBE_1178
 95 102 0 0 0
SMALL
GASTEIGER

@<TRIPOS>ATOM
      1 O          -6.9189    2.1765    2.6143 O.3     1  LIG1       -0.5032
      2 C          -5.9489    2.3170    1.6695 C.ar    1  LIG1        0.1628
      3 C          -5.1878    3.4606    1.6727 C.ar    1  LIG1        0.2012
      4 O          -5.3958    4.4323    2.6164 O.3     1  LIG1       -0.5009
      5 C          -4.1950    3.6675    0.7028 C.ar    1  LIG1        0.1708
      6 O          -3.4982    4.8548    0.8440 O.3     1  LIG1       -0.5028
      7 C          -3.9121    2.7672   -0.3692 C.ar    1  LIG1        0.0458
      8 C          -2.9456    3.2076   -1.4800 C.ar    1  LIG1        0.0458
      9 C          -3.0067    4.5562   -1.9493 C.ar    1  LIG1        0.1708
     10 O          -4.0262    5.4299   -1.6249 O.3     1  LIG1       -0.5028
     11 C          -2.0346    5.1429   -2.7699 C.ar    1  LIG1        0.2012
     12 O          -2.1317    6.4619   -3.1282 O.3     1  LIG1       -0.5009
     13 C          -0.9535    4.4156   -3.2043 C.ar    1  LIG1        0.1628
     14 O           0.0209    4.9944   -3.9569 O.3     1  LIG1       -0.5032
     15 C          -0.8852    3.0768   -2.8984 C.ar    1  LIG1       -0.0017
     16 C          -1.8791    2.4721   -2.0832 C.ar    1  LIG1        0.0740
     17 C          -1.7141    1.0146   -2.0869 C.2     1  LIG1        0.3405
     18 O          -0.6713    0.6514   -1.3061 O.3     1  LIG1       -0.4501
     19 C          -0.6852   -0.7086   -0.8331 C.3     1  LIG1        0.1834
     20 C           0.7027   -1.3811   -1.0708 C.3     1  LIG1        0.1830
     21 C           0.9997   -1.3871   -2.6223 C.3     1  LIG1        0.1735
     22 O           2.3883   -1.0269   -2.8170 O.3     1  LIG1       -0.4510
     23 C           0.7056   -2.6724   -3.4522 C.3     1  LIG1        0.1249
     24 H          -0.3112   -3.0165   -3.2321 H       1  LIG1        0.0684
     25 C           1.7044   -3.7488   -3.1440 C.ar    1  LIG1        0.0444
     26 C           1.4667   -5.1102   -3.3047 C.ar    1  LIG1        0.1687
     27 O           0.4547   -5.5922   -4.0843 O.3     1  LIG1       -0.5030
     28 C           2.2619   -6.0331   -2.6291 C.ar    1  LIG1        0.2016
     29 O           2.0367   -7.3761   -2.7587 O.3     1  LIG1       -0.5009
     30 C           3.2158   -5.5973   -1.7137 C.ar    1  LIG1        0.1708
     31 O           3.8727   -6.5083   -0.9364 O.3     1  LIG1       -0.5028
     32 C           3.4480   -4.2322   -1.5476 C.ar    1  LIG1        0.0462
     33 C           3.8552   -3.6540   -0.2534 C.ar    1  LIG1        0.0458
     34 C           5.1813   -3.6008    0.1898 C.ar    1  LIG1        0.1708
     35 O           6.2252   -4.1933   -0.4722 O.3     1  LIG1       -0.5028
     36 C           5.4934   -2.9342    1.3738 C.ar    1  LIG1        0.2012
     37 O           6.7901   -2.8745    1.8133 O.3     1  LIG1       -0.5009
     38 C           4.4987   -2.3415    2.1473 C.ar    1  LIG1        0.1628
     39 O           4.8217   -1.7241    3.3229 O.3     1  LIG1       -0.5032
     40 C           3.1679   -2.4112    1.7668 C.ar    1  LIG1       -0.0017
     41 C           2.8429   -3.0505    0.5657 C.ar    1  LIG1        0.0740
     42 C           2.8546   -3.3547   -2.4622 C.ar    1  LIG1        0.0798
     43 C           3.3348   -1.9539   -2.5554 C.2     1  LIG1        0.3408
     44 O           4.5154   -1.6694   -2.4417 O.2     1  LIG1       -0.2449
     45 O           0.8018   -2.4563   -4.8567 O.3     1  LIG1       -0.3832
     46 O           0.6246   -2.7423   -0.5484 O.3     1  LIG1       -0.4501
     47 C           1.4072   -3.3813    0.3581 C.2     1  LIG1        0.3405
     48 O           0.9589   -4.3334    0.9887 O.2     1  LIG1       -0.2449
     49 C          -1.1545   -0.6468    0.6425 C.3     1  LIG1        0.1774
     50 O          -0.2443    0.0870    1.5298 O.3     1  LIG1       -0.4505
     51 C          -0.2543    1.4523    1.5487 C.2     1  LIG1        0.3399
     52 C           0.3268    1.9550    2.8113 C.ar    1  LIG1        0.0661
     53 C           1.3547    1.2669    3.4677 C.ar    1  LIG1       -0.0023
     54 C           1.8315    1.7647    4.6738 C.ar    1  LIG1        0.1628
     55 O           2.8346    1.1421    5.3616 O.3     1  LIG1       -0.5032
     56 C           1.2873    2.9232    5.2234 C.ar    1  LIG1        0.2006
     57 O           1.7440    3.4054    6.4194 O.3     1  LIG1       -0.5009
     58 C           0.2725    3.6057    4.5664 C.ar    1  LIG1        0.1628
     59 O          -0.2654    4.7333    5.1144 O.3     1  LIG1       -0.5032
     60 C          -0.2085    3.1386    3.3533 C.ar    1  LIG1       -0.0023
     61 O          -0.7996    2.1945    0.7629 O.2     1  LIG1       -0.2449
     62 C          -2.6137   -0.1455    0.8157 C.3     1  LIG1        0.1333
     63 O          -3.4681   -0.5491   -0.2836 O.3     1  LIG1       -0.4573
     64 C          -4.3522    0.2825   -0.9189 C.2     1  LIG1        0.3401
     65 O          -5.0824   -0.0875   -1.8269 O.2     1  LIG1       -0.2449
     66 O          -2.3547    0.2683   -2.8039 O.2     1  LIG1       -0.2449
     67 C          -4.6281    1.5491   -0.2314 C.ar    1  LIG1        0.0740
     68 C          -5.6602    1.3462    0.7374 C.ar    1  LIG1       -0.0017
     69 H          -7.4235    1.3626    2.4332 H       1  LIG1        0.2923
     70 H          -6.1524    4.1058    3.1488 H       1  LIG1        0.2924
     71 H          -3.7756    5.2108    1.7188 H       1  LIG1        0.2923
     72 H          -4.0180    5.4656   -0.6461 H       1  LIG1        0.2923
     73 H          -2.9943    6.7431   -2.7573 H       1  LIG1        0.2924
     74 H          -0.2452    5.9342   -4.0256 H       1  LIG1        0.2923
     75 H          -0.0650    2.4889   -3.3047 H       1  LIG1        0.0664
     76 H          -1.4133   -1.3225   -1.3813 H       1  LIG1        0.0812
     77 H           1.4773   -0.8221   -0.5340 H       1  LIG1        0.0812
     78 H           0.4616   -0.5645   -3.1021 H       1  LIG1        0.0803
     79 H           0.1668   -4.8766   -4.6869 H       1  LIG1        0.2923
     80 H           1.2692   -7.4422   -3.3652 H       1  LIG1        0.2924
     81 H           3.4844   -7.3759   -1.1791 H       1  LIG1        0.2923
     82 H           5.8543   -4.8309   -1.1118 H       1  LIG1        0.2923
     83 H           7.3010   -3.3361    1.1137 H       1  LIG1        0.2924
     84 H           5.7895   -1.8670    3.4074 H       1  LIG1        0.2923
     85 H           2.3931   -2.0343    2.4254 H       1  LIG1        0.0664
     86 H           1.3934   -1.6951   -5.0088 H       1  LIG1        0.2104
     87 H          -1.1425   -1.6736    1.0260 H       1  LIG1        0.0808
     88 H           1.7695    0.3629    3.0364 H       1  LIG1        0.0663
     89 H           3.1492    0.3777    4.8423 H       1  LIG1        0.2923
     90 H           2.4499    2.7773    6.6784 H       1  LIG1        0.2924
     91 H           0.2251    4.8637    5.9520 H       1  LIG1        0.2923
     92 H          -1.0012    3.6829    2.8437 H       1  LIG1        0.0663
     93 H          -2.6459    0.9265    0.9728 H       1  LIG1        0.0736
     94 H          -3.0276   -0.5774    1.7340 H       1  LIG1        0.0736
     95 H          -6.1956    0.3973    0.7533 H       1  LIG1        0.0664
@<TRIPOS>BOND
     1     1     2    1
     2     2     3   ar
     3     3     4    1
     4     3     5   ar
     5     5     6    1
     6     5     7   ar
     7     7     8    1
     8     8     9   ar
     9     9    10    1
    10     9    11   ar
    11    11    12    1
    12    11    13   ar
    13    13    14    1
    14    13    15   ar
    15    15    16   ar
    16     8    16   ar
    17    16    17    1
    18    17    18    1
    19    18    19    1
    20    19    20    1
    21    20    21    1
    22    21    22    1
    23    21    23    1
    24    23    24    1
    25    23    25    1
    26    25    26   ar
    27    26    27    1
    28    26    28   ar
    29    28    29    1
    30    28    30   ar
    31    30    31    1
    32    30    32   ar
    33    32    33    1
    34    33    34   ar
    35    34    35    1
    36    34    36   ar
    37    36    37    1
    38    36    38   ar
    39    38    39    1
    40    38    40   ar
    41    40    41   ar
    42    33    41   ar
    43    32    42   ar
    44    25    42   ar
    45    42    43    1
    46    22    43    1
    47    43    44    2
    48    23    45    1
    49    20    46    1
    50    46    47    1
    51    41    47    1
    52    47    48    2
    53    19    49    1
    54    49    50    1
    55    50    51    1
    56    51    52    1
    57    52    53   ar
    58    53    54   ar
    59    54    55    1
    60    54    56   ar
    61    56    57    1
    62    56    58   ar
    63    58    59    1
    64    58    60   ar
    65    52    60   ar
    66    51    61    2
    67    49    62    1
    68    62    63    1
    69    63    64    1
    70    64    65    2
    71    17    66    2
    72     7    67   ar
    73    64    67    1
    74    67    68   ar
    75     2    68   ar
    76     1    69    1
    77     4    70    1
    78     6    71    1
    79    10    72    1
    80    12    73    1
    81    14    74    1
    82    15    75    1
    83    19    76    1
    84    20    77    1
    85    21    78    1
    86    27    79    1
    87    29    80    1
    88    31    81    1
    89    35    82    1
    90    37    83    1
    91    39    84    1
    92    40    85    1
    93    45    86    1
    94    49    87    1
    95    53    88    1
    96    55    89    1
    97    57    90    1
    98    59    91    1
    99    60    92    1
   100    62    93    1
   101    62    94    1
   102    68    95    1
