REMARK  Name = NuBBE_1586
REMARK  9 active torsions:
REMARK  status: ('A' for Active; 'I' for Inactive)
REMARK    1  A    between atoms: C_1  and  O_2
REMARK    2  A    between atoms: O_2  and  C_3
REMARK    3  A    between atoms: C_4  and  O_5
REMARK    4  A    between atoms: O_5  and  C_6
REMARK    5  A    between atoms: C_8  and  O_9
REMARK    6  A    between atoms: O_9  and  C_10
REMARK    7  A    between atoms: C_14  and  C_15
REMARK    8  A    between atoms: C_18  and  O_19
REMARK    9  A    between atoms: O_19  and  C_20
REMARK                            x       y       z     vdW  Elec       q    Type
REMARK                         _______ _______ _______ _____ _____    ______ ____
ROOT
ATOM      1  C   LIG A   1       0.370  -2.045   0.226  0.00  0.00    +0.205 A 
ATOM      2  C   LIG A   1       1.098  -2.973   0.987  0.00  0.00    +0.169 A 
ATOM      3  C   LIG A   1       1.786  -2.537   2.127  0.00  0.00    +0.096 A 
ATOM      4  C   LIG A   1       1.694  -1.225   2.588  0.00  0.00    +0.138 A 
ATOM      5  C   LIG A   1       0.888  -0.324   1.879  0.00  0.00    +0.109 A 
ATOM      6  C   LIG A   1       0.296  -0.712   0.669  0.00  0.00    +0.188 A 
ATOM      7  O   LIG A   1      -0.379   0.188  -0.129  0.00  0.00    -0.451 OA
ATOM      8  C   LIG A   1      -0.290   1.543   0.155  0.00  0.00    +0.139 A 
ATOM      9  C   LIG A   1       0.161   1.995   1.342  0.00  0.00    +0.098 A 
ATOM     10  C   LIG A   1       0.600   1.033   2.358  0.00  0.00    +0.197 A 
ATOM     11  O   LIG A   1       0.646   1.377   3.538  0.00  0.00    -0.287 OA
ENDROOT
BRANCH   8  12
ATOM     12  C   LIG A   1      -0.787   2.445  -0.916  0.00  0.00    +0.018 A 
ATOM     13  C   LIG A   1      -0.804   3.844  -0.778  0.00  0.00    +0.015 A 
ATOM     14  C   LIG A   1      -1.278   4.675  -1.797  0.00  0.00    +0.046 A 
ATOM     15  C   LIG A   1      -1.765   4.129  -2.980  0.00  0.00    +0.120 A 
ATOM     16  C   LIG A   1      -1.740   2.747  -3.150  0.00  0.00    +0.046 A 
ATOM     17  C   LIG A   1      -1.261   1.916  -2.129  0.00  0.00    +0.015 A 
BRANCH  15  18
ATOM     18  O   LIG A   1      -2.197   5.029  -3.913  0.00  0.00    -0.495 OA
ATOM     19  C   LIG A   1      -3.241   4.560  -4.758  0.00  0.00    +0.277 C 
ENDBRANCH  15  18
ENDBRANCH   8  12
BRANCH   1  21
ATOM     20  C   LIG A   1      -0.776  -3.610  -1.162  0.00  0.00    +0.277 C 
ATOM     21  O   LIG A   1      -0.270  -2.296  -0.963  0.00  0.00    -0.488 OA
ENDBRANCH   1  21
BRANCH   2  22
ATOM     22  O   LIG A   1       1.200  -4.272   0.561  0.00  0.00    -0.491 OA
ATOM     23  C   LIG A   1       1.372  -5.252   1.585  0.00  0.00    +0.277 C 
ENDBRANCH   2  22
BRANCH   4  24
ATOM     24  O   LIG A   1       2.398  -0.763   3.670  0.00  0.00    -0.494 OA
ATOM     25  C   LIG A   1       3.270  -1.686   4.319  0.00  0.00    +0.277 C 
ENDBRANCH   4  24
TORSDOF 5
