@<TRIPOS>MOLECULE
NuBBE_1157
 57 57 0 0 0
SMALL
GASTEIGER

@<TRIPOS>ATOM
      1 O          -7.5309   -0.6067   -5.0101 O.2     1  LIG1       -0.2509
      2 C          -7.6652   -1.3262   -4.0367 C.2     1  LIG1        0.3068
      3 O          -8.4997   -2.4059   -3.9527 O.3     1  LIG1       -0.4679
      4 C          -9.4227   -2.5107   -5.0347 C.3     1  LIG1        0.0817
      5 C          -6.9837   -1.1173   -2.7003 C.3     1  LIG1        0.0449
      6 C          -5.4735   -1.1463   -2.8525 C.3     1  LIG1       -0.0430
      7 C          -4.7575   -0.9485   -1.5149 C.3     1  LIG1       -0.0526
      8 C          -3.2400   -0.9869   -1.7120 C.3     1  LIG1       -0.0530
      9 C          -2.4865   -0.7908   -0.3958 C.3     1  LIG1       -0.0531
     10 C          -0.9711   -0.8360   -0.6099 C.3     1  LIG1       -0.0531
     11 C          -0.2094   -0.6444    0.7040 C.3     1  LIG1       -0.0531
     12 C           1.3010   -0.6822    0.4757 C.3     1  LIG1       -0.0531
     13 C           2.0791   -0.4978    1.7791 C.3     1  LIG1       -0.0531
     14 C           3.5806   -0.5433    1.5026 C.3     1  LIG1       -0.0530
     15 C           4.3993   -0.3541    2.7780 C.3     1  LIG1       -0.0528
     16 C           5.9112   -0.3550    2.5179 C.3     1  LIG1       -0.0491
     17 C           6.3931    0.7483    1.5640 C.3     1  LIG1       -0.0277
     18 C           6.0755    2.1394    2.0566 C.ar    1  LIG1       -0.0474
     19 C           6.6086    2.6016    3.2674 C.ar    1  LIG1       -0.0586
     20 C           6.2867    3.8717    3.7447 C.ar    1  LIG1       -0.0615
     21 C           5.4305    4.6941    3.0160 C.ar    1  LIG1       -0.0617
     22 C           4.8979    4.2481    1.8080 C.ar    1  LIG1       -0.0615
     23 C           5.2223    2.9786    1.3271 C.ar    1  LIG1       -0.0586
     24 H         -10.1093   -3.3293   -4.8009 H       1  LIG1        0.0661
     25 H          -8.9136   -2.7351   -5.9765 H       1  LIG1        0.0661
     26 H         -10.0077   -1.5893   -5.1158 H       1  LIG1        0.0661
     27 H          -7.3114   -1.8897   -1.9945 H       1  LIG1        0.0377
     28 H          -7.3342   -0.1556   -2.3034 H       1  LIG1        0.0377
     29 H          -5.1594   -0.3646   -3.5546 H       1  LIG1        0.0270
     30 H          -5.1725   -2.1046   -3.2930 H       1  LIG1        0.0270
     31 H          -5.0616   -1.7323   -0.8102 H       1  LIG1        0.0265
     32 H          -5.0508    0.0128   -1.0754 H       1  LIG1        0.0265
     33 H          -2.9473   -0.2020   -2.4202 H       1  LIG1        0.0265
     34 H          -2.9553   -1.9471   -2.1598 H       1  LIG1        0.0265
     35 H          -2.7803   -1.5710    0.3164 H       1  LIG1        0.0265
     36 H          -2.7669    0.1738    0.0437 H       1  LIG1        0.0265
     37 H          -0.6770   -0.0549   -1.3220 H       1  LIG1        0.0265
     38 H          -0.6916   -1.7987   -1.0555 H       1  LIG1        0.0265
     39 H          -0.4918   -1.4334    1.4111 H       1  LIG1        0.0265
     40 H          -0.4882    0.3144    1.1571 H       1  LIG1        0.0265
     41 H           1.5857    0.1079   -0.2305 H       1  LIG1        0.0265
     42 H           1.5811   -1.6387    0.0175 H       1  LIG1        0.0265
     43 H           1.8067   -1.2802    2.4970 H       1  LIG1        0.0265
     44 H           1.8180    0.4668    2.2317 H       1  LIG1        0.0265
     45 H           3.8159    0.2422    0.7776 H       1  LIG1        0.0265
     46 H           3.8468   -1.5000    1.0374 H       1  LIG1        0.0265
     47 H           4.1668   -1.1632    3.4813 H       1  LIG1        0.0265
     48 H           4.1058    0.5782    3.2747 H       1  LIG1        0.0265
     49 H           6.2062   -1.3288    2.1080 H       1  LIG1        0.0268
     50 H           6.4265   -0.2625    3.4821 H       1  LIG1        0.0268
     51 H           5.9684    0.5914    0.5652 H       1  LIG1        0.0313
     52 H           7.4791    0.6662    1.4315 H       1  LIG1        0.0313
     53 H           7.2692    1.9671    3.8535 H       1  LIG1        0.0620
     54 H           6.7013    4.2156    4.6882 H       1  LIG1        0.0618
     55 H           5.1778    5.6822    3.3901 H       1  LIG1        0.0618
     56 H           4.2257    4.8871    1.2416 H       1  LIG1        0.0618
     57 H           4.7924    2.6456    0.3851 H       1  LIG1        0.0620
@<TRIPOS>BOND
     1     1     2    2
     2     2     3    1
     3     3     4    1
     4     2     5    1
     5     5     6    1
     6     6     7    1
     7     7     8    1
     8     8     9    1
     9     9    10    1
    10    10    11    1
    11    11    12    1
    12    12    13    1
    13    13    14    1
    14    14    15    1
    15    15    16    1
    16    16    17    1
    17    17    18    1
    18    18    19   ar
    19    19    20   ar
    20    20    21   ar
    21    21    22   ar
    22    22    23   ar
    23    18    23   ar
    24     4    24    1
    25     4    25    1
    26     4    26    1
    27     5    27    1
    28     5    28    1
    29     6    29    1
    30     6    30    1
    31     7    31    1
    32     7    32    1
    33     8    33    1
    34     8    34    1
    35     9    35    1
    36     9    36    1
    37    10    37    1
    38    10    38    1
    39    11    39    1
    40    11    40    1
    41    12    41    1
    42    12    42    1
    43    13    43    1
    44    13    44    1
    45    14    45    1
    46    14    46    1
    47    15    47    1
    48    15    48    1
    49    16    49    1
    50    16    50    1
    51    17    51    1
    52    17    52    1
    53    19    53    1
    54    20    54    1
    55    21    55    1
    56    22    56    1
    57    23    57    1
