@<TRIPOS>MOLECULE
NuBBE_1451
 49 53 0 0 0
SMALL
GASTEIGER

@<TRIPOS>ATOM
      1 O          -2.5773   -0.8804   -0.4736 O.2     1  LIG1       -0.2864
      2 C          -1.4116   -0.6199   -0.2148 C.ar    1  LIG1        0.2007
      3 C          -0.3688   -1.6417   -0.4187 C.ar    1  LIG1        0.0651
      4 C          -0.6837   -2.8760   -1.0189 C.ar    1  LIG1       -0.0439
      5 C           0.3225   -3.8137   -1.2612 C.ar    1  LIG1       -0.0187
      6 C           1.6137   -3.4863   -0.8965 C.ar    1  LIG1        0.1282
      7 C           1.9228   -2.2880   -0.2757 C.ar    1  LIG1        0.0410
      8 C           3.3640   -2.2640    0.0626 C.3     1  LIG1        0.0204
      9 C           3.8436   -3.4804   -0.7529 C.3     1  LIG1        0.1249
     10 C           4.8734   -4.3251   -0.0276 C.2     1  LIG1       -0.0395
     11 C           4.3596   -5.4386    0.8441 C.3     1  LIG1       -0.0406
     12 C           6.1925   -4.1025   -0.1639 C.2     1  LIG1       -0.0962
     13 O           2.6936   -4.3014   -1.0996 O.3     1  LIG1       -0.4838
     14 C           0.9365   -1.3510   -0.0300 C.ar    1  LIG1        0.1457
     15 O           1.2865   -0.1807    0.5770 O.2     1  LIG1       -0.4550
     16 C           0.3429    0.8283    0.6344 C.ar    1  LIG1        0.1543
     17 C          -0.9483    0.7102    0.2745 C.ar    1  LIG1        0.0745
     18 C          -1.7743    1.9305    0.3444 C.ar    1  LIG1        0.0345
     19 C          -3.1705    1.9384    0.2259 C.ar    1  LIG1       -0.0049
     20 C          -3.8882    3.1439    0.1654 C.ar    1  LIG1        0.1623
     21 O          -5.2553    3.1994    0.0322 O.3     1  LIG1       -0.4914
     22 C          -5.8550    2.1185   -0.6751 C.3     1  LIG1        0.0790
     23 C          -3.2116    4.3721    0.2702 C.ar    1  LIG1        0.1650
     24 O          -3.9768    5.5079    0.1825 O.3     1  LIG1       -0.4913
     25 C          -3.2967    6.7549    0.2484 C.3     1  LIG1        0.0790
     26 C          -1.8265    4.3701    0.4294 C.ar    1  LIG1        0.0260
     27 C          -1.1237    3.1652    0.4713 C.ar    1  LIG1        0.1327
     28 O           0.2371    3.2860    0.5817 O.3     1  LIG1       -0.4836
     29 C           0.8927    2.1362    1.1229 C.3     1  LIG1        0.1477
     30 H          -1.7093   -3.0979   -1.3075 H       1  LIG1        0.0627
     31 H           0.1013   -4.7663   -1.7306 H       1  LIG1        0.0654
     32 H           3.5075   -2.3897    1.1408 H       1  LIG1        0.0355
     33 H           3.8611   -1.3465   -0.2680 H       1  LIG1        0.0355
     34 H           4.2643   -3.1323   -1.7076 H       1  LIG1        0.0784
     35 H           3.8228   -6.1799    0.2426 H       1  LIG1        0.0275
     36 H           3.6800   -5.0471    1.6074 H       1  LIG1        0.0275
     37 H           5.1707   -5.9651    1.3581 H       1  LIG1        0.0275
     38 H           6.5767   -3.3039   -0.7915 H       1  LIG1        0.0535
     39 H           6.9268   -4.7156    0.3514 H       1  LIG1        0.0535
     40 H          -3.7093    0.9986    0.1801 H       1  LIG1        0.0663
     41 H          -5.9176    1.2259   -0.0448 H       1  LIG1        0.0660
     42 H          -5.3257    1.9042   -1.6103 H       1  LIG1        0.0660
     43 H          -6.8772    2.4133   -0.9318 H       1  LIG1        0.0660
     44 H          -4.0256    7.5484    0.0602 H       1  LIG1        0.0660
     45 H          -2.5225    6.8343   -0.5227 H       1  LIG1        0.0660
     46 H          -2.8763    6.9128    1.2472 H       1  LIG1        0.0660
     47 H          -1.2565    5.2882    0.5148 H       1  LIG1        0.0692
     48 H           0.8491    2.1834    2.2176 H       1  LIG1        0.0779
     49 H           1.9467    2.2234    0.8360 H       1  LIG1        0.0779
@<TRIPOS>BOND
     1     1     2    2
     2     2     3   ar
     3     3     4   ar
     4     4     5   ar
     5     5     6   ar
     6     6     7   ar
     7     7     8    1
     8     8     9    1
     9     9    10    1
    10    10    11    1
    11    10    12    2
    12     9    13    1
    13     6    13    1
    14     7    14   ar
    15     3    14   ar
    16    14    15   ar
    17    15    16   ar
    18    16    17   ar
    19     2    17   ar
    20    17    18    1
    21    18    19   ar
    22    19    20   ar
    23    20    21    1
    24    21    22    1
    25    20    23   ar
    26    23    24    1
    27    24    25    1
    28    23    26   ar
    29    18    27   ar
    30    26    27   ar
    31    27    28    1
    32    28    29    1
    33    16    29    1
    34     4    30    1
    35     5    31    1
    36     8    32    1
    37     8    33    1
    38     9    34    1
    39    11    35    1
    40    11    36    1
    41    11    37    1
    42    12    38    1
    43    12    39    1
    44    19    40    1
    45    22    41    1
    46    22    42    1
    47    22    43    1
    48    25    44    1
    49    25    45    1
    50    25    46    1
    51    26    47    1
    52    29    48    1
    53    29    49    1
