@<TRIPOS>MOLECULE
NuBBE_1340
 35 36 0 0 0
SMALL
GASTEIGER

@<TRIPOS>ATOM
      1 C          -2.7515    1.2419   -1.1535 C.3     1  LIG1       -0.0581
      2 C          -1.4350    0.8839   -1.8531 C.3     1  LIG1       -0.0147
      3 C          -0.8784   -0.4095   -1.2902 C.ar    1  LIG1       -0.0368
      4 C          -1.3114   -1.6342   -1.8241 C.ar    1  LIG1       -0.0575
      5 C          -0.8313   -2.8379   -1.3144 C.ar    1  LIG1       -0.0585
      6 C           0.0953   -2.8365   -0.2713 C.ar    1  LIG1       -0.0499
      7 C           0.5992   -4.1286    0.3013 C.3     1  LIG1       -0.0397
      8 C           0.5104   -1.6114    0.2764 C.ar    1  LIG1       -0.0511
      9 C           0.0371   -0.3826   -0.2146 C.ar    1  LIG1       -0.0182
     10 C           0.4736    0.9285    0.3545 C.2     1  LIG1       -0.0413
     11 C           1.1301    0.9818    1.7307 C.3     1  LIG1       -0.0212
     12 C           2.6568    0.9472    1.6117 C.3     1  LIG1       -0.0586
     13 C           0.7011    2.1934    2.5728 C.3     1  LIG1       -0.0586
     14 C           0.2777    2.0337   -0.3940 C.2     1  LIG1       -0.0794
     15 C          -0.4020    2.0140   -1.7313 C.3     1  LIG1       -0.0276
     16 H          -3.4966    0.4503   -1.2914 H       1  LIG1        0.0236
     17 H          -3.1696    2.1660   -1.5668 H       1  LIG1        0.0236
     18 H          -2.6196    1.3838   -0.0751 H       1  LIG1        0.0236
     19 H          -1.6458    0.7494   -2.9224 H       1  LIG1        0.0349
     20 H          -2.0306   -1.6525   -2.6396 H       1  LIG1        0.0621
     21 H          -1.1834   -3.7749   -1.7391 H       1  LIG1        0.0620
     22 H           0.5590   -4.9309   -0.4429 H       1  LIG1        0.0278
     23 H          -0.0091   -4.4178    1.1638 H       1  LIG1        0.0278
     24 H           1.6431   -4.0322    0.6179 H       1  LIG1        0.0278
     25 H           1.2294   -1.6394    1.0904 H       1  LIG1        0.0626
     26 H           0.8087    0.1111    2.3151 H       1  LIG1        0.0344
     27 H           3.0381    1.8356    1.0956 H       1  LIG1        0.0235
     28 H           2.9979    0.0669    1.0571 H       1  LIG1        0.0235
     29 H           3.1199    0.9130    2.6039 H       1  LIG1        0.0235
     30 H           1.0951    3.1348    2.1755 H       1  LIG1        0.0235
     31 H           1.0744    2.0932    3.5983 H       1  LIG1        0.0235
     32 H          -0.3906    2.2701    2.6240 H       1  LIG1        0.0235
     33 H           0.6233    3.0048   -0.0529 H       1  LIG1        0.0575
     34 H           0.3714    1.9035   -2.5023 H       1  LIG1        0.0313
     35 H          -0.8868    2.9811   -1.9102 H       1  LIG1        0.0313
@<TRIPOS>BOND
     1     1     2    1
     2     2     3    1
     3     3     4   ar
     4     4     5   ar
     5     5     6   ar
     6     6     7    1
     7     6     8   ar
     8     8     9   ar
     9     3     9   ar
    10     9    10    1
    11    10    11    1
    12    11    12    1
    13    11    13    1
    14    10    14    2
    15    14    15    1
    16     2    15    1
    17     1    16    1
    18     1    17    1
    19     1    18    1
    20     2    19    1
    21     4    20    1
    22     5    21    1
    23     7    22    1
    24     7    23    1
    25     7    24    1
    26     8    25    1
    27    11    26    1
    28    12    27    1
    29    12    28    1
    30    12    29    1
    31    13    30    1
    32    13    31    1
    33    13    32    1
    34    14    33    1
    35    15    34    1
    36    15    35    1
