@<TRIPOS>MOLECULE
NuBBE_2042
 56 58 0 0 0
SMALL
GASTEIGER

@<TRIPOS>ATOM
      1 O          -1.2334    2.2299    2.8480 O.3     1  LIG1       -0.3647
      2 C          -1.1231    1.7426    4.1743 C.3     1  LIG1        0.0381
      3 C          -0.2341    1.8035    1.9459 C.3     1  LIG1        0.1485
      4 C          -0.0689    0.2647    1.7781 C.3     1  LIG1        0.0034
      5 H          -1.0377   -0.2055    1.9712 H       1  LIG1        0.0339
      6 C           0.9276   -0.3854    2.7413 C.3     1  LIG1       -0.0585
      7 C           0.3780    0.0441    0.2962 C.3     1  LIG1        0.0026
      8 H           1.4057   -0.3481    0.2950 H       1  LIG1        0.0360
      9 C           0.3707    1.4192   -0.3885 C.3     1  LIG1        0.0576
     10 H           0.0293    1.4017   -1.4259 H       1  LIG1        0.0413
     11 C          -0.5971    2.1411    0.4996 C.2     1  LIG1        0.1754
     12 O          -1.4332    2.9432    0.1094 O.2     1  LIG1       -0.2936
     13 C           1.6903    2.2075   -0.2267 C.3     1  LIG1        0.0868
     14 H           2.5185    1.5501   -0.5269 H       1  LIG1        0.0647
     15 C           1.9787    2.7768    1.1529 C.2     1  LIG1       -0.0379
     16 C           1.0596    2.5719    2.1447 C.2     1  LIG1       -0.0432
     17 C           3.2812    3.4846    1.4962 C.3     1  LIG1       -0.0113
     18 C           3.9713    4.2975    0.4346 C.2     1  LIG1       -0.0870
     19 C           4.3092    3.9311   -0.8091 C.2     1  LIG1       -0.1023
     20 O           1.6035    3.2634   -1.1765 O.3     1  LIG1       -0.3868
     21 C          -0.4573   -0.9461   -0.5167 C.ar    1  LIG1       -0.0360
     22 C           0.1938   -1.7053   -1.4972 C.ar    1  LIG1       -0.0126
     23 C          -0.4840   -2.6883   -2.2339 C.ar    1  LIG1        0.1654
     24 O           0.1228   -3.4577   -3.2024 O.3     1  LIG1       -0.4913
     25 C           1.4775   -3.1638   -3.5206 C.3     1  LIG1        0.0790
     26 C          -1.8549   -2.9479   -1.9946 C.ar    1  LIG1        0.2035
     27 C          -2.5379   -2.1401   -1.0725 C.ar    1  LIG1        0.1654
     28 C          -1.8422   -1.1227   -0.3783 C.ar    1  LIG1       -0.0126
     29 O          -3.8779   -2.1787   -0.7847 O.3     1  LIG1       -0.4913
     30 C          -4.3931   -3.4294   -0.3319 C.3     1  LIG1        0.0790
     31 O          -2.3214   -4.0983   -2.5750 O.3     1  LIG1       -0.4885
     32 C          -3.5678   -4.1231   -3.2471 C.3     1  LIG1        0.0791
     33 H          -1.8498    2.2709    4.7944 H       1  LIG1        0.0524
     34 H          -0.1271    1.9287    4.5887 H       1  LIG1        0.0524
     35 H          -1.3586    0.6773    4.2145 H       1  LIG1        0.0524
     36 H           1.9434    0.0010    2.6098 H       1  LIG1        0.0234
     37 H           0.9594   -1.4656    2.5662 H       1  LIG1        0.0234
     38 H           0.6500   -0.2353    3.7867 H       1  LIG1        0.0234
     39 H           1.2562    2.9547    3.1439 H       1  LIG1        0.0605
     40 H           3.9935    2.7591    1.9060 H       1  LIG1        0.0353
     41 H           3.0726    4.1863    2.3161 H       1  LIG1        0.0353
     42 H           4.2781    5.2955    0.7481 H       1  LIG1        0.0569
     43 H           4.0786    2.9543   -1.2186 H       1  LIG1        0.0532
     44 H           4.7827    4.6297   -1.4908 H       1  LIG1        0.0532
     45 H           1.1291    4.0034   -0.7606 H       1  LIG1        0.2102
     46 H           1.2511   -1.5236   -1.6642 H       1  LIG1        0.0658
     47 H           2.1295   -3.3454   -2.6604 H       1  LIG1        0.0660
     48 H           1.5887   -2.1377   -3.8912 H       1  LIG1        0.0660
     49 H           1.7918   -3.8401   -4.3211 H       1  LIG1        0.0660
     50 H          -2.4154   -0.4893    0.2966 H       1  LIG1        0.0658
     51 H          -3.6819   -4.2569   -0.3875 H       1  LIG1        0.0660
     52 H          -5.2771   -3.6654   -0.9353 H       1  LIG1        0.0660
     53 H          -4.7389   -3.3235    0.6980 H       1  LIG1        0.0660
     54 H          -4.3491   -3.5134   -2.8011 H       1  LIG1        0.0660
     55 H          -3.9065   -5.1670   -3.2258 H       1  LIG1        0.0660
     56 H          -3.4539   -3.8302   -4.2916 H       1  LIG1        0.0660
@<TRIPOS>BOND
     1     1     2    1
     2     1     3    1
     3     3     4    1
     4     4     7    1
     5     7     8    1
     6     7     9    1
     7     9    10    1
     8     9    11    1
     9     3    11    1
    10    11    12    2
    11     9    13    1
    12    13    15    1
    13    15    16    2
    14     3    16    1
    15    15    17    1
    16    17    18    1
    17    18    19    2
    18     7    21    1
    19    21    22   ar
    20    22    23   ar
    21    23    24    1
    22    24    25    1
    23    23    26   ar
    24    26    27   ar
    25    27    28   ar
    26    21    28   ar
    27    27    29    1
    28    29    30    1
    29    26    31    1
    30    31    32    1
    31    13    20    1
    32    13    14    1
    33     4     6    1
    34     4     5    1
    35     2    33    1
    36     2    34    1
    37     2    35    1
    38     6    36    1
    39     6    37    1
    40     6    38    1
    41    16    39    1
    42    17    40    1
    43    17    41    1
    44    18    42    1
    45    19    43    1
    46    19    44    1
    47    20    45    1
    48    22    46    1
    49    25    47    1
    50    25    48    1
    51    25    49    1
    52    28    50    1
    53    30    51    1
    54    30    52    1
    55    30    53    1
    56    32    54    1
    57    32    55    1
    58    32    56    1
