REMARK  Name = NuBBE_1261
REMARK  24 active torsions:
REMARK  status: ('A' for Active; 'I' for Inactive)
REMARK    1  A    between atoms: C_3  and  C_4
REMARK    2  A    between atoms: C_4  and  C_5
REMARK    3  A    between atoms: C_4  and  C_8
REMARK    4  A    between atoms: C_5  and  C_6
REMARK    5  A    between atoms: C_6  and  C_7
REMARK    6  A    between atoms: C_8  and  C_9
REMARK    7  A    between atoms: C_9  and  O_10
REMARK    8  A    between atoms: O_10  and  C_11
REMARK    9  A    between atoms: C_15  and  C_17
REMARK   10  A    between atoms: C_18  and  C_20
REMARK   11  A    between atoms: C_24  and  O_25
REMARK   12  A    between atoms: O_25  and  C_26
REMARK   13  A    between atoms: C_27  and  C_28
REMARK   14  A    between atoms: C_27  and  C_33
REMARK   15  A    between atoms: C_28  and  C_29
REMARK   16  A    between atoms: C_30  and  C_31
REMARK   17  A    between atoms: C_30  and  C_32
REMARK   18  A    between atoms: C_33  and  C_34
REMARK   19  A    between atoms: C_34  and  C_35
REMARK   20  A    between atoms: C_34  and  C_40
REMARK   21  A    between atoms: C_35  and  C_36
REMARK   22  A    between atoms: C_36  and  C_37
REMARK   23  A    between atoms: C_37  and  C_38
REMARK   24  A    between atoms: C_40  and  C_41
REMARK                            x       y       z     vdW  Elec       q    Type
REMARK                         _______ _______ _______ _____ _____    ______ ____
ROOT
ATOM      1  O   LIG A   1      -0.060   0.877   1.340  0.00  0.00    -0.291 OA
ATOM      2  C   LIG A   1       0.425   0.519   0.255  0.00  0.00    +0.177 C 
ATOM      3  C   LIG A   1       1.472   1.459  -0.248  0.00  0.00    +0.042 C 
ATOM      4  C   LIG A   1       2.656   0.839  -0.010  0.00  0.00    +0.141 C 
ATOM      5  O   LIG A   1       3.845   1.573  -0.198  0.00  0.00    -0.487 OA
ATOM      6  C   LIG A   1       5.091   1.205   0.463  0.00  0.00    +0.181 C 
ATOM      7  C   LIG A   1       6.248   1.970  -0.212  0.00  0.00    +0.052 C 
ATOM      8  C   LIG A   1       5.232  -0.311   0.359  0.00  0.00    +0.098 C 
ATOM      9  C   LIG A   1       6.569  -0.892   0.773  0.00  0.00    +0.020 C 
ATOM     10  C   LIG A   1       4.057  -0.789   1.192  0.00  0.00    +0.176 C 
ATOM     11  O   LIG A   1       4.127  -0.952   2.407  0.00  0.00    -0.291 OA
ATOM     12  C   LIG A   1       2.740  -0.591   0.480  0.00  0.00    +0.098 C 
ATOM     13  C   LIG A   1       1.736  -1.532   0.306  0.00  0.00    +0.125 C 
ATOM     14  C   LIG A   1       0.321  -1.033  -0.235  0.00  0.00    +0.095 C 
ENDROOT
BRANCH  13  15
ATOM     15  O   LIG A   1       1.905  -2.894   0.650  0.00  0.00    -0.497 OA
ATOM     16  C   LIG A   1       1.124  -3.971   0.084  0.00  0.00    +0.276 C 
ENDBRANCH  13  15
BRANCH   3  17
ATOM     17  C   LIG A   1       1.288   3.021  -0.505  0.00  0.00    +0.037 C 
BRANCH  17  18
ATOM     18  C   LIG A   1      -0.140   3.763  -0.642  0.00  0.00    +0.009 C 
BRANCH  18  19
ATOM     19  C   LIG A   1      -1.033   3.516   0.559  0.00  0.00    -0.003 C 
ATOM     20  C   LIG A   1      -2.243   4.377   0.952  0.00  0.00    +0.004 C 
ENDBRANCH  18  19
ENDBRANCH  17  18
BRANCH  17  21
ATOM     21  C   LIG A   1       2.162   3.968   0.410  0.00  0.00    +0.129 C 
BRANCH  21  22
ATOM     22  C   LIG A   1       1.943   3.854   1.943  0.00  0.00    +0.307 C 
ATOM     23  O   LIG A   1       2.639   3.261   2.662  0.00  0.00    -0.251 OA
BRANCH  22  24
ATOM     24  O   LIG A   1       0.813   4.562   2.328  0.00  0.00    -0.468 OA
ATOM     25  C   LIG A   1       0.073   4.034   3.461  0.00  0.00    +0.280 C 
ENDBRANCH  22  24
ENDBRANCH  21  22
ENDBRANCH  17  21
ENDBRANCH   3  17
BRANCH  14  26
ATOM     26  C   LIG A   1       0.306  -1.329  -1.841  0.00  0.00    +0.049 C 
BRANCH  26  27
ATOM     27  C   LIG A   1       0.330  -2.778  -2.422  0.00  0.00    -0.027 C 
ATOM     28  C   LIG A   1       0.931  -3.333  -3.501  0.00  0.00    -0.080 C 
ATOM     29  C   LIG A   1       1.408  -2.553  -4.679  0.00  0.00    +0.038 C 
ATOM     30  C   LIG A   1       1.087  -4.843  -3.663  0.00  0.00    +0.038 C 
ENDBRANCH  26  27
ENDBRANCH  14  26
BRANCH  14  31
ATOM     31  C   LIG A   1      -0.982  -1.568   0.659  0.00  0.00    +0.031 C 
BRANCH  31  32
ATOM     32  C   LIG A   1      -2.517  -1.597   0.145  0.00  0.00    +0.016 C 
BRANCH  32  33
ATOM     33  C   LIG A   1      -2.953  -0.450  -0.743  0.00  0.00    -0.077 C 
ATOM     34  C   LIG A   1      -3.502  -0.766  -2.105  0.00  0.00    +0.038 C 
ATOM     35  C   LIG A   1      -2.901   0.843  -0.411  0.00  0.00    +0.007 C 
ENDBRANCH  32  33
BRANCH  32  36
ATOM     36  C   LIG A   1      -3.558  -1.971   1.335  0.00  0.00    +0.012 C 
BRANCH  36  37
ATOM     37  C   LIG A   1      -5.121  -2.103   1.161  0.00  0.00    +0.030 C 
BRANCH  37  38
ATOM     38  C   LIG A   1      -6.231  -1.079   1.488  0.00  0.00    -0.080 C 
ATOM     39  C   LIG A   1      -6.652  -0.940   2.974  0.00  0.00    +0.038 C 
ATOM     40  C   LIG A   1      -7.005  -0.686   0.447  0.00  0.00    +0.007 C 
ENDBRANCH  37  38
ENDBRANCH  36  37
ENDBRANCH  32  36
ENDBRANCH  31  32
ENDBRANCH  14  31
TORSDOF 15
