REMARK  Name = NuBBE_2090
REMARK  7 active torsions:
REMARK  status: ('A' for Active; 'I' for Inactive)
REMARK    1  A    between atoms: C_2  and  C_8
REMARK    2  A    between atoms: N_3  and  C_4
REMARK    3  A    between atoms: C_4  and  C_5
REMARK    4  A    between atoms: C_5  and  C_6
REMARK    5  A    between atoms: C_5  and  C_7
REMARK    6  A    between atoms: C_9  and  C_10
REMARK    7  A    between atoms: C_11  and  C_12
REMARK                            x       y       z     vdW  Elec       q    Type
REMARK                         _______ _______ _______ _____ _____    ______ ____
ROOT
ATOM      1  C   LIG A   1       1.406  -0.892  -0.572  0.00  0.00    +0.001 C 
ATOM      2  C   LIG A   1       2.738  -0.798  -0.432  0.00  0.00    +0.008 C 
ENDROOT
BRANCH   2   3
ATOM      3  C   LIG A   1       3.448  -0.319   0.758  0.00  0.00    -0.021 A 
ATOM      4  C   LIG A   1       3.834  -1.232   1.747  0.00  0.00    +0.057 A 
ATOM      5  C   LIG A   1       4.521  -0.747   2.840  0.00  0.00    +0.167 A 
ATOM      6  O   LIG A   1       4.964  -1.486   3.893  0.00  0.00    -0.453 OA
ATOM      7  C   LIG A   1       5.575  -0.463   4.705  0.00  0.00    +0.466 C 
ATOM      8  O   LIG A   1       5.528   0.849   4.107  0.00  0.00    -0.453 OA
ATOM      9  C   LIG A   1       4.834   0.586   2.968  0.00  0.00    +0.166 A 
ATOM     10  C   LIG A   1       4.458   1.513   2.020  0.00  0.00    +0.050 A 
ATOM     11  C   LIG A   1       3.745   1.053   0.907  0.00  0.00    +0.012 A 
ENDBRANCH   2   3
BRANCH   1  13
ATOM     12  C   LIG A   1      -0.908  -0.592   0.309  0.00  0.00    +0.067 C 
ATOM     13  C   LIG A   1       0.425  -0.534   0.428  0.00  0.00    +0.005 C 
BRANCH  12  15
ATOM     14  O   LIG A   1      -1.390  -2.045  -1.522  0.00  0.00    -0.271 OA
ATOM     15  C   LIG A   1      -1.651  -1.030  -0.905  0.00  0.00    +0.237 C 
ATOM     16  N   LIG A   1      -2.649  -0.138  -1.223  0.00  0.00    -0.312 N 
ATOM     17  H   LIG A   1      -2.768   0.679  -0.644  0.00  0.00    +0.149 HD
BRANCH  16  18
ATOM     18  C   LIG A   1      -3.492  -0.290  -2.398  0.00  0.00    +0.107 C 
BRANCH  18  19
ATOM     19  C   LIG A   1      -4.497   0.867  -2.544  0.00  0.00    +0.000 C 
ATOM     20  C   LIG A   1      -5.367   0.690  -3.791  0.00  0.00    +0.009 C 
ATOM     21  C   LIG A   1      -5.401   1.005  -1.316  0.00  0.00    +0.009 C 
ENDBRANCH  18  19
ENDBRANCH  16  18
ENDBRANCH  12  15
ENDBRANCH   1  13
TORSDOF 5
