REMARK  Name = NuBBE_1646
REMARK  20 active torsions:
REMARK  status: ('A' for Active; 'I' for Inactive)
REMARK    1  A    between atoms: C_1  and  C_2
REMARK    2  A    between atoms: C_1  and  C_22
REMARK    3  A    between atoms: C_2  and  C_3
REMARK    4  A    between atoms: C_4  and  C_5
REMARK    5  A    between atoms: C_4  and  C_21
REMARK    6  A    between atoms: C_5  and  C_6
REMARK    7  A    between atoms: C_6  and  C_7
REMARK    8  A    between atoms: C_8  and  C_9
REMARK    9  A    between atoms: C_8  and  C_20
REMARK   10  A    between atoms: C_9  and  C_10
REMARK   11  A    between atoms: C_10  and  C_11
REMARK   12  A    between atoms: C_12  and  C_13
REMARK   13  A    between atoms: C_12  and  C_19
REMARK   14  A    between atoms: C_13  and  C_14
REMARK   15  A    between atoms: C_14  and  C_15
REMARK   16  A    between atoms: C_16  and  C_17
REMARK   17  A    between atoms: C_16  and  C_18
REMARK   18  A    between atoms: C_26  and  O_28
REMARK   19  A    between atoms: O_28  and  C_29
REMARK   20  A    between atoms: C_29  and  C_31
REMARK                            x       y       z     vdW  Elec       q    Type
REMARK                         _______ _______ _______ _____ _____    ______ ____
ROOT
ATOM      1  C   LIG A   1       3.690  -1.067  -0.991  0.00  0.00    -0.027 C 
ATOM      2  C   LIG A   1       3.822   0.271  -0.840  0.00  0.00    -0.076 C 
ATOM      3  C   LIG A   1       5.158   0.931  -0.564  0.00  0.00    +0.038 C 
ENDROOT
BRANCH   1   4
ATOM      4  C   LIG A   1       4.722  -2.174  -0.827  0.00  0.00    +0.032 C 
BRANCH   4   5
ATOM      5  C   LIG A   1       4.652  -2.778   0.593  0.00  0.00    +0.043 C 
BRANCH   5   6
ATOM      6  C   LIG A   1       5.570  -3.943   0.915  0.00  0.00    -0.001 A 
ATOM      7  C   LIG A   1       6.957  -3.845   0.997  0.00  0.00    +0.139 A 
ATOM      8  C   LIG A   1       7.747  -4.934   1.313  0.00  0.00    +0.009 A 
ATOM      9  C   LIG A   1       7.239  -6.168   1.606  0.00  0.00    +0.054 A 
ATOM     10  C   LIG A   1       5.864  -6.295   1.641  0.00  0.00    +0.132 A 
ATOM     11  C   LIG A   1       5.030  -5.210   1.257  0.00  0.00    +0.053 A 
ATOM     12  C   LIG A   1       9.177  -4.572   1.278  0.00  0.00    +0.160 C 
ATOM     13  C   LIG A   1       9.053  -3.118   0.885  0.00  0.00    +0.317 C 
ATOM     14  O   LIG A   1      10.006  -2.389   0.675  0.00  0.00    -0.250 OA
ATOM     15  O   LIG A   1       7.711  -2.705   0.774  0.00  0.00    -0.425 OA
BRANCH  10  16
ATOM     16  O   LIG A   1       5.258  -7.457   2.142  0.00  0.00    -0.426 OA
BRANCH  16  17
ATOM     17  C   LIG A   1       5.951  -8.373   2.942  0.00  0.00    +0.309 C 
ATOM     18  O   LIG A   1       7.170  -8.472   3.112  0.00  0.00    -0.251 OA
ATOM     19  C   LIG A   1       4.964  -9.198   3.694  0.00  0.00    +0.136 C 
ENDBRANCH  16  17
ENDBRANCH  10  16
ENDBRANCH   5   6
ENDBRANCH   4   5
ENDBRANCH   1   4
BRANCH   2  20
ATOM     20  C   LIG A   1       2.620   1.241  -0.930  0.00  0.00    +0.034 C 
BRANCH  20  21
ATOM     21  C   LIG A   1       1.206   0.677  -0.588  0.00  0.00    +0.031 C 
BRANCH  21  22
ATOM     22  C   LIG A   1       0.061   1.680  -0.700  0.00  0.00    -0.027 C 
ATOM     23  C   LIG A   1      -1.233   1.403  -0.999  0.00  0.00    -0.076 C 
ATOM     24  C   LIG A   1      -1.704  -0.008  -1.265  0.00  0.00    +0.038 C 
BRANCH  23  25
ATOM     25  C   LIG A   1      -2.272   2.520  -1.192  0.00  0.00    +0.034 C 
BRANCH  25  26
ATOM     26  C   LIG A   1      -3.570   2.402  -0.359  0.00  0.00    +0.031 C 
BRANCH  26  27
ATOM     27  C   LIG A   1      -4.681   3.429  -0.544  0.00  0.00    -0.027 C 
ATOM     28  C   LIG A   1      -5.372   3.754  -1.662  0.00  0.00    -0.076 C 
ATOM     29  C   LIG A   1      -4.955   3.257  -3.026  0.00  0.00    +0.038 C 
BRANCH  28  30
ATOM     30  C   LIG A   1      -6.679   4.593  -1.668  0.00  0.00    +0.034 C 
BRANCH  30  31
ATOM     31  C   LIG A   1      -7.255   4.993  -0.288  0.00  0.00    +0.031 C 
BRANCH  31  32
ATOM     32  C   LIG A   1      -8.496   5.864  -0.184  0.00  0.00    -0.028 C 
ATOM     33  C   LIG A   1      -9.795   5.584   0.089  0.00  0.00    -0.080 C 
ATOM     34  C   LIG A   1     -10.503   4.257   0.092  0.00  0.00    +0.038 C 
ATOM     35  C   LIG A   1     -10.700   6.716   0.535  0.00  0.00    +0.038 C 
ENDBRANCH  31  32
ENDBRANCH  30  31
ENDBRANCH  28  30
ENDBRANCH  26  27
ENDBRANCH  25  26
ENDBRANCH  23  25
ENDBRANCH  21  22
ENDBRANCH  20  21
ENDBRANCH   2  20
TORSDOF 14
