REMARK  Name = NuBBE_2097
REMARK  8 active torsions:
REMARK  status: ('A' for Active; 'I' for Inactive)
REMARK    1  A    between atoms: C_1  and  O_3
REMARK    2  A    between atoms: C_1  and  C_11
REMARK    3  A    between atoms: O_3  and  C_4
REMARK    4  A    between atoms: C_4  and  C_5
REMARK    5  A    between atoms: C_12  and  O_13
REMARK    6  A    between atoms: O_13  and  C_14
REMARK    7  A    between atoms: C_18  and  O_19
REMARK    8  A    between atoms: O_19  and  C_20
REMARK                            x       y       z     vdW  Elec       q    Type
REMARK                         _______ _______ _______ _____ _____    ______ ____
ROOT
ATOM      1  C   LIG A   1      -0.448  -0.214  -0.416  0.00  0.00    +0.347 C 
ATOM      2  O   LIG A   1      -0.998  -0.910   0.371  0.00  0.00    -0.245 OA
ENDROOT
BRANCH   1   3
ATOM      3  C   LIG A   1       0.615  -0.779  -1.262  0.00  0.00    +0.142 A 
ATOM      4  C   LIG A   1       1.734  -0.002  -1.623  0.00  0.00    +0.138 A 
ATOM      5  C   LIG A   1       2.905  -0.642  -2.057  0.00  0.00    +0.046 A 
ATOM      6  C   LIG A   1       2.966  -2.025  -2.177  0.00  0.00    +0.007 A 
ATOM      7  C   LIG A   1       1.849  -2.792  -1.895  0.00  0.00    +0.046 A 
ATOM      8  C   LIG A   1       0.651  -2.196  -1.459  0.00  0.00    +0.138 A 
BRANCH   4   9
ATOM      9  O   LIG A   1       1.921   1.335  -1.368  0.00  0.00    -0.494 OA
ATOM     10  C   LIG A   1       1.121   2.238  -2.135  0.00  0.00    +0.277 C 
ENDBRANCH   4   9
BRANCH   8  11
ATOM     11  O   LIG A   1      -0.433  -2.986  -1.149  0.00  0.00    -0.494 OA
ATOM     12  C   LIG A   1      -0.484  -4.292  -1.738  0.00  0.00    +0.277 C 
ENDBRANCH   8  11
ENDBRANCH   1   3
BRANCH   1  13
ATOM     13  O   LIG A   1      -0.798   1.098  -0.569  0.00  0.00    -0.456 OA
BRANCH  13  14
ATOM     14  C   LIG A   1      -0.446   2.024   0.497  0.00  0.00    +0.268 C 
BRANCH  14  15
ATOM     15  C   LIG A   1      -1.089   1.872   1.843  0.00  0.00    -0.010 A 
ATOM     16  C   LIG A   1      -0.935   0.693   2.568  0.00  0.00    +0.007 A 
ATOM     17  C   LIG A   1      -1.765   0.414   3.643  0.00  0.00    +0.000 A 
ATOM     18  C   LIG A   1      -2.586   1.412   4.147  0.00  0.00    +0.000 A 
ATOM     19  C   LIG A   1      -2.550   2.688   3.587  0.00  0.00    +0.000 A 
ATOM     20  C   LIG A   1      -1.822   2.914   2.420  0.00  0.00    +0.007 A 
ENDBRANCH  14  15
ENDBRANCH  13  14
ENDBRANCH   1  13
TORSDOF 6
