@<TRIPOS>MOLECULE
NuBBE_1109
 31 32 0 0 0
SMALL
GASTEIGER

@<TRIPOS>ATOM
      1 C          -3.6058    1.0050   -1.1322 C.3     1  LIG1       -0.0645
      2 C          -2.1157    0.9175   -0.8240 C.3     1  LIG1       -0.0423
      3 C          -1.8145    0.4863    0.6186 C.3     1  LIG1        0.0656
      4 H          -2.2307   -0.5076    0.8203 H       1  LIG1        0.0420
      5 C          -2.3780    1.4771    1.6100 C.2     1  LIG1        0.3109
      6 O          -1.4070    2.3431    2.0248 O.3     1  LIG1       -0.4638
      7 C          -0.1582    1.9669    1.4444 C.3     1  LIG1        0.0995
      8 C          -0.3369    0.5163    1.0300 C.3     1  LIG1        0.0264
      9 H          -0.2626   -0.0809    1.9448 H       1  LIG1        0.0385
     10 C           0.6748    0.0579    0.0090 C.2     1  LIG1       -0.0503
     11 C           1.5645   -0.9374    0.1432 C.2     1  LIG1        0.0963
     12 N           2.4830   -1.3413   -0.8042 N.am    1  LIG1       -0.2539
     13 C           2.6749   -0.7854   -2.1185 C.3     1  LIG1        0.0099
     14 C           3.2143   -2.4270   -0.3196 C.2     1  LIG1        0.3129
     15 N           2.7672   -2.6977    0.9457 N.am    1  LIG1       -0.2347
     16 C           1.7812   -1.8395    1.3276 C.2     1  LIG1        0.2655
     17 O           1.2174   -1.8083    2.4052 O.2     1  LIG1       -0.2684
     18 O           4.0956   -3.0422   -0.8961 O.2     1  LIG1       -0.2519
     19 O          -3.5431    1.5396    1.9673 O.2     1  LIG1       -0.2505
     20 H          -3.7584    1.1778   -2.2025 H       1  LIG1        0.0230
     21 H          -4.0741    1.8381   -0.5991 H       1  LIG1        0.0230
     22 H          -4.1237    0.0808   -0.8584 H       1  LIG1        0.0230
     23 H          -1.6604    1.8903   -1.0443 H       1  LIG1        0.0271
     24 H          -1.6733    0.1911   -1.5160 H       1  LIG1        0.0271
     25 H           0.6353    2.0825    2.1894 H       1  LIG1        0.0703
     26 H           0.0515    2.6386    0.6042 H       1  LIG1        0.0703
     27 H           0.6717    0.6174   -0.9242 H       1  LIG1        0.0596
     28 H           2.8202    0.2961   -2.0427 H       1  LIG1        0.0433
     29 H           1.7942   -1.0022   -2.7298 H       1  LIG1        0.0433
     30 H           3.5545   -1.2245   -2.5980 H       1  LIG1        0.0433
     31 H           3.1421   -3.4284    1.5251 H       1  LIG1        0.1594
@<TRIPOS>BOND
     1     1     2    1
     2     3     5    1
     3     5     6    1
     4     6     7    1
     5     7     8    1
     6     8     9    1
     7     3     8    1
     8     8    10    1
     9    10    11    2
    10    11    12    1
    11    12    13    1
    12    12    14   am
    13    14    15   am
    14    15    16   am
    15    11    16    1
    16    16    17    2
    17    14    18    2
    18     5    19    2
    19     3     4    1
    20     3     2    1
    21     1    20    1
    22     1    21    1
    23     1    22    1
    24     2    23    1
    25     2    24    1
    26     7    25    1
    27     7    26    1
    28    10    27    1
    29    13    28    1
    30    13    29    1
    31    13    30    1
    32    15    31    1
