REMARK  Name = NuBBE_991
REMARK  5 active torsions:
REMARK  status: ('A' for Active; 'I' for Inactive)
REMARK    1  A    between atoms: C_1  and  C_2
REMARK    2  A    between atoms: C_9  and  O_20
REMARK    3  A    between atoms: C_11  and  O_19
REMARK    4  A    between atoms: C_23  and  C_25
REMARK    5  A    between atoms: C_25  and  C_26
REMARK                            x       y       z     vdW  Elec       q    Type
REMARK                         _______ _______ _______ _____ _____    ______ ____
ROOT
ATOM      1  C   LIG A   1      -2.455   1.423   2.106  0.00  0.00    +0.012 C 
ATOM      2  C   LIG A   1      -0.986   0.938   2.102  0.00  0.00    -0.019 C 
ATOM      3  C   LIG A   1      -0.160   1.849   1.129  0.00  0.00    +0.006 C 
ATOM      4  C   LIG A   1      -0.002   1.191  -0.261  0.00  0.00    -0.003 C 
ATOM      5  C   LIG A   1       0.620   2.137  -1.294  0.00  0.00    +0.004 C 
ATOM      6  C   LIG A   1       0.648   1.492  -2.678  0.00  0.00    +0.004 C 
ATOM      7  C   LIG A   1       1.381   0.141  -2.659  0.00  0.00    +0.001 C 
ATOM      8  C   LIG A   1       1.444  -0.469  -4.075  0.00  0.00    +0.041 C 
ATOM      9  C   LIG A   1       0.253  -1.369  -4.399  0.00  0.00    +0.174 C 
ATOM     10  C   LIG A   1      -0.123  -2.256  -3.184  0.00  0.00    +0.194 C 
ATOM     11  C   LIG A   1      -0.563  -1.378  -2.028  0.00  0.00    +0.077 C 
ATOM     12  C   LIG A   1       0.796  -0.847  -1.581  0.00  0.00    +0.005 C 
ATOM     13  C   LIG A   1       0.787  -0.146  -0.194  0.00  0.00    +0.001 C 
ATOM     14  C   LIG A   1       0.324  -1.005   1.005  0.00  0.00    +0.005 C 
ATOM     15  C   LIG A   1      -0.992  -0.537   1.618  0.00  0.00    +0.008 C 
ATOM     16  C   LIG A   1       1.606  -2.161  -1.635  0.00  0.00    +0.171 C 
ATOM     17  O   LIG A   1       1.030  -2.954  -2.699  0.00  0.00    -0.346 OA
ATOM     18  C   LIG A   1       1.177   2.178   1.806  0.00  0.00    +0.079 C 
ATOM     19  C   LIG A   1       1.050   1.601   3.181  0.00  0.00    +0.137 C 
ATOM     20  C   LIG A   1      -0.365   1.188   3.509  0.00  0.00    +0.061 C 
ATOM     21  O   LIG A   1       1.989   1.555   3.967  0.00  0.00    -0.297 OA
ENDROOT
BRANCH  10  22
ATOM     22  O   LIG A   1      -1.114  -3.188  -3.565  0.00  0.00    -0.363 OA
ATOM     23  H   LIG A   1      -1.218  -3.770  -2.794  0.00  0.00    +0.213 HD
ENDBRANCH  10  22
BRANCH   9  24
ATOM     24  O   LIG A   1       0.587  -2.171  -5.539  0.00  0.00    -0.387 OA
ATOM     25  H   LIG A   1       0.060  -2.989  -5.436  0.00  0.00    +0.210 HD
ENDBRANCH   9  24
BRANCH  20  26
ATOM     26  C   LIG A   1      -0.391   0.070   4.556  0.00  0.00    +0.008 C 
ATOM     27  C   LIG A   1      -1.779  -0.247   5.089  0.00  0.00    +0.004 C 
ENDBRANCH  20  26
TORSDOF 3
