REMARK  Name = NuBBE_2341
REMARK  8 active torsions:
REMARK  status: ('A' for Active; 'I' for Inactive)
REMARK    1  A    between atoms: C_1  and  O_2
REMARK    2  A    between atoms: O_2  and  C_3
REMARK    3  A    between atoms: C_10  and  C_11
REMARK    4  A    between atoms: C_16  and  C_18
REMARK    5  A    between atoms: C_20  and  C_21
REMARK    6  A    between atoms: C_20  and  O_24
REMARK    7  A    between atoms: C_21  and  C_22
REMARK    8  A    between atoms: O_24  and  C_25
REMARK                            x       y       z     vdW  Elec       q    Type
REMARK                         _______ _______ _______ _____ _____    ______ ____
ROOT
ATOM      1  C   LIG A   1      -2.371   0.221  -0.064  0.00  0.00    +0.211 C 
ATOM      2  O   LIG A   1      -2.097   1.466  -0.764  0.00  0.00    -0.483 OA
ATOM      3  C   LIG A   1      -0.995   1.205  -1.554  0.00  0.00    +0.128 C 
ATOM      4  C   LIG A   1      -0.746  -0.197  -1.673  0.00  0.00    +0.000 C 
ATOM      5  C   LIG A   1      -1.876  -0.900  -1.004  0.00  0.00    +0.065 C 
ATOM      6  C   LIG A   1      -2.945  -1.299  -2.025  0.00  0.00    +0.016 C 
ATOM      7  C   LIG A   1       0.367  -0.686  -2.231  0.00  0.00    +0.023 C 
ATOM      8  C   LIG A   1       1.412   0.225  -2.848  0.00  0.00    +0.153 C 
ATOM      9  C   LIG A   1      -0.240   2.151  -2.114  0.00  0.00    +0.095 C 
ATOM     10  C   LIG A   1       0.958   1.733  -2.889  0.00  0.00    +0.195 C 
ATOM     11  O   LIG A   1       1.562   2.600  -3.525  0.00  0.00    -0.289 OA
ENDROOT
BRANCH   1  19
ATOM     12  C   LIG A   1      -0.407   1.264   3.117  0.00  0.00    +0.166 A 
ATOM     13  C   LIG A   1      -0.604   0.133   3.884  0.00  0.00    +0.207 A 
ATOM     14  O   LIG A   1      -0.146  -0.107   5.145  0.00  0.00    -0.449 OA
ATOM     15  C   LIG A   1      -0.685  -1.413   5.408  0.00  0.00    +0.467 C 
ATOM     16  O   LIG A   1      -1.433  -1.952   4.303  0.00  0.00    -0.453 OA
ATOM     17  C   LIG A   1      -1.342  -0.930   3.407  0.00  0.00    +0.170 A 
ATOM     18  C   LIG A   1      -1.916  -0.932   2.151  0.00  0.00    +0.057 A 
ATOM     19  C   LIG A   1      -1.742   0.196   1.331  0.00  0.00    +0.000 A 
ATOM     20  C   LIG A   1      -1.001   1.290   1.842  0.00  0.00    +0.057 A 
BRANCH  12  22
ATOM     21  C   LIG A   1       1.008   2.363   4.677  0.00  0.00    +0.277 C 
ATOM     22  O   LIG A   1       0.302   2.385   3.441  0.00  0.00    -0.491 OA
ENDBRANCH  12  22
ENDBRANCH   1  19
BRANCH   8  23
ATOM     23  O   LIG A   1       1.768  -0.268  -4.148  0.00  0.00    -0.364 OA
ATOM     24  C   LIG A   1       0.706  -0.316  -5.092  0.00  0.00    +0.195 C 
ENDBRANCH   8  23
BRANCH   8  25
ATOM     25  C   LIG A   1       2.705   0.209  -1.979  0.00  0.00    +0.074 C 
BRANCH  25  26
ATOM     26  C   LIG A   1       3.368  -1.145  -1.853  0.00  0.00    -0.031 C 
ATOM     27  C   LIG A   1       3.587  -1.777  -0.693  0.00  0.00    +0.004 C 
ENDBRANCH  25  26
ENDBRANCH   8  25
TORSDOF 5
