REMARK  Name = NuBBE_994
REMARK  7 active torsions:
REMARK  status: ('A' for Active; 'I' for Inactive)
REMARK    1  A    between atoms: C_1  and  C_2
REMARK    2  A    between atoms: C_6  and  C_8
REMARK    3  A    between atoms: C_8  and  C_9
REMARK    4  A    between atoms: C_15  and  O_17
REMARK    5  A    between atoms: C_18  and  O_20
REMARK    6  A    between atoms: C_21  and  O_23
REMARK    7  A    between atoms: C_25  and  C_26
REMARK                            x       y       z     vdW  Elec       q    Type
REMARK                         _______ _______ _______ _____ _____    ______ ____
ROOT
ATOM      1  C   LIG A   1      -2.371   2.769  -0.828  0.00  0.00    +0.012 C 
ATOM      2  C   LIG A   1      -0.928   2.252  -1.032  0.00  0.00    -0.019 C 
ATOM      3  C   LIG A   1      -0.335   1.863   0.361  0.00  0.00    +0.006 C 
ATOM      4  C   LIG A   1       0.147   3.196   0.954  0.00  0.00    +0.079 C 
ATOM      5  C   LIG A   1       0.502   4.008  -0.259  0.00  0.00    +0.137 C 
ATOM      6  C   LIG A   1       0.041   3.360  -1.551  0.00  0.00    +0.061 C 
ATOM      7  O   LIG A   1       1.106   5.073  -0.195  0.00  0.00    -0.297 OA
ATOM      8  C   LIG A   1       0.753   0.752   0.271  0.00  0.00    -0.003 C 
ATOM      9  C   LIG A   1       1.424   0.509   1.636  0.00  0.00    +0.004 C 
ATOM     10  C   LIG A   1       2.148  -0.819   1.808  0.00  0.00    +0.007 C 
ATOM     11  C   LIG A   1       1.515  -2.034   1.114  0.00  0.00    +0.026 C 
ATOM     12  C   LIG A   1       1.683  -3.338   1.919  0.00  0.00    +0.149 C 
ATOM     13  C   LIG A   1       1.225  -4.562   1.105  0.00  0.00    +0.172 C 
ATOM     14  C   LIG A   1      -0.145  -4.399   0.429  0.00  0.00    +0.146 C 
ATOM     15  C   LIG A   1      -0.294  -3.060  -0.301  0.00  0.00    +0.041 C 
ATOM     16  C   LIG A   1       0.086  -1.796   0.541  0.00  0.00    -0.021 C 
ATOM     17  C   LIG A   1      -1.006  -1.575   1.614  0.00  0.00    +0.012 C 
ATOM     18  C   LIG A   1       0.196  -0.543  -0.407  0.00  0.00    -0.001 C 
ATOM     19  C   LIG A   1      -1.072  -0.275  -1.244  0.00  0.00    +0.005 C 
ATOM     20  C   LIG A   1      -0.956   1.046  -1.996  0.00  0.00    +0.008 C 
ENDROOT
BRANCH   6  21
ATOM     21  C   LIG A   1      -0.499   4.403  -2.533  0.00  0.00    +0.008 C 
ATOM     22  C   LIG A   1      -0.844   3.836  -3.901  0.00  0.00    +0.004 C 
ENDBRANCH   6  21
BRANCH  12  23
ATOM     23  O   LIG A   1       0.993  -3.350   3.172  0.00  0.00    -0.389 OA
ATOM     24  H   LIG A   1       1.185  -2.521   3.643  0.00  0.00    +0.210 HD
ENDBRANCH  12  23
BRANCH  13  25
ATOM     25  O   LIG A   1       1.179  -5.708   1.973  0.00  0.00    -0.387 OA
ATOM     26  H   LIG A   1       0.988  -5.330   2.858  0.00  0.00    +0.210 HD
ENDBRANCH  13  25
BRANCH  14  27
ATOM     27  O   LIG A   1      -1.212  -4.564   1.363  0.00  0.00    -0.389 OA
ATOM     28  H   LIG A   1      -0.985  -5.365   1.873  0.00  0.00    +0.210 HD
ENDBRANCH  14  27
TORSDOF 4
