@<TRIPOS>MOLECULE
NuBBE_2476
 63 65 0 0 0
SMALL
GASTEIGER

@<TRIPOS>ATOM
      1 C          -2.0989    4.7802   -2.2112 C.3     1  LIG1        0.0790
      2 O          -0.8313    4.9697   -2.8288 O.3     1  LIG1       -0.4914
      3 C          -0.0134    3.8722   -2.9205 C.ar    1  LIG1        0.1625
      4 C          -0.3394    2.5964   -2.4579 C.ar    1  LIG1       -0.0131
      5 C           0.5916    1.5441   -2.5010 C.ar    1  LIG1       -0.0433
      6 C           0.2240    0.1808   -1.9525 C.3     1  LIG1       -0.0222
      7 C           0.5508   -0.0050   -0.4557 C.3     1  LIG1       -0.0050
      8 H           1.6109    0.2098   -0.2808 H       1  LIG1        0.0331
      9 C           0.1601   -1.3799    0.1099 C.3     1  LIG1        0.0289
     10 H           0.6911   -1.4631    1.0671 H       1  LIG1        0.0366
     11 C           0.4758   -2.6526   -0.6698 C.3     1  LIG1        0.0983
     12 O           1.8835   -2.8597   -0.8848 O.3     1  LIG1       -0.4644
     13 C           2.5575   -3.4793    0.1405 C.2     1  LIG1        0.3040
     14 C           3.8493   -4.0547   -0.3745 C.3     1  LIG1        0.0332
     15 O           2.1646   -3.5880    1.2858 O.2     1  LIG1       -0.2512
     16 C          -1.3504   -1.2107    0.3536 C.3     1  LIG1        0.0900
     17 H          -1.9273   -1.5002   -0.5338 H       1  LIG1        0.0650
     18 C          -1.8658   -1.9322    1.5713 C.ar    1  LIG1       -0.0148
     19 C          -2.8677   -2.8971    1.4654 C.ar    1  LIG1       -0.0524
     20 C          -3.3360   -3.5513    2.6066 C.ar    1  LIG1       -0.0160
     21 C          -2.7991   -3.2619    3.8682 C.ar    1  LIG1        0.1615
     22 O          -3.2317   -3.8612    5.0258 O.3     1  LIG1       -0.4915
     23 C          -3.7048   -5.1959    4.8908 C.3     1  LIG1        0.0790
     24 C          -1.8056   -2.2760    3.9912 C.ar    1  LIG1        0.1618
     25 O          -1.3207   -2.0184    5.2504 O.3     1  LIG1       -0.4914
     26 C          -0.2935   -1.0372    5.3541 C.3     1  LIG1        0.0790
     27 C          -1.3556   -1.6238    2.8419 C.ar    1  LIG1       -0.0107
     28 O          -1.5825    0.2007    0.5408 O.3     1  LIG1       -0.3713
     29 C          -0.3215    0.8724    0.4438 C.3     1  LIG1        0.0520
     30 C           1.8564    1.7800   -3.0518 C.ar    1  LIG1       -0.0549
     31 C           2.1857    3.0405   -3.5562 C.ar    1  LIG1       -0.0153
     32 C           1.2510    4.0767   -3.4893 C.ar    1  LIG1        0.1730
     33 O           1.5467    5.4103   -3.8451 O.3     1  LIG1       -0.4223
     34 C           2.7457    5.7535   -4.4479 C.2     1  LIG1        0.3093
     35 C           3.3429    6.8752   -3.6551 C.3     1  LIG1        0.0336
     36 O           3.2778    5.1900   -5.3925 O.2     1  LIG1       -0.2507
     37 H          -2.5714    5.7602   -2.0969 H       1  LIG1        0.0660
     38 H          -2.0019    4.3490   -1.2087 H       1  LIG1        0.0660
     39 H          -2.7442    4.1644   -2.8459 H       1  LIG1        0.0660
     40 H          -1.3171    2.4002   -2.0301 H       1  LIG1        0.0658
     41 H           0.7627   -0.5712   -2.5408 H       1  LIG1        0.0317
     42 H          -0.8401    0.0006   -2.1511 H       1  LIG1        0.0317
     43 H           0.0535   -3.5288   -0.1600 H       1  LIG1        0.0701
     44 H           0.0101   -2.6347   -1.6614 H       1  LIG1        0.0701
     45 H           3.6445   -4.6825   -1.2462 H       1  LIG1        0.0342
     46 H           4.2944   -4.6913    0.3957 H       1  LIG1        0.0342
     47 H           4.5487   -3.2563   -0.6279 H       1  LIG1        0.0342
     48 H          -3.3046   -3.1397    0.4996 H       1  LIG1        0.0622
     49 H          -4.1386   -4.2695    2.4813 H       1  LIG1        0.0655
     50 H          -3.9345   -5.5731    5.8917 H       1  LIG1        0.0660
     51 H          -2.9368   -5.8433    4.4534 H       1  LIG1        0.0660
     52 H          -4.6323   -5.2405    4.3121 H       1  LIG1        0.0660
     53 H          -0.0087   -0.9495    6.4061 H       1  LIG1        0.0660
     54 H          -0.6515   -0.0544    5.0263 H       1  LIG1        0.0660
     55 H           0.6001   -1.3360    4.7936 H       1  LIG1        0.0660
     56 H          -0.5967   -0.8523    2.9061 H       1  LIG1        0.0659
     57 H           0.1010    0.9392    1.4540 H       1  LIG1        0.0563
     58 H          -0.4906    1.8933    0.1031 H       1  LIG1        0.0563
     59 H           2.5958    0.9833   -3.0974 H       1  LIG1        0.0621
     60 H           3.1760    3.1887   -3.9771 H       1  LIG1        0.0656
     61 H           2.5592    7.5671   -3.3343 H       1  LIG1        0.0342
     62 H           4.0627    7.4228   -4.2648 H       1  LIG1        0.0342
     63 H           3.8400    6.4498   -2.7781 H       1  LIG1        0.0342
@<TRIPOS>BOND
     1     1     2    1
     2     2     3    1
     3     3     4   ar
     4     4     5   ar
     5     5     6    1
     6     7     9    1
     7    11    12    1
     8    12    13    1
     9    13    14    1
    10    13    15    2
    11     9    16    1
    12    18    19   ar
    13    19    20   ar
    14    20    21   ar
    15    21    22    1
    16    22    23    1
    17    21    24   ar
    18    24    25    1
    19    25    26    1
    20    24    27   ar
    21    18    27   ar
    22    16    28    1
    23    28    29    1
    24     7    29    1
    25     5    30   ar
    26    30    31   ar
    27    31    32   ar
    28     3    32   ar
    29    32    33    1
    30    33    34    1
    31    34    35    1
    32    34    36    2
    33     9    11    1
    34     9    10    1
    35     7     8    1
    36     7     6    1
    37    16    18    1
    38    16    17    1
    39     1    37    1
    40     1    38    1
    41     1    39    1
    42     4    40    1
    43     6    41    1
    44     6    42    1
    45    11    43    1
    46    11    44    1
    47    14    45    1
    48    14    46    1
    49    14    47    1
    50    19    48    1
    51    20    49    1
    52    23    50    1
    53    23    51    1
    54    23    52    1
    55    26    53    1
    56    26    54    1
    57    26    55    1
    58    27    56    1
    59    29    57    1
    60    29    58    1
    61    30    59    1
    62    31    60    1
    63    35    61    1
    64    35    62    1
    65    35    63    1
