@<TRIPOS>MOLECULE
NuBBE_2063
 36 37 0 0 0
SMALL
GASTEIGER

@<TRIPOS>ATOM
      1 O          -0.6828    3.9159    0.5094 O.co2   1  LIG1       -0.5442
      2 C          -1.3821    2.8723    0.6822 C.2     1  LIG1        0.0899
      3 C          -0.5623    1.5357    0.5096 C.3     1  LIG1        0.0246
      4 H           0.2525    1.7266   -0.1986 H       1  LIG1        0.0920
      5 N           0.1973    1.0349    1.8573 N.4     1  LIG1        0.2433
      6 C           0.9668   -0.2371    1.6313 C.3     1  LIG1       -0.0412
      7 C           1.1854    2.1445    2.2306 C.3     1  LIG1       -0.0412
      8 C          -0.7973    0.8784    2.9942 C.3     1  LIG1       -0.0412
      9 C          -1.5570    0.5251   -0.0986 C.3     1  LIG1        0.0230
     10 C          -1.0119   -0.7649   -0.6514 C.ar    1  LIG1       -0.0167
     11 C          -1.4009   -2.0253   -0.2312 C.ar    1  LIG1        0.0061
     12 N          -0.7939   -2.9564   -1.0246 N.ar    1  LIG1       -0.3604
     13 C           0.0588   -2.3407   -1.9077 C.ar    1  LIG1        0.0467
     14 C           0.9099   -2.9061   -2.8648 C.ar    1  LIG1       -0.0378
     15 C           1.6765   -2.0381   -3.6435 C.ar    1  LIG1       -0.0598
     16 C           1.5661   -0.6587   -3.4916 C.ar    1  LIG1       -0.0611
     17 C           0.6869   -0.1077   -2.5481 C.ar    1  LIG1       -0.0523
     18 C          -0.0704   -0.9622   -1.7184 C.ar    1  LIG1        0.0030
     19 O          -2.5584    2.7435    1.1053 O.co2   1  LIG1       -0.5442
     20 H           1.5096   -0.1597    0.6865 H       1  LIG1        0.0778
     21 H           0.2760   -1.0797    1.6470 H       1  LIG1        0.0778
     22 H           1.6778   -0.3650    2.4536 H       1  LIG1        0.0778
     23 H           1.9047    2.2537    1.4136 H       1  LIG1        0.0778
     24 H           1.7038    1.8411    3.1464 H       1  LIG1        0.0778
     25 H           0.6491    3.0759    2.4189 H       1  LIG1        0.0778
     26 H          -1.5889    0.1912    2.6908 H       1  LIG1        0.0778
     27 H          -1.2003    1.8558    3.2703 H       1  LIG1        0.0778
     28 H          -0.2593    0.4526    3.8492 H       1  LIG1        0.0778
     29 H          -2.0745    1.0123   -0.9388 H       1  LIG1        0.0373
     30 H          -2.3485    0.2839    0.6218 H       1  LIG1        0.0373
     31 H          -2.0893   -2.3312    0.5460 H       1  LIG1        0.0810
     32 H          -0.9472   -3.9545   -0.9782 H       1  LIG1        0.1653
     33 H           0.9773   -3.9809   -3.0009 H       1  LIG1        0.0638
     34 H           2.3596   -2.4471   -4.3850 H       1  LIG1        0.0618
     35 H           2.1640   -0.0003   -4.1180 H       1  LIG1        0.0618
     36 H           0.6030    0.9722   -2.4647 H       1  LIG1        0.0624
@<TRIPOS>BOND
     1     1     2   ar
     2     2     3    1
     3     3     4    1
     4     3     5    1
     5     5     6    1
     6     5     7    1
     7     5     8    1
     8     3     9    1
     9     9    10    1
    10    10    11   ar
    11    11    12   ar
    12    12    13   ar
    13    13    14   ar
    14    14    15   ar
    15    15    16   ar
    16    16    17   ar
    17    17    18   ar
    18    13    18   ar
    19    10    18   ar
    20     2    19   ar
    21     6    20    1
    22     6    21    1
    23     6    22    1
    24     7    23    1
    25     7    24    1
    26     7    25    1
    27     8    26    1
    28     8    27    1
    29     8    28    1
    30     9    29    1
    31     9    30    1
    32    11    31    1
    33    12    32    1
    34    14    33    1
    35    15    34    1
    36    16    35    1
    37    17    36    1
