REMARK  Name = NuBBE_134
REMARK  5 active torsions:
REMARK  status: ('A' for Active; 'I' for Inactive)
REMARK    1  A    between atoms: O_1  and  C_2
REMARK    2  A    between atoms: C_2  and  C_3
REMARK    3  A    between atoms: C_4  and  C_5
REMARK    4  A    between atoms: C_7  and  O_8
REMARK    5  A    between atoms: C_9  and  O_12
REMARK                            x       y       z     vdW  Elec       q    Type
REMARK                         _______ _______ _______ _____ _____    ______ ____
ROOT
ATOM      1  C   LIG A   1      -0.219   0.093  -0.020  0.00  0.00    -0.021 A 
ATOM      2  C   LIG A   1       0.043   1.338  -0.614  0.00  0.00    +0.057 A 
ATOM      3  C   LIG A   1       0.644   1.392  -1.869  0.00  0.00    +0.159 A 
ATOM      4  C   LIG A   1       0.976   0.220  -2.542  0.00  0.00    +0.158 A 
ATOM      5  C   LIG A   1       0.712  -1.018  -1.981  0.00  0.00    +0.050 A 
ATOM      6  C   LIG A   1       0.107  -1.081  -0.723  0.00  0.00    +0.012 A 
ENDROOT
BRANCH   1   8
ATOM      7  C   LIG A   1      -0.678  -0.916   2.204  0.00  0.00    +0.092 C 
ATOM      8  C   LIG A   1      -0.870   0.058   1.300  0.00  0.00    +0.015 C 
BRANCH   7   9
ATOM      9  C   LIG A   1      -1.372  -0.852   3.505  0.00  0.00    +0.330 C 
ATOM     10  O   LIG A   1      -2.296  -0.104   3.763  0.00  0.00    -0.246 OA
BRANCH   9  11
ATOM     11  O   LIG A   1      -0.849  -1.723   4.392  0.00  0.00    -0.477 OA
ATOM     12  H   LIG A   1      -0.068  -2.216   4.085  0.00  0.00    +0.295 HD
ENDBRANCH   9  11
ENDBRANCH   7   9
ENDBRANCH   1   8
BRANCH   3  13
ATOM     13  O   LIG A   1       0.931   2.579  -2.486  0.00  0.00    -0.503 OA
ATOM     14  H   LIG A   1       0.651   3.303  -1.901  0.00  0.00    +0.292 HD
ENDBRANCH   3  13
BRANCH   4  15
ATOM     15  O   LIG A   1       1.563   0.280  -3.773  0.00  0.00    -0.503 OA
ATOM     16  H   LIG A   1       1.636   1.236  -3.964  0.00  0.00    +0.292 HD
ENDBRANCH   4  15
TORSDOF 5
