@<TRIPOS>MOLECULE
NuBBE_2455
 65 67 0 0 0
SMALL
GASTEIGER

@<TRIPOS>ATOM
      1 C           0.3710    3.8237   -4.8149 C.3     1  LIG1        0.0790
      2 O          -0.7594    4.5517   -4.3308 O.3     1  LIG1       -0.4914
      3 C          -1.1527    4.1511   -3.0859 C.ar    1  LIG1        0.1625
      4 C          -1.3378    2.8002   -2.8062 C.ar    1  LIG1       -0.0131
      5 C          -1.8098    2.3683   -1.5665 C.ar    1  LIG1       -0.0433
      6 C          -1.7295    0.8887   -1.2511 C.3     1  LIG1       -0.0222
      7 C          -0.3592    0.5131   -0.6205 C.3     1  LIG1       -0.0050
      8 H           0.4551    0.8855   -1.2549 H       1  LIG1        0.0331
      9 C          -0.1729   -0.9802   -0.2916 C.3     1  LIG1        0.0289
     10 H           0.8862   -1.1003   -0.0136 H       1  LIG1        0.0366
     11 C          -0.4306   -1.9579   -1.4291 C.3     1  LIG1        0.0983
     12 O           0.4848   -1.6249   -2.4966 O.3     1  LIG1       -0.4644
     13 C           1.7055   -2.2208   -2.4326 C.2     1  LIG1        0.3040
     14 C           2.6789   -1.4555   -3.2946 C.3     1  LIG1        0.0332
     15 O           2.0094   -3.1456   -1.7047 O.2     1  LIG1       -0.2512
     16 C          -1.0296   -1.1447    0.9673 C.3     1  LIG1        0.0900
     17 H          -2.0739   -1.3543    0.7076 H       1  LIG1        0.0650
     18 C          -0.5505   -2.1829    1.9605 C.ar    1  LIG1       -0.0148
     19 C          -0.9838   -3.5135    1.8579 C.ar    1  LIG1       -0.0524
     20 C          -0.5846   -4.4723    2.7949 C.ar    1  LIG1       -0.0152
     21 C           0.2531   -4.1117    3.8527 C.ar    1  LIG1        0.1730
     22 O           0.7556   -5.0829    4.7437 O.3     1  LIG1       -0.4223
     23 C          -0.0266   -6.1668    5.1371 C.2     1  LIG1        0.3093
     24 C           0.8834   -7.2718    5.5930 C.3     1  LIG1        0.0336
     25 O          -1.2388   -6.2396    5.1072 O.2     1  LIG1       -0.2507
     26 C           0.7233   -2.8011    3.9532 C.ar    1  LIG1        0.1626
     27 O           1.5318   -2.3583    4.9665 O.3     1  LIG1       -0.4914
     28 C           2.8291   -2.9480    4.9187 C.3     1  LIG1        0.0790
     29 C           0.3049   -1.8433    3.0245 C.ar    1  LIG1       -0.0106
     30 O          -1.0296    0.1642    1.5969 O.3     1  LIG1       -0.3713
     31 C          -0.2327    1.0497    0.7957 C.3     1  LIG1        0.0520
     32 C          -2.2621    3.3275   -0.6511 C.ar    1  LIG1       -0.0549
     33 C          -2.0971    4.6934   -0.9201 C.ar    1  LIG1       -0.0153
     34 C          -1.4790    5.1013   -2.1118 C.ar    1  LIG1        0.1730
     35 O          -1.3203    6.4912   -2.3220 O.3     1  LIG1       -0.4223
     36 C          -0.3147    7.0453   -3.1364 C.2     1  LIG1        0.3093
     37 C          -0.7061    8.4543   -3.4606 C.3     1  LIG1        0.0336
     38 O           0.7374    6.5282   -3.4840 O.2     1  LIG1       -0.2507
     39 H           1.1806    3.7831   -4.0751 H       1  LIG1        0.0660
     40 H           0.7450    4.3359   -5.7046 H       1  LIG1        0.0660
     41 H           0.0828    2.8134   -5.1208 H       1  LIG1        0.0660
     42 H          -1.1224    2.0600   -3.5674 H       1  LIG1        0.0658
     43 H          -1.8562    0.3401   -2.1941 H       1  LIG1        0.0317
     44 H          -2.5765    0.5988   -0.6209 H       1  LIG1        0.0317
     45 H          -0.3035   -2.9970   -1.1176 H       1  LIG1        0.0701
     46 H          -1.4502   -1.8711   -1.8256 H       1  LIG1        0.0701
     47 H           3.4765   -2.1167   -3.6356 H       1  LIG1        0.0342
     48 H           3.0990   -0.6484   -2.6986 H       1  LIG1        0.0342
     49 H           2.1790   -1.0395   -4.1739 H       1  LIG1        0.0342
     50 H          -1.6518   -3.8194    1.0557 H       1  LIG1        0.0622
     51 H          -0.9363   -5.4942    2.6850 H       1  LIG1        0.0656
     52 H           1.8590   -7.1727    5.1025 H       1  LIG1        0.0342
     53 H           0.4619   -8.2284    5.2753 H       1  LIG1        0.0342
     54 H           1.0057   -7.2434    6.6733 H       1  LIG1        0.0342
     55 H           3.5226   -2.2689    5.4249 H       1  LIG1        0.0660
     56 H           3.1870   -3.0905    3.8927 H       1  LIG1        0.0660
     57 H           2.8392   -3.8953    5.4648 H       1  LIG1        0.0660
     58 H           0.6476   -0.8180    3.1444 H       1  LIG1        0.0659
     59 H           0.8063    0.9865    1.1434 H       1  LIG1        0.0563
     60 H          -0.5588    2.0786    0.9426 H       1  LIG1        0.0563
     61 H          -2.7188    3.0138    0.2874 H       1  LIG1        0.0621
     62 H          -2.4498    5.4266   -0.1948 H       1  LIG1        0.0656
     63 H          -0.4721    9.1074   -2.6162 H       1  LIG1        0.0342
     64 H          -1.7704    8.5102   -3.6999 H       1  LIG1        0.0342
     65 H          -0.1534    8.7879   -4.3447 H       1  LIG1        0.0342
@<TRIPOS>BOND
     1     1     2    1
     2     2     3    1
     3     3     4   ar
     4     4     5   ar
     5     5     6    1
     6     7     9    1
     7    11    12    1
     8    12    13    1
     9    13    14    1
    10    13    15    2
    11     9    16    1
    12    18    19   ar
    13    19    20   ar
    14    20    21   ar
    15    21    22    1
    16    22    23    1
    17    23    24    1
    18    23    25    2
    19    21    26   ar
    20    26    27    1
    21    27    28    1
    22    26    29   ar
    23    18    29   ar
    24    16    30    1
    25    30    31    1
    26     7    31    1
    27     5    32   ar
    28    32    33   ar
    29    33    34   ar
    30     3    34   ar
    31    34    35    1
    32    35    36    1
    33    36    37    1
    34    36    38    2
    35     9    11    1
    36     9    10    1
    37     7     8    1
    38     7     6    1
    39    16    18    1
    40    16    17    1
    41     1    39    1
    42     1    40    1
    43     1    41    1
    44     4    42    1
    45     6    43    1
    46     6    44    1
    47    11    45    1
    48    11    46    1
    49    14    47    1
    50    14    48    1
    51    14    49    1
    52    19    50    1
    53    20    51    1
    54    24    52    1
    55    24    53    1
    56    24    54    1
    57    28    55    1
    58    28    56    1
    59    28    57    1
    60    29    58    1
    61    31    59    1
    62    31    60    1
    63    32    61    1
    64    33    62    1
    65    37    63    1
    66    37    64    1
    67    37    65    1
