@<TRIPOS>MOLECULE
NuBBE_279
 70 71 0 0 0
SMALL
GASTEIGER

@<TRIPOS>ATOM
      1 O          -3.5389   -3.4576   -2.9914 O.3     1  LIG1       -0.5065
      2 C          -3.7499   -2.1753   -2.5616 C.ar    1  LIG1        0.1208
      3 C          -3.0571   -1.0824   -3.1024 C.ar    1  LIG1       -0.0026
      4 C          -1.9816   -1.2717   -4.1401 C.3     1  LIG1       -0.0359
      5 C          -3.3877    0.2058   -2.6324 C.ar    1  LIG1       -0.0018
      6 C          -2.8764    1.4456   -3.3045 C.3     1  LIG1       -0.0359
      7 C          -4.2033    0.3454   -1.5001 C.ar    1  LIG1        0.1322
      8 O          -4.2375    1.5900   -0.9157 O.3     1  LIG1       -0.4811
      9 C          -4.6452    1.6614    0.4687 C.3     1  LIG1        0.1266
     10 C          -3.3946    1.5497    1.4143 C.3     1  LIG1       -0.0060
     11 C          -2.5617    0.2543    1.2656 C.3     1  LIG1       -0.0306
     12 C          -1.4083    0.0863    2.2388 C.2     1  LIG1       -0.0849
     13 C          -0.0898    0.3211    2.0389 C.2     1  LIG1       -0.0762
     14 C           0.4415    0.9997    0.8003 C.3     1  LIG1       -0.0438
     15 C           0.9197    0.0871    3.1601 C.3     1  LIG1       -0.0286
     16 C           1.5748   -1.3005    3.3196 C.3     1  LIG1       -0.0303
     17 C           2.4331   -1.8101    2.1919 C.2     1  LIG1       -0.0738
     18 C           3.7710   -1.6933    2.0560 C.2     1  LIG1        0.0328
     19 C           4.5935   -1.0470    3.1427 C.2     1  LIG1        0.3325
     20 O           5.6951   -0.4342    2.6668 O.3     1  LIG1       -0.4773
     21 O           4.4075   -1.0921    4.3132 O.2     1  LIG1       -0.2455
     22 C           4.4950   -2.3412    0.8774 C.3     1  LIG1       -0.0178
     23 C           4.5556   -1.4871   -0.4083 C.3     1  LIG1       -0.0303
     24 C           5.2029   -0.1633   -0.1732 C.2     1  LIG1       -0.0850
     25 C           5.6631    0.7819   -0.9928 C.2     1  LIG1       -0.0796
     26 C           5.7545    0.5986   -2.4587 C.3     1  LIG1       -0.0440
     27 C           6.0698    2.1079   -0.3972 C.3     1  LIG1       -0.0440
     28 C          -5.2626    3.0738    0.6122 C.3     1  LIG1       -0.0212
     29 C          -5.7211    0.6400    0.7888 C.2     1  LIG1       -0.0406
     30 C          -5.8533   -0.5005    0.0963 C.2     1  LIG1       -0.0512
     31 C          -4.9087   -0.7437   -0.9889 C.ar    1  LIG1        0.0203
     32 C          -4.7043   -2.0067   -1.5518 C.ar    1  LIG1       -0.0093
     33 H          -2.8119   -3.4669   -3.6338 H       1  LIG1        0.2921
     34 H          -1.2503   -2.0120   -3.7954 H       1  LIG1        0.0279
     35 H          -1.4062   -0.3592   -4.3212 H       1  LIG1        0.0279
     36 H          -2.4140   -1.5978   -5.0896 H       1  LIG1        0.0279
     37 H          -2.9735    1.3436   -4.3904 H       1  LIG1        0.0279
     38 H          -1.8385    1.6203   -3.0191 H       1  LIG1        0.0279
     39 H          -3.4747    2.3243   -3.0410 H       1  LIG1        0.0279
     40 H          -3.7219    1.6603    2.4572 H       1  LIG1        0.0310
     41 H          -2.7206    2.3916    1.2049 H       1  LIG1        0.0310
     42 H          -2.1778    0.1756    0.2455 H       1  LIG1        0.0309
     43 H          -3.2205   -0.6093    1.4190 H       1  LIG1        0.0309
     44 H          -1.7041   -0.3427    3.1962 H       1  LIG1        0.0572
     45 H           0.2822    0.3974   -0.0983 H       1  LIG1        0.0274
     46 H           1.5175    1.1958    0.8763 H       1  LIG1        0.0274
     47 H          -0.0424    1.9746    0.6667 H       1  LIG1        0.0274
     48 H           0.4090    0.2858    4.1128 H       1  LIG1        0.0313
     49 H           1.7052    0.8528    3.1119 H       1  LIG1        0.0313
     50 H           0.8165   -2.0577    3.5499 H       1  LIG1        0.0311
     51 H           2.1746   -1.2505    4.2311 H       1  LIG1        0.0311
     52 H           1.8930   -2.4020    1.4486 H       1  LIG1        0.0577
     53 H           6.2726   -0.2353    3.4266 H       1  LIG1        0.2954
     54 H           3.9824   -3.2792    0.6192 H       1  LIG1        0.0318
     55 H           5.5084   -2.6446    1.1711 H       1  LIG1        0.0318
     56 H           3.5306   -1.3018   -0.7532 H       1  LIG1        0.0311
     57 H           5.0696   -2.0516   -1.1961 H       1  LIG1        0.0311
     58 H           5.3039    0.1289    0.8455 H       1  LIG1        0.0572
     59 H           5.3522   -0.3697   -2.7702 H       1  LIG1        0.0274
     60 H           6.8081    0.6331   -2.7444 H       1  LIG1        0.0274
     61 H           5.1952    1.3818   -2.9730 H       1  LIG1        0.0274
     62 H           5.5719    2.2929    0.5675 H       1  LIG1        0.0274
     63 H           5.7701    2.9299   -1.0517 H       1  LIG1        0.0274
     64 H           7.1484    2.1477   -0.2265 H       1  LIG1        0.0274
     65 H          -4.5184    3.8596    0.4282 H       1  LIG1        0.0271
     66 H          -5.6906    3.2437    1.6065 H       1  LIG1        0.0271
     67 H          -6.0548    3.2373   -0.1310 H       1  LIG1        0.0271
     68 H          -6.4101    0.8615    1.5985 H       1  LIG1        0.0611
     69 H          -6.6300   -1.2244    0.3076 H       1  LIG1        0.0623
     70 H          -5.2463   -2.8755   -1.1884 H       1  LIG1        0.0661
@<TRIPOS>BOND
     1     1     2    1
     2     2     3   ar
     3     3     4    1
     4     3     5   ar
     5     5     6    1
     6     5     7   ar
     7     7     8    1
     8     8     9    1
     9     9    10    1
    10    10    11    1
    11    11    12    1
    12    12    13    2
    13    13    14    1
    14    13    15    1
    15    15    16    1
    16    16    17    1
    17    17    18    2
    18    18    19    1
    19    19    20    1
    20    19    21    2
    21    18    22    1
    22    22    23    1
    23    23    24    1
    24    24    25    2
    25    25    26    1
    26    25    27    1
    27     9    28    1
    28     9    29    1
    29    29    30    2
    30     7    31   ar
    31    30    31    1
    32    31    32   ar
    33     2    32   ar
    34     1    33    1
    35     4    34    1
    36     4    35    1
    37     4    36    1
    38     6    37    1
    39     6    38    1
    40     6    39    1
    41    10    40    1
    42    10    41    1
    43    11    42    1
    44    11    43    1
    45    12    44    1
    46    14    45    1
    47    14    46    1
    48    14    47    1
    49    15    48    1
    50    15    49    1
    51    16    50    1
    52    16    51    1
    53    17    52    1
    54    20    53    1
    55    22    54    1
    56    22    55    1
    57    23    56    1
    58    23    57    1
    59    24    58    1
    60    26    59    1
    61    26    60    1
    62    26    61    1
    63    27    62    1
    64    27    63    1
    65    27    64    1
    66    28    65    1
    67    28    66    1
    68    28    67    1
    69    29    68    1
    70    30    69    1
    71    32    70    1
