@<TRIPOS>MOLECULE
NuBBE_1994
 48 49 0 0 0
SMALL
GASTEIGER

@<TRIPOS>ATOM
      1 C          -0.2643    3.8830    4.8526 C.3     1  LIG1        0.0788
      2 O           0.5009    2.8562    4.2194 O.3     1  LIG1       -0.4946
      3 C          -0.0515    2.2834    3.0990 C.ar    1  LIG1        0.1300
      4 C           0.8647    2.0302    2.0637 C.ar    1  LIG1        0.0230
      5 C           0.4843    1.4188    0.8467 C.ar    1  LIG1        0.1379
      6 O           1.3567    1.1488   -0.1741 O.3     1  LIG1       -0.4942
      7 C           2.6575    1.7216   -0.0910 C.3     1  LIG1        0.0788
      8 C          -0.8394    0.9882    0.6776 C.ar    1  LIG1        0.1058
      9 C          -1.3010    0.1443   -0.4830 C.2     1  LIG1        0.2072
     10 O          -2.5034    0.3352   -0.8126 O.2     1  LIG1       -0.2861
     11 C          -0.5455   -0.8693   -1.3294 C.ar    1  LIG1        0.1058
     12 C           0.2791   -1.9366   -0.9081 C.ar    1  LIG1        0.1379
     13 O           0.5603   -2.4327    0.3379 O.3     1  LIG1       -0.4942
     14 C           0.6919   -1.5666    1.4345 C.3     1  LIG1        0.0788
     15 C           0.8298   -2.8399   -1.8658 C.ar    1  LIG1        0.0230
     16 C           0.5776   -2.7470   -3.2321 C.ar    1  LIG1        0.1300
     17 O           1.0672   -3.6262   -4.1649 O.3     1  LIG1       -0.4946
     18 C           2.3425   -4.2068   -3.8984 C.3     1  LIG1        0.0788
     19 C          -0.2939   -1.7529   -3.6819 C.ar    1  LIG1        0.0335
     20 C          -0.6558   -1.7010   -5.1491 C.3     1  LIG1       -0.0327
     21 C          -0.8507   -0.8532   -2.7328 C.ar    1  LIG1        0.1376
     22 O          -1.7624    0.0475   -3.2535 O.3     1  LIG1       -0.5055
     23 C          -1.7666    1.3068    1.7116 C.ar    1  LIG1        0.1376
     24 O          -3.1142    1.0458    1.5774 O.3     1  LIG1       -0.5055
     25 C          -1.3812    1.8786    2.9470 C.ar    1  LIG1        0.0335
     26 C          -2.3804    1.9749    4.0706 C.3     1  LIG1       -0.0327
     27 H           0.4051    4.4860    5.4745 H       1  LIG1        0.0660
     28 H          -0.9956    3.4572    5.5432 H       1  LIG1        0.0660
     29 H          -0.7445    4.5481    4.1267 H       1  LIG1        0.0660
     30 H           1.8993    2.2971    2.2644 H       1  LIG1        0.0691
     31 H           3.1749    1.4429    0.8328 H       1  LIG1        0.0660
     32 H           2.5995    2.8089   -0.2010 H       1  LIG1        0.0660
     33 H           3.2515    1.3209   -0.9166 H       1  LIG1        0.0660
     34 H           1.5196   -0.8741    1.2747 H       1  LIG1        0.0660
     35 H           0.9444   -2.1485    2.3235 H       1  LIG1        0.0660
     36 H          -0.2629   -1.1050    1.6564 H       1  LIG1        0.0660
     37 H           1.4330   -3.6664   -1.4925 H       1  LIG1        0.0691
     38 H           2.2559   -5.0430   -3.1973 H       1  LIG1        0.0660
     39 H           3.0620   -3.4644   -3.5374 H       1  LIG1        0.0660
     40 H           2.7321   -4.6086   -4.8411 H       1  LIG1        0.0660
     41 H           0.2434   -1.7948   -5.7698 H       1  LIG1        0.0280
     42 H          -1.1249   -0.7553   -5.4332 H       1  LIG1        0.0280
     43 H          -1.3431   -2.5150   -5.4077 H       1  LIG1        0.0280
     44 H          -2.3412    0.3494   -2.5219 H       1  LIG1        0.2922
     45 H          -3.2882    0.7669    0.6538 H       1  LIG1        0.2922
     46 H          -3.2589    1.3430    3.9177 H       1  LIG1        0.0280
     47 H          -2.7295    3.0054    4.1827 H       1  LIG1        0.0280
     48 H          -1.9343    1.6183    5.0069 H       1  LIG1        0.0280
@<TRIPOS>BOND
     1     1     2    1
     2     2     3    1
     3     3     4   ar
     4     4     5   ar
     5     5     6    1
     6     6     7    1
     7     5     8   ar
     8     8     9    1
     9     9    10    2
    10     9    11    1
    11    11    12   ar
    12    12    13    1
    13    13    14    1
    14    12    15   ar
    15    15    16   ar
    16    16    17    1
    17    17    18    1
    18    16    19   ar
    19    19    20    1
    20    19    21   ar
    21    11    21   ar
    22    21    22    1
    23     8    23   ar
    24    23    24    1
    25    23    25   ar
    26     3    25   ar
    27    25    26    1
    28     1    27    1
    29     1    28    1
    30     1    29    1
    31     4    30    1
    32     7    31    1
    33     7    32    1
    34     7    33    1
    35    14    34    1
    36    14    35    1
    37    14    36    1
    38    15    37    1
    39    18    38    1
    40    18    39    1
    41    18    40    1
    42    20    41    1
    43    20    42    1
    44    20    43    1
    45    22    44    1
    46    24    45    1
    47    26    46    1
    48    26    47    1
    49    26    48    1
