REMARK  Name = NuBBE_1372
REMARK  5 active torsions:
REMARK  status: ('A' for Active; 'I' for Inactive)
REMARK    1  A    between atoms: C_4  and  O_15
REMARK    2  A    between atoms: C_6  and  C_14
REMARK    3  A    between atoms: C_8  and  O_12
REMARK    4  A    between atoms: O_12  and  C_13
REMARK    5  A    between atoms: O_15  and  C_16
REMARK                            x       y       z     vdW  Elec       q    Type
REMARK                         _______ _______ _______ _____ _____    ______ ____
ROOT
ATOM      1  O   LIG A   1      -4.247  -0.481  -0.010  0.00  0.00    -0.245 OA
ATOM      2  C   LIG A   1      -3.022  -0.430  -0.019  0.00  0.00    +0.341 A 
ATOM      3  C   LIG A   1      -2.226  -1.649  -0.171  0.00  0.00    +0.138 A 
ATOM      4  C   LIG A   1      -0.885  -1.655  -0.185  0.00  0.00    +0.138 A 
ATOM      5  C   LIG A   1      -0.151  -0.377  -0.041  0.00  0.00    +0.062 A 
ATOM      6  C   LIG A   1       1.254  -0.219  -0.031  0.00  0.00    -0.033 A 
ATOM      7  C   LIG A   1       1.807   1.074   0.113  0.00  0.00    +0.050 A 
ATOM      8  C   LIG A   1       1.010   2.212   0.248  0.00  0.00    +0.124 A 
ATOM      9  C   LIG A   1      -0.367   2.066   0.242  0.00  0.00    +0.092 A 
ATOM     10  C   LIG A   1      -0.920   0.788   0.099  0.00  0.00    +0.146 A 
ATOM     11  O   LIG A   1      -2.331   0.755   0.108  0.00  0.00    -0.422 OA
ATOM     12  C   LIG A   1       2.224  -1.364  -0.168  0.00  0.00    +0.045 C 
ENDROOT
BRANCH   8  13
ATOM     13  O   LIG A   1       1.698   3.385   0.378  0.00  0.00    -0.495 OA
ATOM     14  C   LIG A   1       0.925   4.572   0.518  0.00  0.00    +0.277 C 
ENDBRANCH   8  13
BRANCH   4  15
ATOM     15  O   LIG A   1      -0.105  -2.781  -0.328  0.00  0.00    -0.494 OA
ATOM     16  C   LIG A   1      -0.741  -4.045  -0.473  0.00  0.00    +0.277 C 
ENDBRANCH   4  15
TORSDOF 2
