@<TRIPOS>MOLECULE
NuBBE_364
 82 86 0 0 0
SMALL
GASTEIGER

@<TRIPOS>ATOM
      1 C          -5.8979    0.2594    2.5073 C.3     1  LIG1       -0.0598
      2 C          -4.4276    0.6792    2.6790 C.3     1  LIG1       -0.0343
      3 C          -4.2960    1.9415    1.8053 C.3     1  LIG1       -0.0473
      4 C          -2.8724    2.3776    1.6829 C.3     1  LIG1       -0.0442
      5 C          -1.9691    1.2374    1.1957 C.3     1  LIG1        0.0005
      6 C          -0.6011    1.8637    1.1820 C.3     1  LIG1        0.0619
      7 H          -0.2756    2.0758    2.2075 H       1  LIG1        0.0599
      8 C           0.3024    0.9320    0.4615 C.3     1  LIG1       -0.0167
      9 C           0.3447   -0.4858    1.0129 C.3     1  LIG1       -0.0028
     10 C           0.3848   -1.8529   -0.1637 C.3     1  LIG1       -0.0193
     11 C          -0.1797   -1.7236   -1.5693 C.3     1  LIG1       -0.0463
     12 C           0.3785   -0.6906   -2.4397 C.3     1  LIG1       -0.0486
     13 C           1.8990   -0.6879   -2.4254 C.3     1  LIG1       -0.0278
     14 H           2.1211   -1.5581   -3.0698 H       1  LIG1        0.0312
     15 C           2.3817    0.5475   -3.2652 C.3     1  LIG1       -0.0056
     16 C           1.7456    0.5087   -4.7065 C.3     1  LIG1       -0.0572
     17 C           3.9141    0.4497   -3.4839 C.3     1  LIG1        0.0606
     18 H           4.0750   -0.0537   -4.4443 H       1  LIG1        0.0599
     19 C           4.7759   -0.3620   -2.4889 C.3     1  LIG1       -0.0258
     20 C           4.0897   -1.5243   -1.6611 C.3     1  LIG1       -0.0447
     21 C           2.7107   -1.0798   -1.0388 C.3     1  LIG1       -0.0250
     22 C           1.8360   -2.2358   -0.0887 C.3     1  LIG1       -0.0257
     23 H           2.0556   -3.1979   -0.5734 H       1  LIG1        0.0315
     24 C           1.6368   -2.5969    1.5767 C.3     1  LIG1       -0.0306
     25 C           0.0245   -2.1606    2.3634 C.2     1  LIG1       -0.0836
     26 C          -0.6784   -1.0463    1.9049 C.2     1  LIG1       -0.0632
     27 C          -1.9263   -0.0556    2.1833 C.3     1  LIG1       -0.0111
     28 H          -1.6656    0.3348    3.1768 H       1  LIG1        0.0352
     29 C          -3.4215   -0.5078    2.2915 C.3     1  LIG1       -0.0407
     30 C           3.2077    0.0673   -0.1791 C.3     1  LIG1       -0.0590
     31 O           4.4820    1.7501   -3.6741 O.3     1  LIG1       -0.3912
     32 C           1.8616    1.9086   -2.7125 C.3     1  LIG1       -0.0572
     33 C          -0.4571   -3.2947    0.0976 C.3     1  LIG1       -0.0585
     34 C           1.4074   -0.0864    2.3175 C.3     1  LIG1       -0.0552
     35 O          -0.5102    3.1238    0.4965 O.3     1  LIG1       -0.3912
     36 C          -2.4027    0.8527   -0.2467 C.3     1  LIG1       -0.0567
     37 C          -4.2047    1.1078    4.1450 C.3     1  LIG1       -0.0598
     38 H          -6.1101   -0.0101    1.4657 H       1  LIG1        0.0235
     39 H          -6.5659    1.0973    2.7564 H       1  LIG1        0.0235
     40 H          -6.1624   -0.5815    3.1492 H       1  LIG1        0.0235
     41 H          -4.8724    2.7807    2.2185 H       1  LIG1        0.0271
     42 H          -4.7237    1.7852    0.8079 H       1  LIG1        0.0271
     43 H          -2.5067    2.7722    2.6396 H       1  LIG1        0.0272
     44 H          -2.8400    3.2246    0.9827 H       1  LIG1        0.0272
     45 H           1.2309    1.4614    0.6440 H       1  LIG1        0.0299
     46 H           0.1724    0.9877   -0.6012 H       1  LIG1        0.0299
     47 H          -1.2723   -1.6525   -1.5596 H       1  LIG1        0.0271
     48 H           0.0132   -2.6596   -2.1225 H       1  LIG1        0.0271
     49 H          -0.1093    0.2547   -2.2475 H       1  LIG1        0.0268
     50 H           0.0274   -0.9541   -3.4473 H       1  LIG1        0.0268
     51 H           2.0287   -0.4008   -5.2476 H       1  LIG1        0.0236
     52 H           2.0708    1.3704   -5.3014 H       1  LIG1        0.0236
     53 H           0.6507    0.5558   -4.6944 H       1  LIG1        0.0236
     54 H           5.3039    0.3440   -1.8346 H       1  LIG1        0.0290
     55 H           5.6140   -0.7921   -3.0516 H       1  LIG1        0.0290
     56 H           4.7856   -1.8278   -0.8683 H       1  LIG1        0.0271
     57 H           3.9663   -2.3918   -2.3171 H       1  LIG1        0.0271
     58 H           2.4993   -2.2663    2.1632 H       1  LIG1        0.0310
     59 H           1.6780   -3.6950    1.6643 H       1  LIG1        0.0310
     60 H          -0.2932   -2.8055    3.1763 H       1  LIG1        0.0572
     61 H          -3.5164   -1.3094    3.0318 H       1  LIG1        0.0276
     62 H          -3.7385   -0.9352    1.3315 H       1  LIG1        0.0276
     63 H           3.4929   -0.3103    0.7975 H       1  LIG1        0.0235
     64 H           2.5225    0.8727   -0.2004 H       1  LIG1        0.0235
     65 H           4.0994    0.6088   -0.4772 H       1  LIG1        0.0235
     66 H           4.2602    2.2994   -2.9029 H       1  LIG1        0.2098
     67 H           2.2114    2.1404   -1.7100 H       1  LIG1        0.0236
     68 H           0.7655    1.9596   -2.6961 H       1  LIG1        0.0236
     69 H           2.1500    2.7457   -3.3580 H       1  LIG1        0.0236
     70 H          -1.5393   -3.1300    0.0924 H       1  LIG1        0.0235
     71 H          -0.2241   -3.9081    0.9719 H       1  LIG1        0.0235
     72 H          -0.2221   -4.0125   -0.7069 H       1  LIG1        0.0235
     73 H           2.3584    0.3456    2.0457 H       1  LIG1        0.0238
     74 H           1.6214   -0.8254    3.1023 H       1  LIG1        0.0238
     75 H           0.9318    0.6862    2.9374 H       1  LIG1        0.0238
     76 H           0.3724    3.4506    0.6245 H       1  LIG1        0.2098
     77 H          -2.1063    1.6184   -0.9740 H       1  LIG1        0.0236
     78 H          -3.4734    0.6934   -0.3672 H       1  LIG1        0.0236
     79 H          -1.9452   -0.0822   -0.5471 H       1  LIG1        0.0236
     80 H          -3.1663    1.3908    4.3418 H       1  LIG1        0.0235
     81 H          -4.4708    0.3042    4.8353 H       1  LIG1        0.0235
     82 H          -4.8177    1.9831    4.3967 H       1  LIG1        0.0235
@<TRIPOS>BOND
     1     2     3    1
     2     3     4    1
     3     4     5    1
     4     5     6    1
     5     6     8    1
     6     8     9    1
     7     9    10    1
     8    10    11    1
     9    11    12    1
    10    12    13    1
    11    13    15    1
    12    15    17    1
    13    17    19    1
    14    19    20    1
    15    20    21    1
    16    21    22    1
    17    22    24    1
    18    24    25    1
    19    25    26    2
    20    26    27    1
    21    27    29    1
    22    13    21    1
    23    22    10    1
    24    26     9    1
    25    27     5    1
    26    29     2    1
    27     1     2    1
    28     2    37    1
    29     5    36    1
    30     9    34    1
    31    10    33    1
    32    13    14    1
    33    15    16    1
    34    15    32    1
    35    17    18    1
    36    17    31    1
    37    21    30    1
    38    22    23    1
    39    27    28    1
    40     6    35    1
    41     6     7    1
    42     1    38    1
    43     1    39    1
    44     1    40    1
    45     3    41    1
    46     3    42    1
    47     4    43    1
    48     4    44    1
    49     8    45    1
    50     8    46    1
    51    11    47    1
    52    11    48    1
    53    12    49    1
    54    12    50    1
    55    16    51    1
    56    16    52    1
    57    16    53    1
    58    19    54    1
    59    19    55    1
    60    20    56    1
    61    20    57    1
    62    24    58    1
    63    24    59    1
    64    25    60    1
    65    29    61    1
    66    29    62    1
    67    30    63    1
    68    30    64    1
    69    30    65    1
    70    31    66    1
    71    32    67    1
    72    32    68    1
    73    32    69    1
    74    33    70    1
    75    33    71    1
    76    33    72    1
    77    34    73    1
    78    34    74    1
    79    34    75    1
    80    35    76    1
    81    36    77    1
    82    36    78    1
    83    36    79    1
    84    37    80    1
    85    37    81    1
    86    37    82    1
