REMARK  Name = NuBBE_1612
REMARK  2 active torsions:
REMARK  status: ('A' for Active; 'I' for Inactive)
REMARK    1  A    between atoms: C_11  and  O_12
REMARK    2  A    between atoms: O_12  and  C_13
REMARK                            x       y       z     vdW  Elec       q    Type
REMARK                         _______ _______ _______ _____ _____    ______ ____
ROOT
ATOM      1  O   LIG A   1      -3.276  -0.196   0.206  0.00  0.00    -0.241 OA
ATOM      2  C   LIG A   1      -2.059  -0.342   0.169  0.00  0.00    +0.380 A 
ATOM      3  O   LIG A   1      -1.219   0.769   0.133  0.00  0.00    -0.419 OA
ATOM      4  C   LIG A   1       0.188   0.661   0.127  0.00  0.00    +0.150 A 
ATOM      5  C   LIG A   1       0.979   1.822   0.107  0.00  0.00    +0.063 A 
ATOM      6  C   LIG A   1       2.360   1.666   0.107  0.00  0.00    +0.138 A 
ATOM      7  C   LIG A   1       3.006   0.432   0.125  0.00  0.00    +0.048 A 
ATOM      8  C   LIG A   1       2.188  -0.707   0.144  0.00  0.00    +0.015 A 
ATOM      9  C   LIG A   1       0.792  -0.599   0.145  0.00  0.00    +0.022 A 
ATOM     10  C   LIG A   1      -0.058  -1.778   0.162  0.00  0.00    +0.064 A 
ATOM     11  C   LIG A   1      -1.395  -1.687   0.157  0.00  0.00    +0.205 A 
ATOM     12  O   LIG A   1       2.972   2.882   0.086  0.00  0.00    -0.463 OA
ATOM     13  C   LIG A   1       1.988   3.820   0.075  0.00  0.00    +0.196 A 
ATOM     14  C   LIG A   1       0.748   3.223   0.087  0.00  0.00    +0.053 A 
ENDROOT
BRANCH  11  15
ATOM     15  O   LIG A   1      -2.112  -2.880   0.184  0.00  0.00    -0.489 OA
ATOM     16  C   LIG A   1      -3.351  -2.873  -0.517  0.00  0.00    +0.277 C 
ENDBRANCH  11  15
TORSDOF 1
