REMARK  Name = NuBBE_85
REMARK  8 active torsions:
REMARK  status: ('A' for Active; 'I' for Inactive)
REMARK    1  A    between atoms: C_1  and  C_2
REMARK    2  A    between atoms: C_4  and  C_6
REMARK    3  A    between atoms: C_7  and  C_9
REMARK    4  A    between atoms: C_11  and  O_12
REMARK    5  A    between atoms: O_12  and  C_13
REMARK    6  A    between atoms: C_21  and  C_23
REMARK    7  A    between atoms: C_30  and  O_31
REMARK    8  A    between atoms: O_31  and  C_32
REMARK                            x       y       z     vdW  Elec       q    Type
REMARK                         _______ _______ _______ _____ _____    ______ ____
ROOT
ATOM      1  C   LIG A   1       0.792  -2.147  -3.305  0.00  0.00    +0.011 C 
ATOM      2  C   LIG A   1       1.325  -2.090  -1.883  0.00  0.00    +0.025 C 
ATOM      3  C   LIG A   1       1.922  -0.742  -1.507  0.00  0.00    +0.025 C 
ATOM      4  C   LIG A   1       3.187  -0.380  -2.276  0.00  0.00    +0.011 C 
ATOM      5  C   LIG A   1       2.134  -0.921   0.003  0.00  0.00    +0.152 C 
ATOM      6  O   LIG A   1       1.090  -1.824   0.444  0.00  0.00    -0.364 OA
ATOM      7  C   LIG A   1       0.363  -2.332  -0.707  0.00  0.00    +0.152 C 
ENDROOT
BRANCH   5   8
ATOM      8  C   LIG A   1       2.118   0.325   0.868  0.00  0.00    -0.011 A 
ATOM      9  C   LIG A   1       2.315   0.204   2.267  0.00  0.00    +0.056 A 
ATOM     10  C   LIG A   1       2.304   1.319   3.125  0.00  0.00    +0.166 A 
ATOM     11  C   LIG A   1       2.120   2.564   2.549  0.00  0.00    +0.207 A 
ATOM     12  O   LIG A   1       2.115   3.780   3.163  0.00  0.00    -0.449 OA
ATOM     13  C   LIG A   1       1.889   4.666   2.051  0.00  0.00    +0.467 C 
ATOM     14  O   LIG A   1       1.778   3.987   0.793  0.00  0.00    -0.453 OA
ATOM     15  C   LIG A   1       1.934   2.689   1.191  0.00  0.00    +0.170 A 
ATOM     16  C   LIG A   1       1.924   1.609   0.336  0.00  0.00    +0.056 A 
BRANCH  10  17
ATOM     17  O   LIG A   1       2.511   1.052   4.448  0.00  0.00    -0.491 OA
ATOM     18  C   LIG A   1       1.941   1.985   5.362  0.00  0.00    +0.277 C 
ENDBRANCH  10  17
ENDBRANCH   5   8
BRANCH   7  19
ATOM     19  C   LIG A   1      -1.031  -1.716  -0.752  0.00  0.00    -0.011 A 
ATOM     20  C   LIG A   1      -1.474  -0.816   0.235  0.00  0.00    +0.056 A 
ATOM     21  C   LIG A   1      -2.756  -0.310   0.150  0.00  0.00    +0.170 A 
ATOM     22  O   LIG A   1      -3.304   0.576   1.030  0.00  0.00    -0.453 OA
ATOM     23  C   LIG A   1      -4.606   0.765   0.454  0.00  0.00    +0.467 C 
ATOM     24  O   LIG A   1      -4.812  -0.006  -0.746  0.00  0.00    -0.449 OA
ATOM     25  C   LIG A   1      -3.625  -0.660  -0.858  0.00  0.00    +0.207 A 
ATOM     26  C   LIG A   1      -3.253  -1.571  -1.829  0.00  0.00    +0.166 A 
ATOM     27  C   LIG A   1      -1.956  -2.098  -1.755  0.00  0.00    +0.056 A 
BRANCH  26  28
ATOM     28  O   LIG A   1      -4.002  -2.000  -2.885  0.00  0.00    -0.491 OA
ATOM     29  C   LIG A   1      -5.411  -2.003  -2.684  0.00  0.00    +0.277 C 
ENDBRANCH  26  28
ENDBRANCH   7  19
TORSDOF 4
