@<TRIPOS>MOLECULE
NuBBE_980
 69 70 0 0 0
SMALL
GASTEIGER

@<TRIPOS>ATOM
      1 O          -7.5251    0.9831   -1.2799 O.2     1  LIG1       -0.2702
      2 C          -7.7986   -0.1928   -1.0061 C.2     1  LIG1        0.2441
      3 N          -6.8432   -1.0955   -0.5932 N.am    1  LIG1       -0.3110
      4 C          -5.4111   -0.7964   -0.5102 C.3     1  LIG1        0.0159
      5 C          -5.0132   -0.0317    0.7602 C.3     1  LIG1       -0.0120
      6 C          -3.5148    0.1855    0.8290 C.ar    1  LIG1       -0.0457
      7 C          -2.9477    1.3460    0.2840 C.ar    1  LIG1       -0.0551
      8 C          -1.5609    1.5167    0.2576 C.ar    1  LIG1       -0.0197
      9 C          -0.7261    0.5176    0.7495 C.ar    1  LIG1        0.1210
     10 O           0.6238    0.7347    0.6742 O.3     1  LIG1       -0.4880
     11 C           1.2952   -0.2834   -0.0838 C.3     1  LIG1        0.1082
     12 C           2.7616    0.0249   -0.0492 C.2     1  LIG1       -0.0447
     13 C           3.7090   -0.2444   -0.9749 C.2     1  LIG1       -0.0333
     14 C           3.4038   -0.9093   -2.2982 C.3     1  LIG1       -0.0402
     15 C           5.1900    0.1145   -0.7413 C.3     1  LIG1        0.1264
     16 O           5.3184    1.4770   -1.1783 O.3     1  LIG1       -0.4570
     17 C           5.5545    1.6348   -2.5151 C.2     1  LIG1        0.3045
     18 C           4.9368    2.9257   -2.9717 C.3     1  LIG1        0.0333
     19 O           6.0397    0.8050   -3.2620 O.2     1  LIG1       -0.2511
     20 C           5.6045   -0.0189    0.7544 C.3     1  LIG1        0.0170
     21 C           7.0872    0.2593    1.0573 C.3     1  LIG1        0.0870
     22 O           7.4053    1.6253    0.7386 O.3     1  LIG1       -0.3888
     23 C           7.5191    0.0124    2.5447 C.3     1  LIG1        0.0864
     24 C           6.7598    0.8844    3.5517 C.3     1  LIG1       -0.0339
     25 C           7.4042   -1.4510    2.9723 C.3     1  LIG1       -0.0339
     26 O           8.9115    0.3557    2.6710 O.3     1  LIG1       -0.3866
     27 C          -1.2748   -0.6146    1.3507 C.ar    1  LIG1       -0.0197
     28 C          -2.6646   -0.7831    1.3844 C.ar    1  LIG1       -0.0551
     29 H          -7.1215   -2.0493   -0.3981 H       1  LIG1        0.1490
     30 C          -9.2159   -0.6734   -1.1566 C.ar    1  LIG1        0.0367
     31 C          -9.7658   -1.7437   -0.4321 C.ar    1  LIG1       -0.0496
     32 C         -11.1076   -2.1189   -0.6266 C.ar    1  LIG1       -0.0610
     33 C         -11.9137   -1.4275   -1.5315 C.ar    1  LIG1       -0.0617
     34 C         -11.3842   -0.3538   -2.2411 C.ar    1  LIG1       -0.0610
     35 C         -10.0477    0.0147   -2.0570 C.ar    1  LIG1       -0.0496
     36 H          -5.0910   -0.2499   -1.4080 H       1  LIG1        0.0465
     37 H          -4.8940   -1.7639   -0.5254 H       1  LIG1        0.0465
     38 H          -5.3431   -0.5879    1.6467 H       1  LIG1        0.0328
     39 H          -5.5291    0.9353    0.8048 H       1  LIG1        0.0328
     40 H          -3.5848    2.1218   -0.1362 H       1  LIG1        0.0621
     41 H          -1.1335    2.4208   -0.1667 H       1  LIG1        0.0654
     42 H           0.9084   -0.2930   -1.1074 H       1  LIG1        0.0742
     43 H           1.1611   -1.2621    0.3878 H       1  LIG1        0.0742
     44 H           3.0489    0.5377    0.8645 H       1  LIG1        0.0606
     45 H           2.4240   -1.3954   -2.3064 H       1  LIG1        0.0276
     46 H           4.1402   -1.6897   -2.5141 H       1  LIG1        0.0276
     47 H           3.4184   -0.1865   -3.1218 H       1  LIG1        0.0276
     48 H           5.8324   -0.5629   -1.3190 H       1  LIG1        0.0783
     49 H           3.8475    2.8230   -2.9341 H       1  LIG1        0.0342
     50 H           5.2332    3.1273   -4.0043 H       1  LIG1        0.0342
     51 H           5.2611    3.7556   -2.3419 H       1  LIG1        0.0342
     52 H           5.3435   -1.0301    1.0901 H       1  LIG1        0.0330
     53 H           5.0260    0.6971    1.3465 H       1  LIG1        0.0330
     54 H           7.7146   -0.3576    0.4039 H       1  LIG1        0.0623
     55 H           6.6598    2.1830    1.0262 H       1  LIG1        0.2099
     56 H           5.7011    0.6130    3.6031 H       1  LIG1        0.0258
     57 H           6.8393    1.9485    3.3077 H       1  LIG1        0.0258
     58 H           7.1863    0.7721    4.5563 H       1  LIG1        0.0258
     59 H           6.3655   -1.7908    3.0053 H       1  LIG1        0.0258
     60 H           7.8352   -1.5910    3.9724 H       1  LIG1        0.0258
     61 H           7.9728   -2.1042    2.3024 H       1  LIG1        0.0258
     62 H           9.0294    1.2072    2.2065 H       1  LIG1        0.2102
     63 H          -0.6354   -1.3674    1.8028 H       1  LIG1        0.0654
     64 H          -3.0765   -1.6794    1.8431 H       1  LIG1        0.0621
     65 H          -9.1908   -2.2746    0.3192 H       1  LIG1        0.0625
     66 H         -11.5370   -2.9416   -0.0573 H       1  LIG1        0.0618
     67 H         -12.9553   -1.7116   -1.6718 H       1  LIG1        0.0618
     68 H         -12.0129    0.2064   -2.9303 H       1  LIG1        0.0618
     69 H          -9.6530    0.8614   -2.6172 H       1  LIG1        0.0625
@<TRIPOS>BOND
     1     1     2    2
     2     2     3   am
     3     3     4    1
     4     4     5    1
     5     5     6    1
     6     6     7   ar
     7     7     8   ar
     8     8     9   ar
     9     9    10    1
    10    10    11    1
    11    11    12    1
    12    12    13    2
    13    13    14    1
    14    13    15    1
    15    15    16    1
    16    16    17    1
    17    17    18    1
    18    17    19    2
    19    15    20    1
    20    20    21    1
    21    21    22    1
    22    21    23    1
    23    23    24    1
    24    23    25    1
    25    23    26    1
    26     9    27   ar
    27    27    28   ar
    28     6    28   ar
    29     3    29    1
    30     2    30    1
    31    30    31   ar
    32    31    32   ar
    33    32    33   ar
    34    33    34   ar
    35    34    35   ar
    36    30    35   ar
    37     4    36    1
    38     4    37    1
    39     5    38    1
    40     5    39    1
    41     7    40    1
    42     8    41    1
    43    11    42    1
    44    11    43    1
    45    12    44    1
    46    14    45    1
    47    14    46    1
    48    14    47    1
    49    15    48    1
    50    18    49    1
    51    18    50    1
    52    18    51    1
    53    20    52    1
    54    20    53    1
    55    21    54    1
    56    22    55    1
    57    24    56    1
    58    24    57    1
    59    24    58    1
    60    25    59    1
    61    25    60    1
    62    25    61    1
    63    26    62    1
    64    27    63    1
    65    28    64    1
    66    31    65    1
    67    32    66    1
    68    33    67    1
    69    34    68    1
    70    35    69    1
