@<TRIPOS>MOLECULE
NuBBE_1776
 40 42 0 0 0
SMALL
GASTEIGER

@<TRIPOS>ATOM
      1 O          -3.4786   -2.3401   -0.1679 O.3     1  LIG1       -0.4946
      2 C          -4.0838   -3.4675    0.4535 C.3     1  LIG1        0.0788
      3 C          -2.1096   -2.3300   -0.1979 C.ar    1  LIG1        0.1302
      4 C          -1.5021   -1.0621   -0.1953 C.ar    1  LIG1        0.0362
      5 C          -0.1116   -0.9826   -0.2996 C.ar    1  LIG1        0.1315
      6 O           0.5992    0.1815   -0.3199 O.3     1  LIG1       -0.4837
      7 C          -0.1623    1.3718   -0.5624 C.3     1  LIG1        0.1256
      8 C          -1.4284    1.3886    0.2927 C.3     1  LIG1       -0.0073
      9 C          -2.3087    0.2056   -0.1039 C.3     1  LIG1       -0.0171
     10 C           0.7431    2.5577   -0.2682 C.ar    1  LIG1       -0.0037
     11 C           1.7790    2.4641    0.6807 C.ar    1  LIG1       -0.0099
     12 C           2.6041    3.5546    0.9247 C.ar    1  LIG1        0.1586
     13 O           3.6226    3.4997    1.8366 O.3     1  LIG1       -0.5033
     14 C           2.4075    4.7491    0.2397 C.ar    1  LIG1        0.1582
     15 C           1.3916    4.8695   -0.6949 C.ar    1  LIG1       -0.0162
     16 C           0.5585    3.7757   -0.9507 C.ar    1  LIG1       -0.0514
     17 O           3.2208    5.8170    0.4906 O.3     1  LIG1       -0.5033
     18 C           0.6704   -2.1306   -0.3566 C.ar    1  LIG1        0.0223
     19 C           0.0811   -3.3861   -0.3564 C.ar    1  LIG1        0.1271
     20 C          -1.3160   -3.4857   -0.2879 C.ar    1  LIG1        0.0223
     21 O           0.7711   -4.5677   -0.4315 O.3     1  LIG1       -0.4949
     22 C           2.1945   -4.4500   -0.4867 C.3     1  LIG1        0.0788
     23 H          -5.1498   -3.2457    0.5714 H       1  LIG1        0.0660
     24 H          -3.6683   -3.6432    1.4515 H       1  LIG1        0.0660
     25 H          -4.0022   -4.3608   -0.1727 H       1  LIG1        0.0660
     26 H          -0.4129    1.3839   -1.6316 H       1  LIG1        0.0784
     27 H          -1.9851    2.3247    0.1744 H       1  LIG1        0.0307
     28 H          -1.1635    1.2960    1.3551 H       1  LIG1        0.0307
     29 H          -2.7700    0.3951   -1.0803 H       1  LIG1        0.0317
     30 H          -3.1109    0.0983    0.6361 H       1  LIG1        0.0317
     31 H           1.9385    1.5294    1.2132 H       1  LIG1        0.0659
     32 H           3.6154    2.6105    2.2337 H       1  LIG1        0.2923
     33 H           1.2483    5.8093   -1.2216 H       1  LIG1        0.0655
     34 H          -0.2311    3.8784   -1.6912 H       1  LIG1        0.0623
     35 H           3.8444    5.4927    1.1686 H       1  LIG1        0.2923
     36 H           1.7463   -1.9961   -0.4196 H       1  LIG1        0.0691
     37 H          -1.7593   -4.4714   -0.3219 H       1  LIG1        0.0691
     38 H           2.6233   -5.4557   -0.5185 H       1  LIG1        0.0660
     39 H           2.5832   -3.9533    0.4095 H       1  LIG1        0.0660
     40 H           2.5115   -3.9246   -1.3947 H       1  LIG1        0.0660
@<TRIPOS>BOND
     1     1     2    1
     2     1     3    1
     3     3     4   ar
     4     4     5   ar
     5     5     6    1
     6     6     7    1
     7     7     8    1
     8     8     9    1
     9     4     9    1
    10     7    10    1
    11    10    11   ar
    12    11    12   ar
    13    12    13    1
    14    12    14   ar
    15    14    15   ar
    16    15    16   ar
    17    10    16   ar
    18    14    17    1
    19     5    18   ar
    20    18    19   ar
    21    19    20   ar
    22     3    20   ar
    23    19    21    1
    24    21    22    1
    25     2    23    1
    26     2    24    1
    27     2    25    1
    28     7    26    1
    29     8    27    1
    30     8    28    1
    31     9    29    1
    32     9    30    1
    33    11    31    1
    34    13    32    1
    35    15    33    1
    36    16    34    1
    37    17    35    1
    38    18    36    1
    39    20    37    1
    40    22    38    1
    41    22    39    1
    42    22    40    1
