@<TRIPOS>MOLECULE
NuBBE_401
 31 32 0 0 0
SMALL
GASTEIGER

@<TRIPOS>ATOM
      1 C          -0.0802   -3.1196    1.1464 C.ar    1  LIG1       -0.0367
      2 C          -1.1071   -2.3198    0.3773 C.3     1  LIG1        0.0298
      3 S          -1.8761   -1.0004    1.3675 S.3     1  LIG1       -0.0771
      4 S          -3.2514   -0.2131    0.0566 S.3     1  LIG1       -0.0236
      5 S          -2.1404    0.8222   -1.3237 S.3     1  LIG1       -0.0771
      6 C          -1.4804    2.1960   -0.3258 C.3     1  LIG1        0.0298
      7 C          -0.5909    3.1108   -1.1320 C.ar    1  LIG1       -0.0367
      8 C          -0.8966    4.4743   -1.2470 C.ar    1  LIG1       -0.0578
      9 C          -0.0565    5.3290   -1.9632 C.ar    1  LIG1       -0.0615
     10 C           1.0911    4.8306   -2.5764 C.ar    1  LIG1       -0.0617
     11 C           1.4064    3.4779   -2.4703 C.ar    1  LIG1       -0.0615
     12 C           0.5767    2.6252   -1.7426 C.ar    1  LIG1       -0.0578
     13 C           1.2516   -3.1902    0.7102 C.ar    1  LIG1       -0.0578
     14 C           2.1899   -3.9664    1.3961 C.ar    1  LIG1       -0.0615
     15 C           1.8073   -4.6902    2.5251 C.ar    1  LIG1       -0.0617
     16 C           0.4882   -4.6369    2.9635 C.ar    1  LIG1       -0.0615
     17 C          -0.4509   -3.8615    2.2796 C.ar    1  LIG1       -0.0578
     18 H          -1.8790   -3.0008    0.0050 H       1  LIG1        0.0433
     19 H          -0.6261   -1.8459   -0.4850 H       1  LIG1        0.0433
     20 H          -0.8854    1.7970    0.5030 H       1  LIG1        0.0433
     21 H          -2.3199    2.7551    0.1001 H       1  LIG1        0.0433
     22 H          -1.7888    4.8822   -0.7778 H       1  LIG1        0.0621
     23 H          -0.2989    6.3856   -2.0424 H       1  LIG1        0.0618
     24 H           1.7415    5.4965   -3.1370 H       1  LIG1        0.0618
     25 H           2.2975    3.0857   -2.9524 H       1  LIG1        0.0618
     26 H           0.8435    1.5731   -1.6609 H       1  LIG1        0.0621
     27 H           1.5740   -2.6475   -0.1774 H       1  LIG1        0.0621
     28 H           3.2190   -4.0122    1.0490 H       1  LIG1        0.0618
     29 H           2.5337   -5.2912    3.0558 H       1  LIG1        0.0618
     30 H           0.1856   -5.2043    3.8406 H       1  LIG1        0.0618
     31 H          -1.4775   -3.8413    2.6378 H       1  LIG1        0.0621
@<TRIPOS>BOND
     1     1     2    1
     2     2     3    1
     3     3     4    1
     4     4     5    1
     5     5     6    1
     6     6     7    1
     7     7     8   ar
     8     8     9   ar
     9     9    10   ar
    10    10    11   ar
    11    11    12   ar
    12     7    12   ar
    13     1    13   ar
    14    13    14   ar
    15    14    15   ar
    16    15    16   ar
    17    16    17   ar
    18     1    17   ar
    19     2    18    1
    20     2    19    1
    21     6    20    1
    22     6    21    1
    23     8    22    1
    24     9    23    1
    25    10    24    1
    26    11    25    1
    27    12    26    1
    28    13    27    1
    29    14    28    1
    30    15    29    1
    31    16    30    1
    32    17    31    1
