REMARK  Name = NuBBE_588
REMARK  8 active torsions:
REMARK  status: ('A' for Active; 'I' for Inactive)
REMARK    1  A    between atoms: C_3  and  C_29
REMARK    2  A    between atoms: C_5  and  C_28
REMARK    3  A    between atoms: C_7  and  O_8
REMARK    4  A    between atoms: C_7  and  C_19
REMARK    5  A    between atoms: C_12  and  O_17
REMARK    6  A    between atoms: C_13  and  O_14
REMARK    7  A    between atoms: O_14  and  C_15
REMARK    8  A    between atoms: O_17  and  C_18
REMARK                            x       y       z     vdW  Elec       q    Type
REMARK                         _______ _______ _______ _____ _____    ______ ____
ROOT
ATOM      1  O   LIG A   1      -3.794  -0.293   0.063  0.00  0.00    -0.292 OA
ATOM      2  C   LIG A   1      -2.609  -0.504   0.352  0.00  0.00    +0.167 C 
ATOM      3  C   LIG A   1      -2.043  -1.903   0.312  0.00  0.00    +0.063 C 
ATOM      4  C   LIG A   1      -0.769  -2.046   1.171  0.00  0.00    +0.037 C 
ATOM      5  C   LIG A   1       0.288  -0.922   0.913  0.00  0.00    +0.120 C 
ATOM      6  C   LIG A   1      -0.370   0.456   0.982  0.00  0.00    +0.003 A 
ATOM      7  C   LIG A   1      -1.723   0.643   0.687  0.00  0.00    +0.028 A 
ATOM      8  C   LIG A   1      -2.283   1.931   0.686  0.00  0.00    +0.061 A 
ATOM      9  C   LIG A   1      -1.493   3.053   0.959  0.00  0.00    +0.162 A 
ATOM     10  C   LIG A   1      -0.131   2.884   1.247  0.00  0.00    +0.162 A 
ATOM     11  C   LIG A   1       0.415   1.595   1.266  0.00  0.00    +0.057 A 
ATOM     12  C   LIG A   1      -1.170  -2.149   2.662  0.00  0.00    +0.012 C 
ATOM     13  C   LIG A   1      -1.876  -2.332  -1.142  0.00  0.00    +0.016 C 
ENDROOT
BRANCH   5  14
ATOM     14  C   LIG A   1       1.098  -1.149  -0.379  0.00  0.00    -0.008 A 
ATOM     15  C   LIG A   1       1.113  -0.212  -1.449  0.00  0.00    +0.010 A 
ATOM     16  C   LIG A   1       1.871  -0.421  -2.607  0.00  0.00    +0.050 A 
ATOM     17  C   LIG A   1       2.610  -1.576  -2.688  0.00  0.00    +0.166 A 
ATOM     18  O   LIG A   1       3.397  -1.940  -3.733  0.00  0.00    -0.453 OA
ATOM     19  C   LIG A   1       3.927  -3.190  -3.246  0.00  0.00    +0.466 C 
ATOM     20  O   LIG A   1       3.418  -3.562  -1.947  0.00  0.00    -0.453 OA
ATOM     21  C   LIG A   1       2.620  -2.496  -1.670  0.00  0.00    +0.167 A 
ATOM     22  C   LIG A   1       1.889  -2.312  -0.512  0.00  0.00    +0.056 A 
ENDBRANCH   5  14
BRANCH   5  23
ATOM     23  O   LIG A   1       1.264  -1.011   1.967  0.00  0.00    -0.379 OA
ATOM     24  H   LIG A   1       0.923  -0.527   2.739  0.00  0.00    +0.211 HD
ENDBRANCH   5  23
BRANCH  10  25
ATOM     25  O   LIG A   1       0.598   4.015   1.516  0.00  0.00    -0.491 OA
ATOM     26  C   LIG A   1       1.989   3.950   1.218  0.00  0.00    +0.277 C 
ENDBRANCH  10  25
BRANCH   9  27
ATOM     27  O   LIG A   1      -1.996   4.327   1.020  0.00  0.00    -0.491 OA
ATOM     28  C   LIG A   1      -3.024   4.644   0.086  0.00  0.00    +0.277 C 
ENDBRANCH   9  27
TORSDOF 4
