@<TRIPOS>MOLECULE
NuBBE_1383
 25 24 0 0 0
SMALL
GASTEIGER

@<TRIPOS>ATOM
      1 C          -2.2696   -2.3305    1.6146 C.3     1  LIG1       -0.0653
      2 C          -2.5616   -0.8423    1.7368 C.3     1  LIG1       -0.0559
      3 C          -1.9378   -0.0124    0.6088 C.3     1  LIG1       -0.0533
      4 C          -0.4089   -0.1122    0.5453 C.3     1  LIG1       -0.0531
      5 C           0.1731    0.7357   -0.5923 C.3     1  LIG1       -0.0527
      6 C           1.6981    0.5927   -0.6819 C.3     1  LIG1       -0.0466
      7 C           2.2820    1.4328   -1.8161 C.3     1  LIG1        0.0028
      8 C           3.7856    1.3051   -1.9420 C.2     1  LIG1        0.1203
      9 O           4.4880    0.5793   -1.2521 O.2     1  LIG1       -0.3010
     10 H          -2.8443   -2.8952    2.3551 H       1  LIG1        0.0230
     11 H          -1.2108   -2.5423    1.7902 H       1  LIG1        0.0230
     12 H          -2.5369   -2.7014    0.6200 H       1  LIG1        0.0230
     13 H          -2.2127   -0.4798    2.7108 H       1  LIG1        0.0263
     14 H          -3.6490   -0.6968    1.7177 H       1  LIG1        0.0263
     15 H          -2.2312    1.0359    0.7455 H       1  LIG1        0.0265
     16 H          -2.3650   -0.3369   -0.3478 H       1  LIG1        0.0265
     17 H          -0.1136   -1.1551    0.3876 H       1  LIG1        0.0265
     18 H           0.0201    0.2063    1.5030 H       1  LIG1        0.0265
     19 H          -0.0876    1.7891   -0.4359 H       1  LIG1        0.0265
     20 H          -0.2810    0.4272   -1.5421 H       1  LIG1        0.0265
     21 H           1.9631   -0.4621   -0.8277 H       1  LIG1        0.0269
     22 H           2.1501    0.9019    0.2683 H       1  LIG1        0.0269
     23 H           2.0626    2.4926   -1.6531 H       1  LIG1        0.0339
     24 H           1.8498    1.1373   -2.7784 H       1  LIG1        0.0339
     25 H           4.2377    1.9312   -2.7346 H       1  LIG1        0.1026
@<TRIPOS>BOND
     1     1     2    1
     2     2     3    1
     3     3     4    1
     4     4     5    1
     5     5     6    1
     6     6     7    1
     7     7     8    1
     8     8     9    2
     9     1    10    1
    10     1    11    1
    11     1    12    1
    12     2    13    1
    13     2    14    1
    14     3    15    1
    15     3    16    1
    16     4    17    1
    17     4    18    1
    18     5    19    1
    19     5    20    1
    20     6    21    1
    21     6    22    1
    22     7    23    1
    23     7    24    1
    24     8    25    1
