REMARK  Name = NuBBE_2087
REMARK  5 active torsions:
REMARK  status: ('A' for Active; 'I' for Inactive)
REMARK    1  A    between atoms: C_1  and  O_2
REMARK    2  A    between atoms: O_2  and  C_3
REMARK    3  A    between atoms: C_5  and  O_6
REMARK    4  A    between atoms: C_11  and  O_12
REMARK    5  A    between atoms: C_14  and  C_15
REMARK                            x       y       z     vdW  Elec       q    Type
REMARK                         _______ _______ _______ _____ _____    ______ ____
ROOT
ATOM      1  C   LIG A   1      -0.782   2.634   2.249  0.00  0.00    +0.124 A 
ATOM      2  C   LIG A   1      -0.154   3.439   1.298  0.00  0.00    +0.091 A 
ATOM      3  C   LIG A   1       0.378   2.883   0.131  0.00  0.00    +0.132 A 
ATOM      4  C   LIG A   1       0.291   1.504  -0.108  0.00  0.00    +0.075 A 
ATOM      5  C   LIG A   1       0.842   0.871  -1.336  0.00  0.00    +0.202 C 
ATOM      6  O   LIG A   1       1.406   1.512  -2.218  0.00  0.00    -0.286 OA
ATOM      7  C   LIG A   1       0.720  -0.589  -1.528  0.00  0.00    +0.074 A 
ATOM      8  C   LIG A   1       1.229  -1.208  -2.679  0.00  0.00    +0.129 A 
ATOM      9  C   LIG A   1       1.114  -2.587  -2.861  0.00  0.00    +0.049 A 
ATOM     10  C   LIG A   1       0.491  -3.377  -1.891  0.00  0.00    -0.046 A 
ATOM     11  C   LIG A   1       0.342  -4.857  -2.082  0.00  0.00    +0.044 C 
ATOM     12  C   LIG A   1      -0.026  -2.760  -0.745  0.00  0.00    +0.016 A 
ATOM     13  C   LIG A   1       0.091  -1.373  -0.566  0.00  0.00    +0.037 A 
ATOM     14  C   LIG A   1      -0.460  -0.755   0.652  0.00  0.00    +0.195 C 
ATOM     15  O   LIG A   1      -1.016  -1.446   1.498  0.00  0.00    -0.287 OA
ATOM     16  C   LIG A   1      -0.339   0.703   0.848  0.00  0.00    +0.040 A 
ATOM     17  C   LIG A   1      -0.874   1.264   2.022  0.00  0.00    +0.058 A 
ENDROOT
BRANCH   1  19
ATOM     18  C   LIG A   1      -1.903   2.528   4.346  0.00  0.00    +0.277 C 
ATOM     19  O   LIG A   1      -1.256   3.303   3.342  0.00  0.00    -0.495 OA
ENDBRANCH   1  19
BRANCH   3  20
ATOM     20  O   LIG A   1       0.982   3.715  -0.767  0.00  0.00    -0.506 OA
ATOM     21  H   LIG A   1       0.957   4.633  -0.452  0.00  0.00    +0.292 HD
ENDBRANCH   3  20
BRANCH   8  22
ATOM     22  O   LIG A   1       1.860  -0.520  -3.682  0.00  0.00    -0.506 OA
ATOM     23  H   LIG A   1       1.876   0.433  -3.431  0.00  0.00    +0.292 HD
ENDBRANCH   8  22
TORSDOF 3
