@<TRIPOS>MOLECULE
NuBBE_2471
 68 69 0 0 0
SMALL
GASTEIGER

@<TRIPOS>ATOM
      1 C          -2.0215    3.6275    3.1019 C.3     1  LIG1        0.0790
      2 O          -2.4609    3.0582    1.8731 O.3     1  LIG1       -0.4914
      3 C          -3.0492    1.8214    1.9302 C.ar    1  LIG1        0.1617
      4 C          -4.0481    1.3820    2.8069 C.ar    1  LIG1        0.1615
      5 O          -4.5863    1.9989    3.9050 O.3     1  LIG1       -0.4915
      6 C          -4.8828    3.3886    3.9278 C.3     1  LIG1        0.0790
      7 C          -4.5325    0.0693    2.6318 C.ar    1  LIG1       -0.0160
      8 C          -3.9885   -0.8156    1.6841 C.ar    1  LIG1       -0.0549
      9 C          -2.9202   -0.4240    0.8798 C.ar    1  LIG1       -0.0433
     10 C          -2.2237   -1.4484   -0.0150 C.3     1  LIG1       -0.0213
     11 C          -0.6654   -1.5213    0.1194 C.3     1  LIG1        0.0035
     12 H          -0.3757   -0.4763    0.0497 H       1  LIG1        0.0341
     13 C           0.0055   -2.2447   -1.1193 C.3     1  LIG1        0.0035
     14 H          -0.5260   -1.9747   -2.0387 H       1  LIG1        0.0341
     15 C           0.0172   -3.8012   -1.0024 C.3     1  LIG1        0.0959
     16 O           0.5339   -4.3854   -2.2285 O.3     1  LIG1       -0.4645
     17 C           1.8642   -4.7713   -2.2126 C.2     1  LIG1        0.3040
     18 C           2.3558   -4.9787   -3.6419 C.3     1  LIG1        0.0332
     19 O           2.5601   -4.8349   -1.2752 O.2     1  LIG1       -0.2512
     20 C           1.4376   -1.7371   -1.3668 C.3     1  LIG1       -0.0213
     21 C           1.6270   -0.2316   -1.4422 C.ar    1  LIG1       -0.0433
     22 C           1.7675    0.5766   -0.3306 C.ar    1  LIG1       -0.0549
     23 C           2.1500    1.8888   -0.1807 C.ar    1  LIG1       -0.0160
     24 C           2.2052    2.6186   -1.3161 C.ar    1  LIG1        0.1615
     25 O           2.4559    3.9610   -1.2518 O.3     1  LIG1       -0.4915
     26 C           3.1999    4.4104   -0.0979 C.3     1  LIG1        0.0790
     27 C           1.9102    1.9156   -2.5165 C.ar    1  LIG1        0.1617
     28 O           1.7873    2.6483   -3.6693 O.3     1  LIG1       -0.4914
     29 C           0.8548    2.0379   -4.5588 C.3     1  LIG1        0.0790
     30 C           1.7220    0.4903   -2.5800 C.ar    1  LIG1       -0.0131
     31 C          -0.1486   -2.0098    1.5221 C.3     1  LIG1        0.0959
     32 O           1.3046   -2.2288    1.5406 O.3     1  LIG1       -0.4645
     33 C           2.1775   -1.2066    1.8636 C.2     1  LIG1        0.3040
     34 C           3.4788   -1.3321    0.9321 C.3     1  LIG1        0.0332
     35 O           1.8644   -0.2356    2.5230 O.2     1  LIG1       -0.2512
     36 C          -2.5486    0.9329    0.9383 C.ar    1  LIG1       -0.0131
     37 H          -2.4028    3.1168    3.9884 H       1  LIG1        0.0660
     38 H          -2.3438    4.6782    3.1047 H       1  LIG1        0.0660
     39 H          -0.9356    3.6277    3.1765 H       1  LIG1        0.0660
     40 H          -4.8864    3.7174    4.9767 H       1  LIG1        0.0660
     41 H          -5.8525    3.5899    3.4783 H       1  LIG1        0.0660
     42 H          -4.1872    4.0330    3.4147 H       1  LIG1        0.0660
     43 H          -5.3484   -0.2877    3.2588 H       1  LIG1        0.0655
     44 H          -4.4033   -1.8178    1.5949 H       1  LIG1        0.0621
     45 H          -2.4965   -1.1934   -1.0494 H       1  LIG1        0.0317
     46 H          -2.6370   -2.4475    0.1684 H       1  LIG1        0.0317
     47 H          -1.0105   -4.1625   -0.8793 H       1  LIG1        0.0700
     48 H           0.5804   -4.1611   -0.1347 H       1  LIG1        0.0700
     49 H           1.6087   -4.6916   -4.3845 H       1  LIG1        0.0342
     50 H           2.6393   -6.0213   -3.7916 H       1  LIG1        0.0342
     51 H           3.2276   -4.3326   -3.7808 H       1  LIG1        0.0342
     52 H           1.9098   -2.1839   -2.2491 H       1  LIG1        0.0317
     53 H           2.0185   -2.2163   -0.5877 H       1  LIG1        0.0317
     54 H           1.5948    0.1569    0.5997 H       1  LIG1        0.0621
     55 H           2.3366    2.2376    0.8318 H       1  LIG1        0.0655
     56 H           3.9398    3.6826    0.2670 H       1  LIG1        0.0660
     57 H           2.5434    4.7032    0.7356 H       1  LIG1        0.0660
     58 H           3.7631    5.2915   -0.4099 H       1  LIG1        0.0660
     59 H          -0.1228    1.8922   -4.0760 H       1  LIG1        0.0660
     60 H           1.2285    1.0846   -4.9495 H       1  LIG1        0.0660
     61 H           0.7492    2.6914   -5.4165 H       1  LIG1        0.0660
     62 H           1.6120   -0.0786   -3.4939 H       1  LIG1        0.0658
     63 H          -0.5695   -2.9954    1.7468 H       1  LIG1        0.0700
     64 H          -0.4792   -1.3359    2.3231 H       1  LIG1        0.0700
     65 H           3.4429   -0.8730   -0.0668 H       1  LIG1        0.0342
     66 H           3.6529   -2.3731    0.6598 H       1  LIG1        0.0342
     67 H           4.3513   -0.8269    1.3335 H       1  LIG1        0.0342
     68 H          -1.8242    1.3273    0.2259 H       1  LIG1        0.0658
@<TRIPOS>BOND
     1     1     2    1
     2     2     3    1
     3     3     4   ar
     4     4     5    1
     5     5     6    1
     6     4     7   ar
     7     7     8   ar
     8     8     9   ar
     9     9    10    1
    10    13    15    1
    11    15    16    1
    12    16    17    1
    13    17    18    1
    14    17    19    2
    15    13    20    1
    16    20    21    1
    17    21    22   ar
    18    22    23   ar
    19    23    24   ar
    20    24    25    1
    21    25    26    1
    22    24    27   ar
    23    27    28    1
    24    28    29    1
    25    27    30   ar
    26    21    30   ar
    27    11    31    1
    28    31    32    1
    29    32    33    1
    30    33    34    1
    31    33    35    2
    32     9    36   ar
    33     3    36   ar
    34    11    12    1
    35    11    10    1
    36    13    14    1
    37    13    11    1
    38     1    37    1
    39     1    38    1
    40     1    39    1
    41     6    40    1
    42     6    41    1
    43     6    42    1
    44     7    43    1
    45     8    44    1
    46    10    45    1
    47    10    46    1
    48    15    47    1
    49    15    48    1
    50    18    49    1
    51    18    50    1
    52    18    51    1
    53    20    52    1
    54    20    53    1
    55    22    54    1
    56    23    55    1
    57    26    56    1
    58    26    57    1
    59    26    58    1
    60    29    59    1
    61    29    60    1
    62    29    61    1
    63    30    62    1
    64    31    63    1
    65    31    64    1
    66    34    65    1
    67    34    66    1
    68    34    67    1
    69    36    68    1
