@<TRIPOS>MOLECULE
NuBBE_1011
 20 21 0 0 0
SMALL
GASTEIGER

@<TRIPOS>ATOM
      1 O          -2.4282    1.4097   -0.2908 O.3     1  LIG1       -0.5060
      2 C          -1.0685    1.3252   -0.1306 C.ar    1  LIG1        0.1280
      3 C          -0.3990    0.0784   -0.0397 C.ar    1  LIG1        0.0649
      4 C           1.0009    0.1005    0.1625 C.ar    1  LIG1       -0.0109
      5 C           1.7106   -1.1082    0.2717 C.ar    1  LIG1       -0.0537
      6 C           1.0594   -2.3376    0.1615 C.ar    1  LIG1       -0.0577
      7 C          -0.3129   -2.3806   -0.0549 C.ar    1  LIG1       -0.0194
      8 C          -1.0300   -1.1871   -0.1487 C.ar    1  LIG1        0.1280
      9 O          -2.3878   -1.2366   -0.3654 O.3     1  LIG1       -0.5060
     10 C           1.6778    1.3311    0.2446 C.ar    1  LIG1       -0.0537
     11 C           0.9907    2.5399    0.1225 C.ar    1  LIG1       -0.0577
     12 C          -0.3858    2.5371   -0.0607 C.ar    1  LIG1       -0.0194
     13 H          -2.7556    0.4864   -0.2978 H       1  LIG1        0.2922
     14 H           2.7856   -1.0995    0.4388 H       1  LIG1        0.0624
     15 H           1.6292   -3.2602    0.2407 H       1  LIG1        0.0619
     16 H          -0.8039   -3.3446   -0.1454 H       1  LIG1        0.0654
     17 H          -2.6360   -2.1645   -0.5248 H       1  LIG1        0.2922
     18 H           2.7546    1.3572    0.3956 H       1  LIG1        0.0624
     19 H           1.5307    3.4816    0.1720 H       1  LIG1        0.0619
     20 H          -0.9318    3.4718   -0.1510 H       1  LIG1        0.0654
@<TRIPOS>BOND
     1     1     2    1
     2     2     3   ar
     3     3     4   ar
     4     4     5   ar
     5     5     6   ar
     6     6     7   ar
     7     7     8   ar
     8     3     8   ar
     9     8     9    1
    10     4    10   ar
    11    10    11   ar
    12    11    12   ar
    13     2    12   ar
    14     1    13    1
    15     5    14    1
    16     6    15    1
    17     7    16    1
    18     9    17    1
    19    10    18    1
    20    11    19    1
    21    12    20    1
