REMARK  Name = NuBBE_685
REMARK  12 active torsions:
REMARK  status: ('A' for Active; 'I' for Inactive)
REMARK    1  A    between atoms: C_3  and  C_5
REMARK    2  A    between atoms: C_5  and  C_6
REMARK    3  A    between atoms: C_6  and  C_8
REMARK    4  A    between atoms: C_6  and  C_9
REMARK    5  A    between atoms: C_9  and  O_11
REMARK    6  A    between atoms: C_9  and  C_12
REMARK    7  A    between atoms: C_15  and  C_35
REMARK    8  A    between atoms: C_21  and  C_22
REMARK    9  A    between atoms: C_23  and  C_24
REMARK   10  A    between atoms: C_24  and  C_26
REMARK   11  A    between atoms: C_24  and  C_27
REMARK   12  A    between atoms: C_27  and  C_30
REMARK                            x       y       z     vdW  Elec       q    Type
REMARK                         _______ _______ _______ _____ _____    ______ ____
ROOT
ATOM      1  O   LIG A   1      -4.828  -2.997   0.275  0.00  0.00    -0.250 OA
ATOM      2  C   LIG A   1      -3.969  -2.409  -0.379  0.00  0.00    +0.319 C 
ATOM      3  C   LIG A   1      -2.909  -1.506   0.196  0.00  0.00    +0.176 C 
ATOM      4  O   LIG A   1      -3.858  -2.504  -1.745  0.00  0.00    -0.449 OA
ATOM      5  C   LIG A   1      -2.640  -1.884  -2.141  0.00  0.00    +0.181 C 
ATOM      6  C   LIG A   1      -2.508  -0.791  -1.093  0.00  0.00    +0.095 C 
ATOM      7  C   LIG A   1      -1.294   0.069  -1.252  0.00  0.00    +0.005 C 
ATOM      8  C   LIG A   1      -0.712   0.735  -0.242  0.00  0.00    +0.200 C 
ATOM      9  O   LIG A   1       0.376   1.564  -0.386  0.00  0.00    -0.463 OA
ATOM     10  C   LIG A   1       0.962   1.691  -1.643  0.00  0.00    +0.128 C 
ATOM     11  C   LIG A   1       0.449   1.096  -2.738  0.00  0.00    +0.056 C 
ATOM     12  C   LIG A   1      -0.769   0.283  -2.618  0.00  0.00    +0.007 C 
ATOM     13  C   LIG A   1      -1.400  -0.253  -3.690  0.00  0.00    +0.095 C 
ATOM     14 CL   LIG A   1      -0.908  -0.028  -5.332  0.00  0.00    -0.079 Cl
ATOM     15  C   LIG A   1      -1.588  -3.001  -2.231  0.00  0.00    +0.065 C 
ATOM     16  C   LIG A   1      -2.597  -1.151  -3.489  0.00  0.00    +0.218 C 
ATOM     17  O   LIG A   1      -3.451  -1.306  -4.361  0.00  0.00    -0.287 OA
ENDROOT
BRANCH   3  18
ATOM     18  C   LIG A   1      -1.817  -2.268   0.931  0.00  0.00    +0.153 C 
ATOM     19  O   LIG A   1      -0.638  -2.205   0.572  0.00  0.00    -0.296 OA
BRANCH  18  20
ATOM     20  C   LIG A   1      -2.203  -3.105   2.149  0.00  0.00    +0.081 C 
ATOM     21  C   LIG A   1      -1.837  -4.560   1.854  0.00  0.00    +0.018 C 
BRANCH  20  22
ATOM     22  C   LIG A   1      -1.482  -2.556   3.390  0.00  0.00    +0.121 C 
ATOM     23  C   LIG A   1      -1.810  -3.338   4.660  0.00  0.00    +0.038 C 
BRANCH  22  24
ATOM     24  O   LIG A   1      -1.905  -1.202   3.587  0.00  0.00    -0.391 OA
ATOM     25  H   LIG A   1      -1.375  -0.844   4.323  0.00  0.00    +0.210 HD
ENDBRANCH  22  24
ENDBRANCH  20  22
ENDBRANCH  18  20
ENDBRANCH   3  18
BRANCH  10  26
ATOM     26  C   LIG A   1       2.159   2.510  -1.671  0.00  0.00    +0.042 C 
ATOM     27  C   LIG A   1       2.664   3.151  -0.603  0.00  0.00    -0.020 C 
BRANCH  27  28
ATOM     28  C   LIG A   1       3.892   4.030  -0.635  0.00  0.00    +0.008 C 
ATOM     29  C   LIG A   1       3.458   5.478  -0.868  0.00  0.00    +0.012 C 
BRANCH  28  30
ATOM     30  C   LIG A   1       4.691   3.854   0.672  0.00  0.00    +0.004 C 
ATOM     31  C   LIG A   1       5.957   4.697   0.737  0.00  0.00    +0.004 C 
ENDBRANCH  28  30
ENDBRANCH  27  28
ENDBRANCH  10  26
TORSDOF 7
