@<TRIPOS>MOLECULE
NuBBE_2197
 49 51 0 0 0
SMALL
GASTEIGER

@<TRIPOS>ATOM
      1 C          -1.8102    0.6398   -1.1310 C.3     1  LIG1       -0.0552
      2 C          -0.4839   -0.1590   -0.9987 C.3     1  LIG1       -0.0030
      3 C          -0.6304   -1.5827   -0.3403 C.3     1  LIG1       -0.0195
      4 C          -1.4346   -1.4824    0.9593 C.3     1  LIG1        0.0143
      5 C          -0.8037   -0.4692    1.8956 C.2     1  LIG1        0.1598
      6 C           0.1894    0.5131    1.3500 C.2     1  LIG1       -0.0002
      7 C           0.3621    0.6571    0.0122 C.2     1  LIG1       -0.0349
      8 C           1.3403    1.6349   -0.4459 C.2     1  LIG1       -0.0608
      9 C           1.8329    2.5874    0.3615 C.2     1  LIG1       -0.0738
     10 C           1.4528    2.7101    1.8256 C.3     1  LIG1        0.0080
     11 C           2.6951    3.1014    2.6222 C.2     1  LIG1       -0.0812
     12 C           2.8846    4.1952    3.3741 C.2     1  LIG1       -0.1018
     13 C           0.3149    3.7513    1.9148 C.3     1  LIG1       -0.0523
     14 C           0.9423    1.3407    2.3674 C.3     1  LIG1       -0.0118
     15 O          -1.1115   -0.4472    3.0871 O.2     1  LIG1       -0.2924
     16 H           0.3848   -1.8672   -0.0075 H       1  LIG1        0.0318
     17 C          -1.0188   -2.7476   -1.3080 C.3     1  LIG1       -0.0309
     18 C          -1.0230   -4.1010   -0.5559 C.3     1  LIG1       -0.0595
     19 C          -2.4203   -2.5897   -1.9263 C.3     1  LIG1       -0.0595
     20 C           0.0500   -2.8461   -2.4409 C.3     1  LIG1       -0.0476
     21 C           0.9029   -1.5863   -2.6254 C.3     1  LIG1       -0.0518
     22 C           0.0734   -0.3251   -2.4457 C.3     1  LIG1       -0.0433
     23 H          -2.2621    0.8893   -0.1648 H       1  LIG1        0.0238
     24 H          -2.5674    0.1041   -1.7060 H       1  LIG1        0.0238
     25 H          -1.6334    1.5927   -1.6465 H       1  LIG1        0.0238
     26 H          -1.4210   -2.4393    1.4908 H       1  LIG1        0.0348
     27 H          -2.4777   -1.2045    0.7838 H       1  LIG1        0.0348
     28 H           1.6818    1.6246   -1.4735 H       1  LIG1        0.0618
     29 H           2.5214    3.3245   -0.0468 H       1  LIG1        0.0581
     30 H           3.5244    2.3945    2.5617 H       1  LIG1        0.0575
     31 H           2.1265    4.9601    3.5017 H       1  LIG1        0.0532
     32 H           3.8274    4.3493    3.8916 H       1  LIG1        0.0532
     33 H          -0.5642    3.4396    1.3377 H       1  LIG1        0.0241
     34 H           0.6274    4.7276    1.5241 H       1  LIG1        0.0241
     35 H          -0.0158    3.8954    2.9502 H       1  LIG1        0.0241
     36 H           0.3205    1.5282    3.2523 H       1  LIG1        0.0326
     37 H           1.7821    0.7226    2.7165 H       1  LIG1        0.0326
     38 H          -1.8504   -4.1672    0.1584 H       1  LIG1        0.0235
     39 H          -0.0867   -4.2533   -0.0073 H       1  LIG1        0.0235
     40 H          -1.1364   -4.9388   -1.2543 H       1  LIG1        0.0235
     41 H          -3.1786   -2.3912   -1.1624 H       1  LIG1        0.0235
     42 H          -2.7208   -3.5055   -2.4501 H       1  LIG1        0.0235
     43 H          -2.4605   -1.7904   -2.6692 H       1  LIG1        0.0235
     44 H          -0.4407   -3.0846   -3.3937 H       1  LIG1        0.0271
     45 H           0.7403   -3.6790   -2.2536 H       1  LIG1        0.0271
     46 H           1.3479   -1.6011   -3.6273 H       1  LIG1        0.0266
     47 H           1.7396   -1.5880   -1.9164 H       1  LIG1        0.0266
     48 H          -0.7587   -0.3793   -3.1608 H       1  LIG1        0.0274
     49 H           0.6460    0.5423   -2.7800 H       1  LIG1        0.0274
@<TRIPOS>BOND
     1     1     2    1
     2     2     3    1
     3     3     4    1
     4     4     5    1
     5     5     6    1
     6     6     7    2
     7     2     7    1
     8     7     8    1
     9     8     9    2
    10     9    10    1
    11    11    12    2
    12    10    14    1
    13     6    14    1
    14     5    15    2
    15     3    16    1
    16     3    17    1
    17    17    18    1
    18    17    19    1
    19    17    20    1
    20    20    21    1
    21    21    22    1
    22     2    22    1
    23    10    13    1
    24    10    11    1
    25     1    23    1
    26     1    24    1
    27     1    25    1
    28     4    26    1
    29     4    27    1
    30     8    28    1
    31     9    29    1
    32    11    30    1
    33    12    31    1
    34    12    32    1
    35    13    33    1
    36    13    34    1
    37    13    35    1
    38    14    36    1
    39    14    37    1
    40    18    38    1
    41    18    39    1
    42    18    40    1
    43    19    41    1
    44    19    42    1
    45    19    43    1
    46    20    44    1
    47    20    45    1
    48    21    46    1
    49    21    47    1
    50    22    48    1
    51    22    49    1
