@<TRIPOS>MOLECULE
NuBBE_138
 18 18 0 0 0
SMALL
GASTEIGER

@<TRIPOS>ATOM
      1 O          -2.9358   -0.3989    0.0127 O.3     1  LIG1       -0.5032
      2 C          -1.5707   -0.3527    0.0019 C.ar    1  LIG1        0.1628
      3 C          -0.9035    0.8710    0.0365 C.ar    1  LIG1       -0.0023
      4 C           0.5007    0.8969    0.0247 C.ar    1  LIG1        0.0660
      5 C           1.2586    2.1702    0.0605 C.2     1  LIG1        0.3370
      6 O           0.4626    3.2519    0.1102 O.3     1  LIG1       -0.4771
      7 O           2.4711    2.2732    0.0488 O.2     1  LIG1       -0.2451
      8 C           1.2319   -0.2999   -0.0220 C.ar    1  LIG1       -0.0023
      9 C           0.5496   -1.5102   -0.0558 C.ar    1  LIG1        0.1628
     10 O           1.2114   -2.7074   -0.1015 O.3     1  LIG1       -0.5032
     11 C          -0.8446   -1.5397   -0.0440 C.ar    1  LIG1        0.2006
     12 O          -1.4830   -2.7493   -0.0781 O.3     1  LIG1       -0.5009
     13 H          -3.2921    0.5022    0.0455 H       1  LIG1        0.2923
     14 H          -1.4646    1.8000    0.0724 H       1  LIG1        0.0663
     15 H           1.0882    4.0070    0.1302 H       1  LIG1        0.2954
     16 H           2.3180   -0.2696   -0.0309 H       1  LIG1        0.0663
     17 H           2.1689   -2.5327   -0.1046 H       1  LIG1        0.2923
     18 H          -0.7667   -3.4120   -0.1063 H       1  LIG1        0.2924
@<TRIPOS>BOND
     1     1     2    1
     2     2     3   ar
     3     3     4   ar
     4     4     5    1
     5     5     6    1
     6     5     7    2
     7     4     8   ar
     8     8     9   ar
     9     9    10    1
    10     9    11   ar
    11     2    11   ar
    12    11    12    1
    13     1    13    1
    14     3    14    1
    15     6    15    1
    16     8    16    1
    17    10    17    1
    18    12    18    1
