REMARK  Name = NuBBE_2505
REMARK  8 active torsions:
REMARK  status: ('A' for Active; 'I' for Inactive)
REMARK    1  A    between atoms: C_1  and  C_2
REMARK    2  A    between atoms: C_2  and  C_3
REMARK    3  A    between atoms: C_2  and  C_4
REMARK    4  A    between atoms: C_8  and  O_9
REMARK    5  A    between atoms: C_10  and  O_11
REMARK    6  A    between atoms: C_16  and  C_17
REMARK    7  A    between atoms: C_16  and  C_18
REMARK    8  A    between atoms: C_20  and  O_22
REMARK                            x       y       z     vdW  Elec       q    Type
REMARK                         _______ _______ _______ _____ _____    ______ ____
ROOT
ATOM      1  C   LIG A   1      -1.337   0.996  -2.714  0.00  0.00    +0.001 A 
ATOM      2  C   LIG A   1      -0.323   1.614  -1.966  0.00  0.00    +0.015 A 
ATOM      3  C   LIG A   1      -0.083   1.214  -0.651  0.00  0.00    +0.004 A 
ATOM      4  C   LIG A   1      -0.855   0.209  -0.021  0.00  0.00    +0.022 A 
ATOM      5  C   LIG A   1      -1.851  -0.403  -0.761  0.00  0.00    +0.163 A 
ATOM      6  C   LIG A   1      -2.068  -0.030  -2.097  0.00  0.00    +0.162 A 
ATOM      7  C   LIG A   1      -0.400  -0.028   1.436  0.00  0.00    +0.102 C 
ATOM      8  C   LIG A   1      -1.235  -1.003   2.290  0.00  0.00    +0.023 C 
ATOM      9  C   LIG A   1      -0.720  -2.431   2.192  0.00  0.00    +0.002 C 
ATOM     10  C   LIG A   1       0.703  -2.569   2.743  0.00  0.00    +0.007 C 
ATOM     11  C   LIG A   1       1.637  -1.335   2.513  0.00  0.00    -0.028 C 
ATOM     12  C   LIG A   1       3.050  -1.888   2.217  0.00  0.00    +0.011 C 
ATOM     13  C   LIG A   1       1.723  -0.529   3.827  0.00  0.00    +0.011 C 
ATOM     14  C   LIG A   1       1.101  -0.511   1.300  0.00  0.00    +0.049 C 
ATOM     15  C   LIG A   1       1.951   0.656   0.695  0.00  0.00    +0.165 C 
ATOM     16  C   LIG A   1       0.993   1.789   0.238  0.00  0.00    +0.236 C 
ATOM     17  O   LIG A   1       0.322   2.309   1.406  0.00  0.00    -0.453 OA
ATOM     18  C   LIG A   1      -0.393   1.376   2.108  0.00  0.00    +0.319 C 
ATOM     19  O   LIG A   1      -0.996   1.673   3.133  0.00  0.00    -0.250 OA
ENDROOT
BRANCH   1  21
ATOM     20  C   LIG A   1      -0.452   0.962  -5.066  0.00  0.00    +0.012 C 
ATOM     21  C   LIG A   1      -1.603   1.398  -4.156  0.00  0.00    +0.017 C 
ATOM     22  C   LIG A   1      -1.869   2.901  -4.298  0.00  0.00    +0.012 C 
ENDBRANCH   1  21
BRANCH   5  23
ATOM     23  O   LIG A   1      -2.649  -1.373  -0.234  0.00  0.00    -0.503 OA
ATOM     24  H   LIG A   1      -3.564  -1.098  -0.438  0.00  0.00    +0.292 HD
ENDBRANCH   5  23
BRANCH   6  25
ATOM     25  O   LIG A   1      -3.003  -0.728  -2.819  0.00  0.00    -0.503 OA
ATOM     26  H   LIG A   1      -3.003  -1.632  -2.453  0.00  0.00    +0.292 HD
ENDBRANCH   6  25
BRANCH  15  27
ATOM     27  O   LIG A   1       2.898   1.196   1.606  0.00  0.00    -0.387 OA
ATOM     28  H   LIG A   1       3.776   0.846   1.379  0.00  0.00    +0.210 HD
ENDBRANCH  15  27
TORSDOF 4
