@<TRIPOS>MOLECULE
NuBBE_2193
 57 59 0 0 0
SMALL
GASTEIGER

@<TRIPOS>ATOM
      1 C          -2.3923   -0.2524   -0.8091 C.3     1  LIG1       -0.0589
      2 C          -1.0475   -0.5616   -0.0916 C.3     1  LIG1       -0.0231
      3 C          -0.1193   -1.5286   -0.9080 C.3     1  LIG1       -0.0254
      4 C           0.6197   -0.7825   -2.0267 C.3     1  LIG1       -0.0202
      5 C           1.5567    0.3073   -1.4739 C.3     1  LIG1        0.0845
      6 H           1.5710    1.1176   -2.2119 H       1  LIG1        0.0622
      7 O           2.8897   -0.2179   -1.4234 O.3     1  LIG1       -0.3889
      8 C           1.1750    0.8521   -0.0562 C.3     1  LIG1        0.0959
      9 O           1.7892   -0.0311    0.8999 O.3     1  LIG1       -0.3857
     10 C          -0.3627    0.8629    0.0922 C.3     1  LIG1       -0.0040
     11 H          -0.7092    1.4845   -0.7499 H       1  LIG1        0.0335
     12 C          -0.8145    1.6166    1.3573 C.3     1  LIG1       -0.0462
     13 C          -0.2763    3.0453    1.3664 C.3     1  LIG1       -0.0437
     14 C           1.2640    3.1265    1.3019 C.3     1  LIG1       -0.0116
     15 C           1.6150    4.5940    1.0183 C.2     1  LIG1       -0.0851
     16 C           1.9658    5.5413    1.8970 C.2     1  LIG1       -0.1021
     17 C           1.8857    2.6588    2.6355 C.3     1  LIG1       -0.0560
     18 C           1.7961    2.2643    0.1189 C.3     1  LIG1       -0.0124
     19 H           0.6760   -1.8297   -0.2102 H       1  LIG1        0.0313
     20 C          -0.7881   -2.8924   -1.3242 C.3     1  LIG1       -0.0055
     21 C           0.3315   -3.9663   -1.4378 C.3     1  LIG1       -0.0572
     22 C          -1.5003   -2.8337   -2.7012 C.3     1  LIG1        0.0498
     23 O          -2.0945   -4.0807   -3.0511 O.3     1  LIG1       -0.3945
     24 C          -1.7751   -3.3666   -0.2163 C.3     1  LIG1       -0.0452
     25 C          -1.4328   -2.8178    1.1666 C.3     1  LIG1       -0.0520
     26 C          -1.3725   -1.2824    1.2489 C.3     1  LIG1       -0.0470
     27 H          -2.2279    0.1150   -1.8274 H       1  LIG1        0.0235
     28 H          -2.9529    0.5245   -0.2763 H       1  LIG1        0.0235
     29 H          -3.0667   -1.1056   -0.8670 H       1  LIG1        0.0235
     30 H          -0.1154   -0.3099   -2.6886 H       1  LIG1        0.0294
     31 H           1.1991   -1.4784   -2.6429 H       1  LIG1        0.0294
     32 H           2.9927   -0.5398   -0.5024 H       1  LIG1        0.2099
     33 H           1.2895    0.0041    1.7309 H       1  LIG1        0.2103
     34 H          -0.4953    1.1060    2.2702 H       1  LIG1        0.0269
     35 H          -1.9086    1.6643    1.3963 H       1  LIG1        0.0269
     36 H          -0.6446    3.5565    2.2658 H       1  LIG1        0.0274
     37 H          -0.7166    3.5813    0.5135 H       1  LIG1        0.0274
     38 H           1.5383    4.9082   -0.0246 H       1  LIG1        0.0572
     39 H           2.0405    5.3608    2.9641 H       1  LIG1        0.0532
     40 H           2.1712    6.5546    1.5600 H       1  LIG1        0.0532
     41 H           1.6795    1.6112    2.8578 H       1  LIG1        0.0238
     42 H           1.4926    3.2280    3.4858 H       1  LIG1        0.0238
     43 H           2.9754    2.7795    2.6266 H       1  LIG1        0.0238
     44 H           2.8882    2.1754    0.2043 H       1  LIG1        0.0302
     45 H           1.6065    2.8179   -0.8117 H       1  LIG1        0.0302
     46 H           0.8741   -4.0799   -0.4928 H       1  LIG1        0.0236
     47 H           1.0610   -3.7066   -2.2118 H       1  LIG1        0.0236
     48 H          -0.0776   -4.9501   -1.6946 H       1  LIG1        0.0236
     49 H          -2.2877   -2.0786   -2.7335 H       1  LIG1        0.0562
     50 H          -0.7908   -2.5914   -3.4987 H       1  LIG1        0.0562
     51 H          -2.8196   -4.2536   -2.4281 H       1  LIG1        0.2094
     52 H          -2.8049   -3.0842   -0.4575 H       1  LIG1        0.0271
     53 H          -1.7930   -4.4630   -0.1647 H       1  LIG1        0.0271
     54 H          -0.4619   -3.2260    1.4760 H       1  LIG1        0.0266
     55 H          -2.1581   -3.1880    1.9011 H       1  LIG1        0.0266
     56 H          -0.6153   -1.0496    2.0053 H       1  LIG1        0.0271
     57 H          -2.3223   -0.9098    1.6534 H       1  LIG1        0.0271
@<TRIPOS>BOND
     1     2     3    1
     2     3     4    1
     3     4     5    1
     4     5     8    1
     5     8    10    1
     6     2    10    1
     7    10    12    1
     8    12    13    1
     9    13    14    1
    10    15    16    2
    11    14    18    1
    12     8    18    1
    13     3    20    1
    14    22    23    1
    15    20    24    1
    16    24    25    1
    17    25    26    1
    18     2    26    1
    19     1     2    1
    20     3    19    1
    21     8     9    1
    22    10    11    1
    23    14    15    1
    24    14    17    1
    25    20    21    1
    26    20    22    1
    27     5     7    1
    28     5     6    1
    29     1    27    1
    30     1    28    1
    31     1    29    1
    32     4    30    1
    33     4    31    1
    34     7    32    1
    35     9    33    1
    36    12    34    1
    37    12    35    1
    38    13    36    1
    39    13    37    1
    40    15    38    1
    41    16    39    1
    42    16    40    1
    43    17    41    1
    44    17    42    1
    45    17    43    1
    46    18    44    1
    47    18    45    1
    48    21    46    1
    49    21    47    1
    50    21    48    1
    51    22    49    1
    52    22    50    1
    53    23    51    1
    54    24    52    1
    55    24    53    1
    56    25    54    1
    57    25    55    1
    58    26    56    1
    59    26    57    1
