REMARK  Name = NuBBE_909
REMARK  8 active torsions:
REMARK  status: ('A' for Active; 'I' for Inactive)
REMARK    1  A    between atoms: S_1  and  C_2
REMARK    2  A    between atoms: S_1  and  C_3
REMARK    3  A    between atoms: C_11  and  O_13
REMARK    4  A    between atoms: C_17  and  C_22
REMARK    5  A    between atoms: C_17  and  S_24
REMARK    6  A    between atoms: N_18  and  C_21
REMARK    7  A    between atoms: C_22  and  O_23
REMARK    8  A    between atoms: S_24  and  C_25
REMARK                            x       y       z     vdW  Elec       q    Type
REMARK                         _______ _______ _______ _____ _____    ______ ____
ROOT
ATOM      1  C   LIG A   1      -0.435   1.343   0.172  0.00  0.00    +0.164 C 
ATOM      2  N   LIG A   1       0.038   0.192  -0.588  0.00  0.00    -0.266 N 
ATOM      3  C   LIG A   1       0.635   0.614  -1.843  0.00  0.00    +0.137 C 
ATOM      4  C   LIG A   1       1.231   1.941  -1.425  0.00  0.00    -0.043 C 
ATOM      5  C   LIG A   1       2.312   2.452  -2.034  0.00  0.00    +0.001 C 
ATOM      6  C   LIG A   1       2.928   1.731  -3.127  0.00  0.00    -0.002 C 
ATOM      7  C   LIG A   1       2.681   0.424  -3.320  0.00  0.00    +0.006 C 
ATOM      8  C   LIG A   1       1.692  -0.338  -2.475  0.00  0.00    +0.162 C 
ATOM      9  C   LIG A   1       0.601   2.434  -0.147  0.00  0.00    +0.079 C 
ATOM     10  C   LIG A   1      -0.494  -1.060  -0.367  0.00  0.00    +0.254 C 
ATOM     11  O   LIG A   1      -0.534  -1.903  -1.261  0.00  0.00    -0.272 OA
ATOM     12  C   LIG A   1      -0.689  -1.403   1.159  0.00  0.00    +0.183 C 
ATOM     13  N   LIG A   1      -1.163  -0.223   1.946  0.00  0.00    -0.278 N 
ATOM     14  C   LIG A   1      -0.596   1.041   1.684  0.00  0.00    +0.251 C 
ATOM     15  O   LIG A   1      -0.501   1.927   2.531  0.00  0.00    -0.272 OA
ATOM     16  C   LIG A   1      -1.699  -0.439   3.283  0.00  0.00    +0.134 C 
ENDROOT
BRANCH   1  17
ATOM     17  S   LIG A   1      -2.139   1.799  -0.490  0.00  0.00    -0.129 S 
ATOM     18  C   LIG A   1      -2.552   3.211   0.573  0.00  0.00    +0.087 C 
ENDBRANCH   1  17
BRANCH   8  19
ATOM     19  O   LIG A   1       1.062  -1.292  -3.331  0.00  0.00    -0.386 OA
ATOM     20  H   LIG A   1       0.376  -1.730  -2.781  0.00  0.00    +0.210 HD
ENDBRANCH   8  19
BRANCH  12  21
ATOM     21  S   LIG A   1       1.042  -1.808   1.826  0.00  0.00    -0.127 S 
ATOM     22  C   LIG A   1       1.512  -3.229   0.809  0.00  0.00    +0.087 C 
ENDBRANCH  12  21
BRANCH  12  23
ATOM     23  C   LIG A   1      -1.650  -2.629   1.213  0.00  0.00    +0.202 C 
BRANCH  23  24
ATOM     24  O   LIG A   1      -1.809  -3.197   2.516  0.00  0.00    -0.392 OA
ATOM     25  H   LIG A   1      -2.505  -3.875   2.451  0.00  0.00    +0.209 HD
ENDBRANCH  23  24
ENDBRANCH  12  23
TORSDOF 5
