@<TRIPOS>MOLECULE
NuBBE_521
 74 77 0 0 0
SMALL
GASTEIGER

@<TRIPOS>ATOM
      1 CL         -3.2496    3.0727    0.1505 Cl      1  LIG1       -0.0791
      2 C          -1.7797    2.5518    0.9059 C.2     1  LIG1        0.0956
      3 C          -0.7393    3.6347    1.1383 C.2     1  LIG1        0.2224
      4 C           0.5718    3.2574    1.8756 C.3     1  LIG1        0.2000
      5 O           1.7195    3.9236    1.3544 O.3     1  LIG1       -0.4418
      6 C           0.4633    3.6238    3.3558 C.3     1  LIG1       -0.0130
      7 C           0.8672    1.8323    1.6170 C.2     1  LIG1        0.0312
      8 C           2.0119    1.6687    0.9435 C.2     1  LIG1        0.1097
      9 C           2.4848    0.4162    0.3036 C.2     1  LIG1        0.1767
     10 C           3.7422    0.3841   -0.5679 C.3     1  LIG1        0.0563
     11 H           3.9958    1.3972   -0.8855 H       1  LIG1        0.0414
     12 C           4.8300   -0.1859    0.3407 C.3     1  LIG1       -0.0519
     13 C           3.5528   -0.4778   -1.8464 C.3     1  LIG1        0.1099
     14 H           3.2028   -1.4886   -1.6016 H       1  LIG1        0.0738
     15 O           2.6158    0.1858   -2.7276 O.3     1  LIG1       -0.4589
     16 C           1.3125   -0.1903   -2.5613 C.2     1  LIG1        0.3411
     17 C           0.3534    0.5838   -3.4758 C.3     1  LIG1        0.1795
     18 H           0.5594    0.2724   -4.5069 H       1  LIG1        0.0764
     19 O          -1.0272    0.2890   -3.1981 O.3     1  LIG1       -0.3639
     20 C          -1.3973   -1.0653   -3.4437 C.3     1  LIG1        0.0380
     21 C           0.5543    2.0923   -3.3605 C.ar    1  LIG1       -0.0082
     22 C          -0.1446    2.8496   -2.4098 C.ar    1  LIG1       -0.0556
     23 C          -0.0084    4.2387   -2.3574 C.ar    1  LIG1       -0.0614
     24 C           0.8681    4.8882   -3.2199 C.ar    1  LIG1       -0.0617
     25 C           1.6122    4.1474   -4.1332 C.ar    1  LIG1       -0.0614
     26 C           1.4541    2.7602   -4.2068 C.ar    1  LIG1       -0.0556
     27 O           0.9569   -1.0730   -1.8039 O.2     1  LIG1       -0.2475
     28 C           4.8420   -0.6602   -2.6591 C.3     1  LIG1       -0.0270
     29 O           1.8929   -0.6331    0.5558 O.2     1  LIG1       -0.2914
     30 C           2.6126    2.9999    0.9070 C.2     1  LIG1        0.3443
     31 O           3.7581    3.2600    0.5597 O.2     1  LIG1       -0.2448
     32 O          -0.9456    4.7928    0.7693 O.2     1  LIG1       -0.2864
     33 C          -1.5478    1.2686    1.2598 C.2     1  LIG1        0.0108
     34 C          -0.2326    0.9274    1.8149 C.2     1  LIG1        0.0269
     35 C          -0.1370   -0.2352    2.4802 C.2     1  LIG1        0.1006
     36 O          -1.1603   -1.1596    2.5574 O.2     1  LIG1       -0.4629
     37 C          -2.2605   -0.9921    1.7128 C.2     1  LIG1        0.1279
     38 C          -3.0974   -2.1635    1.5584 C.2     1  LIG1       -0.0230
     39 C          -2.8674   -3.3388    2.1664 C.2     1  LIG1       -0.0777
     40 C          -3.7152   -4.5703    1.9766 C.3     1  LIG1       -0.0256
     41 H          -4.6932   -4.2879    1.5656 H       1  LIG1        0.0340
     42 C          -3.0209   -5.4868    0.9662 C.3     1  LIG1       -0.0590
     43 C          -3.9426   -5.2975    3.3156 C.3     1  LIG1       -0.0499
     44 C          -4.6756   -4.4432    4.3453 C.3     1  LIG1       -0.0648
     45 C          -2.4930    0.1698    1.0725 C.2     1  LIG1       -0.0100
     46 H           0.3503    4.7090    3.4696 H       1  LIG1        0.0276
     47 H           1.3755    3.3505    3.8995 H       1  LIG1        0.0276
     48 H          -0.3911    3.1464    3.8468 H       1  LIG1        0.0276
     49 H           4.9592    0.4435    1.2267 H       1  LIG1        0.0238
     50 H           5.7940   -0.2453   -0.1664 H       1  LIG1        0.0238
     51 H           4.5629   -1.1916    0.6906 H       1  LIG1        0.0238
     52 H          -2.4249   -1.2040   -3.0983 H       1  LIG1        0.0524
     53 H          -0.7900   -1.7880   -2.8967 H       1  LIG1        0.0524
     54 H          -1.3406   -1.2912   -4.5107 H       1  LIG1        0.0524
     55 H          -0.8356    2.3558   -1.7346 H       1  LIG1        0.0621
     56 H          -0.6026    4.8258   -1.6613 H       1  LIG1        0.0618
     57 H           0.9622    5.9708   -3.1821 H       1  LIG1        0.0618
     58 H           2.3047    4.6542   -4.8002 H       1  LIG1        0.0618
     59 H           2.0361    2.2057   -4.9391 H       1  LIG1        0.0621
     60 H           5.5950   -1.2308   -2.1076 H       1  LIG1        0.0265
     61 H           5.2737    0.3017   -2.9560 H       1  LIG1        0.0265
     62 H           4.6355   -1.2099   -3.5854 H       1  LIG1        0.0265
     63 H           0.7502   -0.6217    2.9643 H       1  LIG1        0.1036
     64 H          -3.9361   -2.0788    0.8710 H       1  LIG1        0.0651
     65 H          -2.0147   -3.4461    2.8357 H       1  LIG1        0.0576
     66 H          -2.8116   -4.9513    0.0321 H       1  LIG1        0.0235
     67 H          -3.6527   -6.3458    0.7193 H       1  LIG1        0.0235
     68 H          -2.0674   -5.8649    1.3523 H       1  LIG1        0.0235
     69 H          -2.9806   -5.6124    3.7404 H       1  LIG1        0.0268
     70 H          -4.5227   -6.2126    3.1436 H       1  LIG1        0.0268
     71 H          -4.1640   -3.4926    4.5257 H       1  LIG1        0.0230
     72 H          -4.7321   -4.9713    5.3024 H       1  LIG1        0.0230
     73 H          -5.6960   -4.2257    4.0152 H       1  LIG1        0.0230
     74 H          -3.3358    0.2810    0.3998 H       1  LIG1        0.0661
@<TRIPOS>BOND
     1     2     3    1
     2     3     4    1
     3     4     5    1
     4     4     7    1
     5     7     8    2
     6     9    10    1
     7    10    11    1
     8    10    12    1
     9    10    13    1
    10    13    14    1
    11    13    15    1
    12    15    16    1
    13    16    17    1
    14    17    18    1
    15    17    19    1
    16    19    20    1
    17    17    21    1
    18    21    22   ar
    19    22    23   ar
    20    23    24   ar
    21    24    25   ar
    22    25    26   ar
    23    21    26   ar
    24    16    27    2
    25    13    28    1
    26     9    29    2
    27     8    30    1
    28     5    30    1
    29     2    33    2
    30    33    34    1
    31     7    34    1
    32    34    35    2
    33    35    36    1
    34    36    37    1
    35    38    39    2
    36    39    40    1
    37    40    41    1
    38    40    42    1
    39    40    43    1
    40    43    44    1
    41    37    45    2
    42    33    45    1
    43     1     2    1
    44     3    32    2
    45     4     6    1
    46     8     9    1
    47    30    31    2
    48    37    38    1
    49     6    46    1
    50     6    47    1
    51     6    48    1
    52    12    49    1
    53    12    50    1
    54    12    51    1
    55    20    52    1
    56    20    53    1
    57    20    54    1
    58    22    55    1
    59    23    56    1
    60    24    57    1
    61    25    58    1
    62    26    59    1
    63    28    60    1
    64    28    61    1
    65    28    62    1
    66    35    63    1
    67    38    64    1
    68    39    65    1
    69    42    66    1
    70    42    67    1
    71    42    68    1
    72    43    69    1
    73    43    70    1
    74    44    71    1
    75    44    72    1
    76    44    73    1
    77    45    74    1
