@<TRIPOS>MOLECULE
NuBBE_932
 46 47 0 0 0
SMALL
GASTEIGER

@<TRIPOS>ATOM
      1 C           0.6345   -0.4741    0.0997 C.3     1  LIG1        0.1753
      2 H           1.6674   -0.3412   -0.2480 H       1  LIG1        0.0829
      3 C           0.5073    0.1917    1.5270 C.3     1  LIG1        0.1647
      4 H          -0.5511    0.1574    1.8205 H       1  LIG1        0.0823
      5 O           0.9459    1.5720    1.4540 O.3     1  LIG1       -0.4530
      6 C           0.5996    2.3930    2.4915 C.2     1  LIG1        0.3046
      7 O          -0.2343    2.1563    3.3540 O.2     1  LIG1       -0.2511
      8 C           1.4181    3.6422    2.4493 C.3     1  LIG1        0.0333
      9 C           1.3731   -0.4585    2.6254 C.2     1  LIG1       -0.0358
     10 C           0.9275   -0.5889    3.8898 C.2     1  LIG1       -0.0961
     11 C           2.7840   -0.8539    2.2904 C.3     1  LIG1       -0.0405
     12 O           0.4575   -1.9226    0.2429 O.3     1  LIG1       -0.4524
     13 C           0.3128   -2.7151   -0.8472 C.2     1  LIG1        0.3046
     14 O           0.3676   -2.3637   -2.0306 O.2     1  LIG1       -0.2511
     15 C           0.0389   -4.1251   -0.4402 C.3     1  LIG1        0.0333
     16 C          -0.3160    0.1401   -0.9416 C.ar    1  LIG1        0.0811
     17 C          -1.6052   -0.3886   -1.1735 C.ar    1  LIG1        0.1494
     18 C          -2.3470   -0.0793   -2.3162 C.ar    1  LIG1        0.0182
     19 C          -1.8488    0.8653   -3.2066 C.ar    1  LIG1       -0.0476
     20 C          -0.6248    1.4883   -2.9499 C.ar    1  LIG1       -0.0188
     21 C           0.1431    1.1360   -1.8285 C.ar    1  LIG1        0.1305
     22 O           1.3904    1.6610   -1.5969 O.3     1  LIG1       -0.4946
     23 C           1.5698    3.0161   -2.0029 C.3     1  LIG1        0.0788
     24 C          -3.5807   -0.8009   -2.5915 C.ar    1  LIG1       -0.0443
     25 C          -3.9987   -1.7503   -1.7500 C.ar    1  LIG1        0.0236
     26 C          -3.2564   -2.0931   -0.5286 C.ar    1  LIG1        0.3372
     27 O          -3.6374   -2.9940    0.2099 O.2     1  LIG1       -0.2452
     28 O          -2.1165   -1.3478   -0.2635 O.2     1  LIG1       -0.4216
     29 H           2.2816    3.5203    1.7860 H       1  LIG1        0.0342
     30 H           1.8059    3.8510    3.4513 H       1  LIG1        0.0342
     31 H           0.8027    4.4702    2.0979 H       1  LIG1        0.0342
     32 H          -0.0602   -0.2418    4.1850 H       1  LIG1        0.0535
     33 H           1.5546   -0.9803    4.6853 H       1  LIG1        0.0535
     34 H           3.3257   -0.0204    1.8330 H       1  LIG1        0.0275
     35 H           2.7931   -1.7061    1.6062 H       1  LIG1        0.0275
     36 H           3.3445   -1.1507    3.1852 H       1  LIG1        0.0275
     37 H          -0.6327   -4.1494    0.4225 H       1  LIG1        0.0342
     38 H           0.9832   -4.6174   -0.2117 H       1  LIG1        0.0342
     39 H          -0.4626   -4.6457   -1.2618 H       1  LIG1        0.0342
     40 H          -2.3889    1.1124   -4.1172 H       1  LIG1        0.0626
     41 H          -0.2649    2.2031   -3.6833 H       1  LIG1        0.0654
     42 H           2.5504    3.3466   -1.6473 H       1  LIG1        0.0660
     43 H           0.8106    3.6633   -1.5503 H       1  LIG1        0.0660
     44 H           1.5731    3.1175   -3.0927 H       1  LIG1        0.0660
     45 H          -4.1323   -0.5781   -3.4983 H       1  LIG1        0.0627
     46 H          -4.9045   -2.3165   -1.9287 H       1  LIG1        0.0689
@<TRIPOS>BOND
     1     1     2    1
     2     3     5    1
     3     5     6    1
     4     6     7    2
     5     6     8    1
     6     3     9    1
     7     9    10    2
     8     9    11    1
     9     1    12    1
    10    12    13    1
    11    13    14    2
    12    13    15    1
    13     1    16    1
    14    16    17   ar
    15    17    18   ar
    16    18    19   ar
    17    19    20   ar
    18    20    21   ar
    19    16    21   ar
    20    21    22    1
    21    22    23    1
    22    18    24   ar
    23    24    25   ar
    24    25    26   ar
    25    26    27    2
    26    26    28   ar
    27    17    28   ar
    28     3     4    1
    29     3     1    1
    30     8    29    1
    31     8    30    1
    32     8    31    1
    33    10    32    1
    34    10    33    1
    35    11    34    1
    36    11    35    1
    37    11    36    1
    38    15    37    1
    39    15    38    1
    40    15    39    1
    41    19    40    1
    42    20    41    1
    43    23    42    1
    44    23    43    1
    45    23    44    1
    46    24    45    1
    47    25    46    1
