@<TRIPOS>MOLECULE
NuBBE_865
 46 48 0 0 0
SMALL
GASTEIGER

@<TRIPOS>ATOM
      1 O          -3.6345   -0.3707   -0.2612 O.3     1  LIG1       -0.4945
      2 C          -4.5152    0.5934    0.3082 C.3     1  LIG1        0.0788
      3 C          -2.2873   -0.1314   -0.1150 C.ar    1  LIG1        0.1281
      4 C          -1.4305   -1.2481   -0.0457 C.ar    1  LIG1        0.0248
      5 C          -0.0274   -1.0567    0.0522 C.ar    1  LIG1       -0.0034
      6 C           0.4960    0.2831    0.0532 C.ar    1  LIG1       -0.0093
      7 C          -0.3744    1.3863    0.0112 C.ar    1  LIG1       -0.0228
      8 C          -1.7572    1.1557   -0.0939 C.ar    1  LIG1       -0.0147
      9 C           0.1363    2.8277    0.0646 C.3     1  LIG1        0.0566
     10 C          -0.1642    3.5337   -1.2723 C.3     1  LIG1       -0.0485
     11 C          -0.5494    3.5800    1.2289 C.3     1  LIG1       -0.0485
     12 C           1.6452    2.9661    0.2968 C.2     1  LIG1        0.2071
     13 O           2.1395    4.0626    0.5581 O.2     1  LIG1       -0.2879
     14 C           2.5168    1.7582    0.1527 C.2     1  LIG1        0.1637
     15 C           1.9441    0.5538    0.0525 C.2     1  LIG1       -0.0084
     16 O           3.9056    1.8187    0.1694 O.2     1  LIG1       -0.4916
     17 C           4.4931    2.9930   -0.3832 C.3     1  LIG1        0.0790
     18 C           0.7725   -2.2293    0.1646 C.ar    1  LIG1       -0.0113
     19 C           0.2389   -3.5258    0.1517 C.ar    1  LIG1        0.1236
     20 C          -1.1385   -3.6980    0.0310 C.ar    1  LIG1       -0.0081
     21 C          -1.9522   -2.5608   -0.0554 C.ar    1  LIG1       -0.0441
     22 C          -1.7847   -5.0546    0.0520 C.3     1  LIG1       -0.0362
     23 O           0.9896   -4.6601    0.3208 O.3     1  LIG1       -0.4948
     24 C           2.3241   -4.6125   -0.1723 C.3     1  LIG1        0.0788
     25 H          -5.5363    0.2152    0.2005 H       1  LIG1        0.0660
     26 H          -4.4725    1.5486   -0.2234 H       1  LIG1        0.0660
     27 H          -4.3139    0.7265    1.3765 H       1  LIG1        0.0660
     28 H          -2.4197    2.0093   -0.1879 H       1  LIG1        0.0657
     29 H          -1.2393    3.5985   -1.4730 H       1  LIG1        0.0242
     30 H           0.2968    2.9994   -2.1122 H       1  LIG1        0.0242
     31 H           0.2299    4.5566   -1.2837 H       1  LIG1        0.0242
     32 H          -1.6368    3.6349    1.1134 H       1  LIG1        0.0242
     33 H          -0.1918    4.6127    1.3122 H       1  LIG1        0.0242
     34 H          -0.3424    3.0856    2.1863 H       1  LIG1        0.0242
     35 H           2.6196   -0.2867   -0.0578 H       1  LIG1        0.0661
     36 H           5.5534    2.7840   -0.5558 H       1  LIG1        0.0660
     37 H           4.4467    3.8266    0.3225 H       1  LIG1        0.0660
     38 H           4.0406    3.2562   -1.3451 H       1  LIG1        0.0660
     39 H           1.8392   -2.1236    0.3148 H       1  LIG1        0.0660
     40 H          -3.0307   -2.7044   -0.1237 H       1  LIG1        0.0629
     41 H          -1.1150   -5.8319   -0.3287 H       1  LIG1        0.0279
     42 H          -2.6736   -5.0661   -0.5887 H       1  LIG1        0.0279
     43 H          -2.0840   -5.3113    1.0728 H       1  LIG1        0.0279
     44 H           2.7529   -5.6140   -0.0677 H       1  LIG1        0.0660
     45 H           2.9496   -3.9333    0.4143 H       1  LIG1        0.0660
     46 H           2.3409   -4.3472   -1.2347 H       1  LIG1        0.0660
@<TRIPOS>BOND
     1     1     2    1
     2     1     3    1
     3     3     4   ar
     4     4     5   ar
     5     5     6   ar
     6     6     7   ar
     7     7     8   ar
     8     3     8   ar
     9     7     9    1
    10     9    10    1
    11     9    11    1
    12     9    12    1
    13    12    13    2
    14    12    14    1
    15    14    15    2
    16     6    15    1
    17    14    16    1
    18    16    17    1
    19     5    18   ar
    20    18    19   ar
    21    19    20   ar
    22    20    21   ar
    23     4    21   ar
    24    20    22    1
    25    19    23    1
    26    23    24    1
    27     2    25    1
    28     2    26    1
    29     2    27    1
    30     8    28    1
    31    10    29    1
    32    10    30    1
    33    10    31    1
    34    11    32    1
    35    11    33    1
    36    11    34    1
    37    15    35    1
    38    17    36    1
    39    17    37    1
    40    17    38    1
    41    18    39    1
    42    21    40    1
    43    22    41    1
    44    22    42    1
    45    22    43    1
    46    24    44    1
    47    24    45    1
    48    24    46    1
