@<TRIPOS>MOLECULE
NuBBE_1805
 49 49 0 0 0
SMALL
GASTEIGER

@<TRIPOS>ATOM
      1 C          -1.0775    4.2009   -3.7431 C.3     1  LIG1       -0.0653
      2 C           0.1146    4.2509   -4.6886 C.3     1  LIG1       -0.0559
      3 C           1.0342    3.0358   -4.5166 C.3     1  LIG1       -0.0533
      4 C           0.3019    1.7238   -4.8145 C.3     1  LIG1       -0.0531
      5 C           1.1451    0.4623   -4.6410 C.3     1  LIG1       -0.0531
      6 C           1.7067    0.2099   -3.2355 C.3     1  LIG1       -0.0531
      7 C           0.6525   -0.0101   -2.1324 C.3     1  LIG1       -0.0531
      8 C           1.3424   -0.2186   -0.7733 C.3     1  LIG1       -0.0529
      9 C           0.3994   -0.4983    0.4102 C.3     1  LIG1       -0.0497
     10 C           1.1992   -0.9987    1.6258 C.3     1  LIG1       -0.0156
     11 C           0.3607   -1.2338    2.8847 C.3     1  LIG1        0.1038
     12 C          -0.6856   -2.3224    2.7669 C.3     1  LIG1       -0.0027
     13 C          -0.8200   -2.8432    4.1903 C.3     1  LIG1        0.0619
     14 C          -1.9753   -2.1888    4.9439 C.3     1  LIG1       -0.0167
     15 C          -2.1449   -2.7376    6.3574 C.3     1  LIG1        0.0450
     16 O          -3.2674   -2.1152    6.9697 O.3     1  LIG1       -0.3950
     17 C           0.5248   -2.5016    4.7785 C.2     1  LIG1        0.3107
     18 O           1.2165   -1.6739    3.9531 O.3     1  LIG1       -0.4611
     19 O           0.9474   -2.8969    5.8668 O.2     1  LIG1       -0.2505
     20 H          -1.6919    5.0991   -3.8415 H       1  LIG1        0.0230
     21 H          -0.7402    4.1175   -2.7050 H       1  LIG1        0.0230
     22 H          -1.7262    3.3477   -3.9611 H       1  LIG1        0.0230
     23 H           0.6851    5.1683   -4.4984 H       1  LIG1        0.0263
     24 H          -0.2403    4.3081   -5.7246 H       1  LIG1        0.0263
     25 H           1.4339    3.0357   -3.4967 H       1  LIG1        0.0265
     26 H           1.8895    3.1389   -5.1964 H       1  LIG1        0.0265
     27 H          -0.0529    1.7670   -5.8527 H       1  LIG1        0.0265
     28 H          -0.5888    1.6219   -4.1900 H       1  LIG1        0.0265
     29 H           1.9811    0.5043   -5.3498 H       1  LIG1        0.0265
     30 H           0.5315   -0.3979   -4.9361 H       1  LIG1        0.0265
     31 H           2.3736    1.0321   -2.9529 H       1  LIG1        0.0265
     32 H           2.3401   -0.6852   -3.2928 H       1  LIG1        0.0265
     33 H           0.0400   -0.8849   -2.3834 H       1  LIG1        0.0265
     34 H          -0.0147    0.8552   -2.0691 H       1  LIG1        0.0265
     35 H           1.9155    0.6876   -0.5414 H       1  LIG1        0.0265
     36 H           2.0642   -1.0391   -0.8643 H       1  LIG1        0.0265
     37 H          -0.3572   -1.2419    0.1374 H       1  LIG1        0.0266
     38 H          -0.1302    0.4252    0.6749 H       1  LIG1        0.0266
     39 H           1.9908   -0.2765    1.8675 H       1  LIG1        0.0301
     40 H           1.7275   -1.9256    1.3656 H       1  LIG1        0.0301
     41 H          -0.0892   -0.2884    3.2069 H       1  LIG1        0.0734
     42 H          -0.3398   -3.1445    2.1283 H       1  LIG1        0.0309
     43 H          -1.6199   -1.9440    2.3392 H       1  LIG1        0.0309
     44 H          -0.9361   -3.9334    4.1734 H       1  LIG1        0.0415
     45 H          -2.9104   -2.3560    4.3933 H       1  LIG1        0.0295
     46 H          -1.8486   -1.0997    4.9888 H       1  LIG1        0.0295
     47 H          -1.2685   -2.5512    6.9832 H       1  LIG1        0.0557
     48 H          -2.3290   -3.8161    6.3333 H       1  LIG1        0.0557
     49 H          -3.0634   -1.1686    7.0624 H       1  LIG1        0.2094
@<TRIPOS>BOND
     1     1     2    1
     2     2     3    1
     3     3     4    1
     4     4     5    1
     5     5     6    1
     6     6     7    1
     7     7     8    1
     8     8     9    1
     9     9    10    1
    10    10    11    1
    11    11    12    1
    12    12    13    1
    13    13    14    1
    14    14    15    1
    15    15    16    1
    16    13    17    1
    17    17    18    1
    18    11    18    1
    19    17    19    2
    20     1    20    1
    21     1    21    1
    22     1    22    1
    23     2    23    1
    24     2    24    1
    25     3    25    1
    26     3    26    1
    27     4    27    1
    28     4    28    1
    29     5    29    1
    30     5    30    1
    31     6    31    1
    32     6    32    1
    33     7    33    1
    34     7    34    1
    35     8    35    1
    36     8    36    1
    37     9    37    1
    38     9    38    1
    39    10    39    1
    40    10    40    1
    41    11    41    1
    42    12    42    1
    43    12    43    1
    44    13    44    1
    45    14    45    1
    46    14    46    1
    47    15    47    1
    48    15    48    1
    49    16    49    1
