REMARK  Name = NuBBE_1224
REMARK  8 active torsions:
REMARK  status: ('A' for Active; 'I' for Inactive)
REMARK    1  A    between atoms: C_3  and  O_4
REMARK    2  A    between atoms: O_4  and  C_5
REMARK    3  A    between atoms: C_6  and  C_16
REMARK    4  A    between atoms: C_10  and  O_11
REMARK    5  A    between atoms: C_13  and  O_14
REMARK    6  A    between atoms: C_18  and  O_19
REMARK    7  A    between atoms: O_19  and  C_20
REMARK    8  A    between atoms: C_21  and  O_24
REMARK                            x       y       z     vdW  Elec       q    Type
REMARK                         _______ _______ _______ _____ _____    ______ ____
ROOT
ATOM      1  O   LIG A   1      -3.254   1.516  -0.112  0.00  0.00    -0.283 OA
ATOM      2  C   LIG A   1      -2.037   1.341  -0.183  0.00  0.00    +0.238 A 
ATOM      3  C   LIG A   1      -1.395  -0.001  -0.321  0.00  0.00    +0.211 A 
ATOM      4  C   LIG A   1      -0.047  -0.026  -0.355  0.00  0.00    +0.181 A 
ATOM      5  O   LIG A   1       0.786   1.073  -0.284  0.00  0.00    -0.451 OA
ATOM      6  C   LIG A   1       0.221   2.314  -0.175  0.00  0.00    +0.146 A 
ATOM      7  C   LIG A   1      -1.154   2.514  -0.124  0.00  0.00    +0.109 A 
ATOM      8  C   LIG A   1      -1.661   3.816  -0.013  0.00  0.00    +0.135 A 
ATOM      9  C   LIG A   1      -0.798   4.908   0.046  0.00  0.00    +0.091 A 
ATOM     10  C   LIG A   1       0.576   4.690  -0.004  0.00  0.00    +0.124 A 
ATOM     11  C   LIG A   1       1.092   3.402  -0.114  0.00  0.00    +0.092 A 
ENDROOT
BRANCH   4  12
ATOM     12  C   LIG A   1       0.701  -1.287  -0.480  0.00  0.00    +0.025 A 
ATOM     13  C   LIG A   1       1.076  -1.998   0.670  0.00  0.00    +0.061 A 
ATOM     14  C   LIG A   1       1.806  -3.183   0.557  0.00  0.00    +0.162 A 
ATOM     15  C   LIG A   1       2.145  -3.648  -0.719  0.00  0.00    +0.159 A 
ATOM     16  C   LIG A   1       1.779  -2.956  -1.866  0.00  0.00    +0.050 A 
ATOM     17  C   LIG A   1       1.056  -1.770  -1.746  0.00  0.00    +0.015 A 
BRANCH  14  18
ATOM     18  O   LIG A   1       2.245  -3.960   1.599  0.00  0.00    -0.491 OA
ATOM     19  C   LIG A   1       1.897  -3.513   2.905  0.00  0.00    +0.277 C 
ENDBRANCH  14  18
BRANCH  15  20
ATOM     20  O   LIG A   1       2.850  -4.811  -0.864  0.00  0.00    -0.503 OA
ATOM     21  H   LIG A   1       2.988  -5.139   0.046  0.00  0.00    +0.292 HD
ENDBRANCH  15  20
ENDBRANCH   4  12
BRANCH   3  22
ATOM     22  O   LIG A   1      -2.121  -1.182  -0.372  0.00  0.00    -0.488 OA
ATOM     23  C   LIG A   1      -3.421  -1.105  -0.946  0.00  0.00    +0.277 C 
ENDBRANCH   3  22
BRANCH   8  24
ATOM     24  O   LIG A   1      -3.000   4.094   0.043  0.00  0.00    -0.506 OA
ATOM     25  H   LIG A   1      -3.491   3.241   0.009  0.00  0.00    +0.292 HD
ENDBRANCH   8  24
BRANCH  10  26
ATOM     26  O   LIG A   1       1.461   5.724   0.053  0.00  0.00    -0.506 OA
ATOM     27  H   LIG A   1       0.966   6.559   0.126  0.00  0.00    +0.292 HD
ENDBRANCH  10  26
TORSDOF 6
