REMARK  Name = NuBBE_1282
REMARK  8 active torsions:
REMARK  status: ('A' for Active; 'I' for Inactive)
REMARK    1  A    between atoms: C_8  and  O_9
REMARK    2  A    between atoms: O_9  and  C_10
REMARK    3  A    between atoms: C_10  and  C_11
REMARK    4  A    between atoms: C_11  and  C_13
REMARK    5  A    between atoms: C_11  and  O_17
REMARK    6  A    between atoms: C_13  and  O_14
REMARK    7  A    between atoms: C_13  and  C_15
REMARK    8  A    between atoms: C_13  and  C_16
REMARK                            x       y       z     vdW  Elec       q    Type
REMARK                         _______ _______ _______ _____ _____    ______ ____
ROOT
ATOM      1  O   LIG A   1       1.837   4.026  -3.828  0.00  0.00    -0.245 OA
ATOM      2  C   LIG A   1       1.301   3.106  -3.244  0.00  0.00    +0.337 A 
ATOM      3  O   LIG A   1       1.273   1.810  -3.743  0.00  0.00    -0.422 OA
ATOM      4  C   LIG A   1       0.632   0.755  -3.056  0.00  0.00    +0.146 A 
ATOM      5  C   LIG A   1       0.679  -0.482  -3.693  0.00  0.00    +0.094 A 
ATOM      6  C   LIG A   1       0.035  -1.520  -3.036  0.00  0.00    +0.142 A 
ATOM      7  C   LIG A   1      -0.615  -1.409  -1.806  0.00  0.00    +0.062 A 
ATOM      8  C   LIG A   1      -0.612  -0.141  -1.156  0.00  0.00    +0.142 A 
ATOM      9  C   LIG A   1      -0.002   0.958  -1.825  0.00  0.00    +0.060 A 
ATOM     10  C   LIG A   1       0.017   2.324  -1.294  0.00  0.00    +0.022 A 
ATOM     11  C   LIG A   1       0.630   3.311  -1.950  0.00  0.00    +0.093 A 
ATOM     12  C   LIG A   1      -1.135  -2.719  -1.564  0.00  0.00    +0.053 A 
ATOM     13  C   LIG A   1      -0.756  -3.510  -2.623  0.00  0.00    +0.196 A 
ATOM     14  O   LIG A   1      -0.044  -2.788  -3.518  0.00  0.00    -0.463 OA
ENDROOT
BRANCH   8  15
ATOM     15  O   LIG A   1      -1.202   0.133   0.079  0.00  0.00    -0.488 OA
BRANCH  15  16
ATOM     16  C   LIG A   1      -1.245  -0.963   0.996  0.00  0.00    +0.263 C 
BRANCH  16  17
ATOM     17  C   LIG A   1      -1.189  -0.531   2.471  0.00  0.00    +0.183 C 
BRANCH  17  18
ATOM     18  C   LIG A   1       0.114   0.191   2.917  0.00  0.00    +0.089 C 
ATOM     19  C   LIG A   1       1.357  -0.692   2.769  0.00  0.00    +0.044 C 
ATOM     20  C   LIG A   1       0.326   1.521   2.205  0.00  0.00    +0.044 C 
BRANCH  18  21
ATOM     21  O   LIG A   1      -0.030   0.468   4.325  0.00  0.00    -0.387 OA
ATOM     22  H   LIG A   1       0.777   0.930   4.617  0.00  0.00    +0.210 HD
ENDBRANCH  18  21
ENDBRANCH  17  18
BRANCH  17  23
ATOM     23  O   LIG A   1      -1.345  -1.724   3.269  0.00  0.00    -0.386 OA
ATOM     24  H   LIG A   1      -1.081  -1.463   4.174  0.00  0.00    +0.210 HD
ENDBRANCH  17  23
ENDBRANCH  16  17
ENDBRANCH  15  16
ENDBRANCH   8  15
TORSDOF 6
