@<TRIPOS>MOLECULE
NuBBE_1844
 36 38 0 0 0
SMALL
GASTEIGER

@<TRIPOS>ATOM
      1 O          -2.1013   -2.2779   -2.9727 O.3     1  LIG1       -0.5064
      2 C          -1.6000   -2.9815   -1.9130 C.ar    1  LIG1        0.1235
      3 C          -1.4887   -2.3534   -0.6656 C.ar    1  LIG1       -0.0057
      4 C          -1.8876   -0.9091   -0.4525 C.3     1  LIG1       -0.0239
      5 C          -0.7186   -0.0364    0.0252 C.3     1  LIG1       -0.0450
      6 C          -1.1540    1.4174    0.2266 C.3     1  LIG1       -0.0273
      7 C          -0.0133    2.2864    0.7030 C.ar    1  LIG1       -0.0437
      8 C           0.8133    2.9389   -0.2272 C.ar    1  LIG1       -0.0130
      9 C           1.8598    3.6976    0.2521 C.ar    1  LIG1        0.1665
     10 O           2.7578    4.3829   -0.5072 O.3     1  LIG1       -0.4526
     11 C           3.6276    4.9112    0.5151 C.3     1  LIG1        0.2332
     12 O           3.1872    4.6115    1.8557 O.3     1  LIG1       -0.4526
     13 C           2.1054    3.8299    1.5975 C.ar    1  LIG1        0.1662
     14 C           1.3144    3.2099    2.5419 C.ar    1  LIG1       -0.0159
     15 C           0.2492    2.4269    2.0850 C.ar    1  LIG1       -0.0549
     16 C          -1.0038   -3.1090    0.4165 C.ar    1  LIG1       -0.0517
     17 C          -0.6033   -4.4362    0.2459 C.ar    1  LIG1       -0.0197
     18 C          -0.7013   -5.0213   -1.0104 C.ar    1  LIG1        0.1203
     19 O          -0.3044   -6.3083   -1.2264 O.3     1  LIG1       -0.5066
     20 C          -1.2079   -4.3093   -2.0906 C.ar    1  LIG1        0.0216
     21 H          -2.1496   -2.8702   -3.7413 H       1  LIG1        0.2921
     22 H          -2.7043   -0.8823    0.2799 H       1  LIG1        0.0314
     23 H          -2.2942   -0.4784   -1.3749 H       1  LIG1        0.0314
     24 H           0.0998   -0.0861   -0.7049 H       1  LIG1        0.0272
     25 H          -0.3141   -0.4253    0.9680 H       1  LIG1        0.0272
     26 H          -1.9737    1.4678    0.9544 H       1  LIG1        0.0313
     27 H          -1.5550    1.8257   -0.7096 H       1  LIG1        0.0313
     28 H           0.6454    2.8489   -1.2953 H       1  LIG1        0.0658
     29 H           3.6885    5.9992    0.3989 H       1  LIG1        0.1166
     30 H           4.6290    4.4872    0.3739 H       1  LIG1        0.1166
     31 H           1.5188    3.3220    3.6001 H       1  LIG1        0.0655
     32 H          -0.3817    1.9193    2.8129 H       1  LIG1        0.0621
     33 H          -0.9301   -2.6617    1.4053 H       1  LIG1        0.0623
     34 H          -0.2217   -4.9885    1.0986 H       1  LIG1        0.0654
     35 H           0.0943   -6.6491   -0.4085 H       1  LIG1        0.2921
     36 H          -1.2820   -4.7986   -3.0561 H       1  LIG1        0.0691
@<TRIPOS>BOND
     1     1     2    1
     2     2     3   ar
     3     3     4    1
     4     4     5    1
     5     5     6    1
     6     6     7    1
     7     7     8   ar
     8     8     9   ar
     9     9    10    1
    10    10    11    1
    11    11    12    1
    12     9    13   ar
    13    12    13    1
    14    13    14   ar
    15    14    15   ar
    16     7    15   ar
    17     3    16   ar
    18    16    17   ar
    19    17    18   ar
    20    18    19    1
    21    18    20   ar
    22     2    20   ar
    23     1    21    1
    24     4    22    1
    25     4    23    1
    26     5    24    1
    27     5    25    1
    28     6    26    1
    29     6    27    1
    30     8    28    1
    31    11    29    1
    32    11    30    1
    33    14    31    1
    34    15    32    1
    35    16    33    1
    36    17    34    1
    37    19    35    1
    38    20    36    1
