REMARK  Name = NuBBE_165
REMARK  7 active torsions:
REMARK  status: ('A' for Active; 'I' for Inactive)
REMARK    1  A    between atoms: C_1  and  O_2
REMARK    2  A    between atoms: O_2  and  C_3
REMARK    3  A    between atoms: C_9  and  O_11
REMARK    4  A    between atoms: O_11  and  C_12
REMARK    5  A    between atoms: C_20  and  O_22
REMARK    6  A    between atoms: C_24  and  O_25
REMARK    7  A    between atoms: O_25  and  C_26
REMARK                            x       y       z     vdW  Elec       q    Type
REMARK                         _______ _______ _______ _____ _____    ______ ____
ROOT
ATOM      1  C   LIG A   1      -2.252   1.436   1.000  0.00  0.00    +0.162 A 
ATOM      2  C   LIG A   1      -1.967   1.716  -0.344  0.00  0.00    +0.056 A 
ATOM      3  C   LIG A   1      -1.022   0.971  -1.067  0.00  0.00    -0.009 A 
ATOM      4  C   LIG A   1      -0.323  -0.077  -0.444  0.00  0.00    -0.013 A 
ATOM      5  C   LIG A   1       0.698  -0.899  -1.261  0.00  0.00    +0.076 C 
ATOM      6  C   LIG A   1       2.123  -0.311  -1.261  0.00  0.00    +0.068 C 
ATOM      7  C   LIG A   1       2.839  -0.498   0.093  0.00  0.00    +0.143 C 
ATOM      8  C   LIG A   1       2.661  -1.896   0.642  0.00  0.00    +0.004 C 
ATOM      9  C   LIG A   1       1.732  -2.763   0.194  0.00  0.00    +0.004 C 
ATOM     10  C   LIG A   1       0.806  -2.353  -0.821  0.00  0.00    -0.026 C 
ATOM     11  C   LIG A   1       0.037  -3.143  -1.587  0.00  0.00    -0.006 C 
ATOM     12  C   LIG A   1      -0.583  -2.322  -2.666  0.00  0.00    +0.113 C 
ATOM     13  N   LIG A   1       0.229  -1.093  -2.664  0.00  0.00    -0.282 NA
ATOM     14  C   LIG A   1      -0.396   0.046  -3.342  0.00  0.00    +0.122 C 
ATOM     15  C   LIG A   1      -0.723   1.303  -2.505  0.00  0.00    +0.159 C 
ATOM     16  C   LIG A   1      -0.602  -0.333   0.913  0.00  0.00    +0.055 A 
ATOM     17  C   LIG A   1      -1.544   0.412   1.642  0.00  0.00    +0.162 A 
ENDROOT
BRANCH   1  19
ATOM     18  C   LIG A   1      -3.585   2.119   2.882  0.00  0.00    +0.277 C 
ATOM     19  O   LIG A   1      -3.237   2.242   1.510  0.00  0.00    -0.491 OA
ENDBRANCH   1  19
BRANCH   7  20
ATOM     20  O   LIG A   1       2.378   0.394   1.111  0.00  0.00    -0.376 OA
ATOM     21  C   LIG A   1       2.687   1.760   0.879  0.00  0.00    +0.194 C 
ENDBRANCH   7  20
BRANCH  15  22
ATOM     22  O   LIG A   1       0.359   2.236  -2.562  0.00  0.00    -0.386 OA
ATOM     23  H   LIG A   1       0.480   2.598  -1.668  0.00  0.00    +0.210 HD
ENDBRANCH  15  22
BRANCH  17  24
ATOM     24  O   LIG A   1      -1.847   0.109   2.942  0.00  0.00    -0.491 OA
ATOM     25  C   LIG A   1      -0.800  -0.408   3.752  0.00  0.00    +0.277 C 
ENDBRANCH  17  24
TORSDOF 4
