@<TRIPOS>MOLECULE
NuBBE_1968
 56 60 0 0 0
SMALL
GASTEIGER

@<TRIPOS>ATOM
      1 C          -1.5819    1.5598   -0.9953 C.2     1  LIG1       -0.0572
      2 C          -2.3450    0.4804   -1.2314 C.2     1  LIG1       -0.0543
      3 C          -3.8216    0.4450   -1.1988 C.ar    1  LIG1       -0.0248
      4 C          -4.4650   -0.7591   -1.5348 C.ar    1  LIG1       -0.0511
      5 C          -5.8586   -0.8673   -1.5016 C.ar    1  LIG1       -0.0196
      6 C          -6.6201    0.2330   -1.1300 C.ar    1  LIG1        0.1169
      7 C          -6.0109    1.4328   -0.7945 C.ar    1  LIG1       -0.0196
      8 C          -4.6178    1.5383   -0.8271 C.ar    1  LIG1       -0.0511
      9 O          -7.9802    0.1754   -1.0787 O.3     1  LIG1       -0.5068
     10 C          -0.1257    1.6014   -0.9802 C.2     1  LIG1       -0.0332
     11 C           0.4854    2.7390   -0.5734 C.2     1  LIG1       -0.0146
     12 C           1.9748    2.7704   -0.4262 C.2     1  LIG1        0.1671
     13 O           2.5503    3.8090   -0.1215 O.2     1  LIG1       -0.2919
     14 C           2.6929    1.4542   -0.6515 C.3     1  LIG1        0.0876
     15 H           3.7644    1.5828   -0.8166 H       1  LIG1        0.0465
     16 C           2.3437    0.3743    0.4262 C.3     1  LIG1        0.0085
     17 H           3.2180   -0.2885    0.5180 H       1  LIG1        0.0366
     18 C           1.1652   -0.4761   -0.1964 C.3     1  LIG1        0.0058
     19 H           0.3216   -0.6151    0.4841 H       1  LIG1        0.0365
     20 C           0.6719    0.3584   -1.3997 C.3     1  LIG1        0.0507
     21 H           0.2005   -0.2153   -2.2012 H       1  LIG1        0.0432
     22 C           2.0070    0.8852   -1.8509 C.2     1  LIG1        0.1523
     23 O           2.4003    0.9469   -3.0054 O.2     1  LIG1       -0.2960
     24 C           1.6201   -1.8974   -0.5555 C.ar    1  LIG1       -0.0358
     25 C           2.1001   -2.2571   -1.8283 C.ar    1  LIG1       -0.0165
     26 C           2.4996   -3.5682   -2.0967 C.ar    1  LIG1        0.1206
     27 O           2.9673   -3.9183   -3.3280 O.3     1  LIG1       -0.5066
     28 C           2.4302   -4.5510   -1.1233 C.ar    1  LIG1        0.0213
     29 C           1.9609   -4.2057    0.1384 C.ar    1  LIG1        0.1206
     30 C           1.5658   -2.8995    0.4292 C.ar    1  LIG1       -0.0165
     31 O           1.8671   -5.1370    1.1314 O.3     1  LIG1       -0.5066
     32 C           2.1514    0.9662    1.8225 C.ar    1  LIG1       -0.0424
     33 C           3.2319    1.6524    2.4131 C.ar    1  LIG1       -0.0548
     34 C           3.1113    2.2651    3.6655 C.ar    1  LIG1       -0.0199
     35 C           1.9083    2.1855    4.3515 C.ar    1  LIG1        0.1169
     36 C           0.8316    1.5071    3.8028 C.ar    1  LIG1       -0.0199
     37 C           0.9502    0.9034    2.5462 C.ar    1  LIG1       -0.0548
     38 O           1.7386    2.7665    5.5722 O.3     1  LIG1       -0.5068
     39 H          -2.0619    2.5084   -0.7613 H       1  LIG1        0.0621
     40 H          -1.8838   -0.4784   -1.4538 H       1  LIG1        0.0624
     41 H          -3.8850   -1.6328   -1.8255 H       1  LIG1        0.0625
     42 H          -6.3240   -1.8121   -1.7648 H       1  LIG1        0.0654
     43 H          -6.6154    2.2874   -0.5032 H       1  LIG1        0.0654
     44 H          -4.1821    2.4930   -0.5494 H       1  LIG1        0.0625
     45 H          -8.2633   -0.7189   -1.3304 H       1  LIG1        0.2921
     46 H          -0.0322    3.6469   -0.2850 H       1  LIG1        0.0655
     47 H           2.1696   -1.5377   -2.6340 H       1  LIG1        0.0657
     48 H           2.9977   -3.1274   -3.8938 H       1  LIG1        0.2921
     49 H           2.7417   -5.5614   -1.3634 H       1  LIG1        0.0691
     50 H           1.2082   -2.6762    1.4327 H       1  LIG1        0.0657
     51 H           2.1684   -5.9927    0.7808 H       1  LIG1        0.2921
     52 H           4.1820    1.7407    1.8879 H       1  LIG1        0.0622
     53 H           3.9596    2.8025    4.0777 H       1  LIG1        0.0654
     54 H          -0.1073    1.4529    4.3478 H       1  LIG1        0.0654
     55 H           0.0631    0.4072    2.1680 H       1  LIG1        0.0622
     56 H           2.5613    3.2218    5.8152 H       1  LIG1        0.2921
@<TRIPOS>BOND
     1     1     2    2
     2     2     3    1
     3     3     4   ar
     4     4     5   ar
     5     5     6   ar
     6     6     7   ar
     7     7     8   ar
     8     3     8   ar
     9     6     9    1
    10     1    10    1
    11    10    11    2
    12    11    12    1
    13    12    13    2
    14    12    14    1
    15    14    15    1
    16    14    16    1
    17    16    18    1
    18    18    19    1
    19    18    20    1
    20    20    21    1
    21    10    20    1
    22    20    22    1
    23    14    22    1
    24    22    23    2
    25    18    24    1
    26    24    25   ar
    27    25    26   ar
    28    26    27    1
    29    26    28   ar
    30    28    29   ar
    31    29    30   ar
    32    24    30   ar
    33    29    31    1
    34    32    33   ar
    35    33    34   ar
    36    34    35   ar
    37    35    36   ar
    38    36    37   ar
    39    32    37   ar
    40    35    38    1
    41    16    32    1
    42    16    17    1
    43     1    39    1
    44     2    40    1
    45     4    41    1
    46     5    42    1
    47     7    43    1
    48     8    44    1
    49     9    45    1
    50    11    46    1
    51    25    47    1
    52    27    48    1
    53    28    49    1
    54    30    50    1
    55    31    51    1
    56    33    52    1
    57    34    53    1
    58    36    54    1
    59    37    55    1
    60    38    56    1
