@<TRIPOS>MOLECULE
NuBBE_1880
 67 69 0 0 0
SMALL
GASTEIGER

@<TRIPOS>ATOM
      1 O           0.8498   -0.9513   -2.9624 O.2     1  LIG1       -0.2830
      2 C           0.3894   -0.8455   -1.8871 C.ar    1  LIG1        0.2382
      3 C           0.9909   -1.5318   -0.7328 C.ar    1  LIG1        0.1131
      4 C           1.4563   -2.8460   -0.7505 C.ar    1  LIG1        0.1800
      5 C           2.1370   -3.3432    0.4397 C.ar    1  LIG1        0.2047
      6 O           2.3763   -4.6923    0.3358 O.3     1  LIG1       -0.4855
      7 C           2.7518   -5.4361    1.4832 C.3     1  LIG1        0.0871
      8 C           1.8466   -5.1875    2.6777 C.3     1  LIG1       -0.0307
      9 C           2.3533   -2.4871    1.5894 C.ar    1  LIG1        0.1687
     10 C           1.7002   -1.2427    1.5661 C.ar    1  LIG1        0.0270
     11 C           1.0459   -0.7828    0.4320 C.ar    1  LIG1        0.1468
     12 O           0.4350    0.4361    0.5297 O.2     1  LIG1       -0.4505
     13 C          -0.6775    0.6056   -0.2794 C.ar    1  LIG1        0.1844
     14 C          -1.6497    1.4984    0.3729 C.ar    1  LIG1        0.0665
     15 C          -2.5663    0.9221    1.2541 C.ar    1  LIG1       -0.0437
     16 C          -3.7069    1.6159    1.6211 C.ar    1  LIG1       -0.0154
     17 C          -3.8903    2.9407    1.2249 C.ar    1  LIG1        0.1652
     18 C          -2.7709    3.6486    0.7185 C.ar    1  LIG1        0.2045
     19 O          -2.8668    5.0174    0.5902 O.3     1  LIG1       -0.4855
     20 C          -1.7376    5.8378    0.9483 C.3     1  LIG1        0.0871
     21 C          -0.7038    5.9821   -0.1564 C.3     1  LIG1       -0.0307
     22 C          -1.6376    2.8906    0.2605 C.ar    1  LIG1        0.1763
     23 O          -0.4491    3.5178   -0.0093 O.3     1  LIG1       -0.4877
     24 C           0.3850    3.2650   -1.1493 C.3     1  LIG1        0.0870
     25 C           1.8530    3.2261   -0.7246 C.3     1  LIG1       -0.0307
     26 O          -5.2118    3.2615    1.3432 O.3     1  LIG1       -0.4913
     27 C          -5.6819    4.5779    1.5081 C.3     1  LIG1        0.0790
     28 C          -0.7902    0.0491   -1.5072 C.ar    1  LIG1        0.2108
     29 O          -1.8353    0.2430   -2.4083 O.3     1  LIG1       -0.4883
     30 C          -1.6740   -0.4735   -3.6460 C.3     1  LIG1        0.0791
     31 O           2.9081   -2.6318    2.8536 O.3     1  LIG1       -0.4912
     32 C           4.0935   -3.3123    3.3127 C.3     1  LIG1        0.0790
     33 O           0.9294   -3.6542   -1.7583 O.3     1  LIG1       -0.4876
     34 C           1.8101   -4.1898   -2.7661 C.3     1  LIG1        0.0870
     35 C           0.9885   -4.7992   -3.9243 C.3     1  LIG1       -0.0307
     36 H           3.8271   -5.2975    1.6334 H       1  LIG1        0.0694
     37 H           2.6449   -6.4979    1.2335 H       1  LIG1        0.0694
     38 H           1.6080   -6.0906    3.2255 H       1  LIG1        0.0262
     39 H           0.9836   -4.5563    2.4556 H       1  LIG1        0.0262
     40 H           2.3349   -4.6454    3.4575 H       1  LIG1        0.0262
     41 H           1.6637   -0.6115    2.4541 H       1  LIG1        0.0692
     42 H          -2.4364   -0.0868    1.6320 H       1  LIG1        0.0627
     43 H          -4.4904    1.0907    2.1663 H       1  LIG1        0.0655
     44 H          -1.2931    5.5130    1.8982 H       1  LIG1        0.0694
     45 H          -2.1319    6.8461    1.1150 H       1  LIG1        0.0694
     46 H          -1.0593    5.5150   -1.0810 H       1  LIG1        0.0262
     47 H           0.2367    5.5394    0.1958 H       1  LIG1        0.0262
     48 H          -0.4124    7.0027   -0.3922 H       1  LIG1        0.0262
     49 H           0.3027    4.1036   -1.8498 H       1  LIG1        0.0694
     50 H           0.0993    2.3960   -1.7292 H       1  LIG1        0.0694
     51 H           2.2365    4.2420   -0.5594 H       1  LIG1        0.0262
     52 H           2.4624    2.7831   -1.5178 H       1  LIG1        0.0262
     53 H           2.0143    2.6779    0.2083 H       1  LIG1        0.0262
     54 H          -6.6213    4.6825    0.9500 H       1  LIG1        0.0660
     55 H          -5.0051    5.3511    1.1684 H       1  LIG1        0.0660
     56 H          -5.9186    4.7165    2.5671 H       1  LIG1        0.0660
     57 H          -1.3025   -1.4898   -3.4751 H       1  LIG1        0.0660
     58 H          -1.0141    0.0867   -4.3217 H       1  LIG1        0.0660
     59 H          -2.6337   -0.6175   -4.1498 H       1  LIG1        0.0660
     60 H           4.7462   -3.6170    2.5043 H       1  LIG1        0.0660
     61 H           3.9080   -4.1944    3.9528 H       1  LIG1        0.0660
     62 H           4.6094   -2.6951    4.0602 H       1  LIG1        0.0660
     63 H           2.4090   -4.9912   -2.3264 H       1  LIG1        0.0694
     64 H           2.4706   -3.4215   -3.1842 H       1  LIG1        0.0694
     65 H           1.6098   -5.4148   -4.5905 H       1  LIG1        0.0262
     66 H           0.5301   -4.0204   -4.5465 H       1  LIG1        0.0262
     67 H           0.1710   -5.4270   -3.5536 H       1  LIG1        0.0262
@<TRIPOS>BOND
     1     1     2    2
     2     2     3   ar
     3     3     4   ar
     4     4     5   ar
     5     5     6    1
     6     6     7    1
     7     7     8    1
     8     5     9   ar
     9     9    10   ar
    10    10    11   ar
    11     3    11   ar
    12    11    12   ar
    13    12    13   ar
    14    13    14    1
    15    14    15   ar
    16    15    16   ar
    17    16    17   ar
    18    17    18   ar
    19    18    19    1
    20    19    20    1
    21    20    21    1
    22    18    22   ar
    23    14    22   ar
    24    22    23    1
    25    23    24    1
    26    24    25    1
    27    17    26    1
    28    26    27    1
    29    13    28   ar
    30     2    28   ar
    31    28    29    1
    32    29    30    1
    33     9    31    1
    34    31    32    1
    35     4    33    1
    36    33    34    1
    37    34    35    1
    38     7    36    1
    39     7    37    1
    40     8    38    1
    41     8    39    1
    42     8    40    1
    43    10    41    1
    44    15    42    1
    45    16    43    1
    46    20    44    1
    47    20    45    1
    48    21    46    1
    49    21    47    1
    50    21    48    1
    51    24    49    1
    52    24    50    1
    53    25    51    1
    54    25    52    1
    55    25    53    1
    56    27    54    1
    57    27    55    1
    58    27    56    1
    59    30    57    1
    60    30    58    1
    61    30    59    1
    62    32    60    1
    63    32    61    1
    64    32    62    1
    65    34    63    1
    66    34    64    1
    67    35    65    1
    68    35    66    1
    69    35    67    1
