@<TRIPOS>MOLECULE
NuBBE_2426
 83 87 0 0 0
SMALL
GASTEIGER

@<TRIPOS>ATOM
      1 O          -5.9151   -0.1644   -2.1751 O.3     1  LIG1       -0.3915
      2 C          -4.5415    0.0687   -1.9902 C.3     1  LIG1        0.0583
      3 H          -4.4435    0.1213   -0.8963 H       1  LIG1        0.0596
      4 C          -3.5783   -0.9892   -2.5839 C.3     1  LIG1       -0.0121
      5 H          -3.1461   -0.6354   -3.5298 H       1  LIG1        0.0328
      6 C          -2.3913   -1.0491   -1.5773 C.3     1  LIG1       -0.0238
      7 C          -1.7668    0.5388   -1.6749 C.3     1  LIG1       -0.0295
      8 H          -1.3248    0.5861   -2.6781 H       1  LIG1        0.0311
      9 C          -0.5731    0.9072   -0.7406 C.3     1  LIG1       -0.0254
     10 C           0.4645   -0.7641   -0.7019 C.3     1  LIG1       -0.0294
     11 H           0.8580   -0.6981   -1.7232 H       1  LIG1        0.0312
     12 C           1.9369   -0.9644    0.6583 C.3     1  LIG1       -0.0231
     13 C           2.6352    1.0556    1.2339 C.3     1  LIG1       -0.0230
     14 C           3.4343    0.5277    2.2422 C.3     1  LIG1       -0.0292
     15 H           4.1189    1.2617    2.6733 H       1  LIG1        0.0312
     16 C           3.8524   -0.0005    0.5302 C.3     1  LIG1       -0.0287
     17 C           4.1852   -1.4477    0.8376 C.3     1  LIG1       -0.0468
     18 C           3.0768   -1.9586    0.0301 C.3     1  LIG1       -0.0463
     19 C           2.2362    0.5273   -0.4942 C.3     1  LIG1       -0.0469
     20 C           0.7234    0.5750    1.0127 C.3     1  LIG1       -0.0474
     21 C           0.4672    0.3002    2.5935 C.3     1  LIG1       -0.0346
     22 C           1.9887    0.3776    3.2146 C.3     1  LIG1       -0.0440
     23 C          -0.8920   -0.8073    2.4487 C.3     1  LIG1       -0.0598
     24 C          -0.4945    1.1381    3.5572 C.3     1  LIG1       -0.0598
     25 C           4.9253    0.2456   -0.6365 C.3     1  LIG1       -0.0593
     26 C           1.5950    2.5421    0.6710 C.3     1  LIG1       -0.0463
     27 C           0.5421    2.2840   -0.8416 C.3     1  LIG1       -0.0466
     28 C           3.9016    2.2623    0.6522 C.3     1  LIG1       -0.0588
     29 C           1.5298   -2.0885    1.7815 C.3     1  LIG1       -0.0588
     30 C          -0.2272   -2.1128   -0.8843 C.3     1  LIG1       -0.0487
     31 C          -1.2510   -2.0033   -2.0074 C.3     1  LIG1       -0.0467
     32 C          -1.4711    1.9712    0.4177 C.3     1  LIG1       -0.0590
     33 C          -2.8579    1.6716   -1.6903 C.3     1  LIG1       -0.0469
     34 C          -4.0765    1.4018   -2.5128 C.3     1  LIG1       -0.0263
     35 C          -3.0261   -1.8039   -0.3291 C.3     1  LIG1       -0.0590
     36 C          -4.3195   -2.2619   -2.9526 C.3     1  LIG1       -0.0596
     37 H          -6.1974   -0.6286   -1.3609 H       1  LIG1        0.2098
     38 H           4.0903   -1.6766    1.9081 H       1  LIG1        0.0271
     39 H           5.2003   -1.7648    0.5780 H       1  LIG1        0.0271
     40 H           2.9963   -3.0389    0.1864 H       1  LIG1        0.0271
     41 H           3.2269   -1.8737   -1.0479 H       1  LIG1        0.0271
     42 H           2.3295   -0.1571   -1.3353 H       1  LIG1        0.0271
     43 H           2.4991    1.4400   -1.0132 H       1  LIG1        0.0271
     44 H           0.1699    1.4120    1.0566 H       1  LIG1        0.0271
     45 H           0.1239   -0.2493    0.8820 H       1  LIG1        0.0271
     46 H           2.1247   -0.2950    4.0618 H       1  LIG1        0.0273
     47 H           1.9744    1.3888    3.6666 H       1  LIG1        0.0273
     48 H          -1.2672   -0.8118    1.4125 H       1  LIG1        0.0235
     49 H          -1.8747   -0.4564    2.8184 H       1  LIG1        0.0235
     50 H          -0.7686   -1.8245    2.7848 H       1  LIG1        0.0235
     51 H          -0.0873    1.9770    4.1081 H       1  LIG1        0.0235
     52 H          -0.8501    0.4386    4.3488 H       1  LIG1        0.0235
     53 H          -1.4282    1.4781    3.0756 H       1  LIG1        0.0235
     54 H           5.9596    0.2627   -0.3033 H       1  LIG1        0.0235
     55 H           4.7215    1.1073   -1.2845 H       1  LIG1        0.0235
     56 H           4.8422   -0.5705   -1.3784 H       1  LIG1        0.0235
     57 H           2.1363    3.4707    0.4334 H       1  LIG1        0.0271
     58 H           1.0337    2.8792    1.5611 H       1  LIG1        0.0271
     59 H           1.1184    2.2471   -1.7747 H       1  LIG1        0.0271
     60 H           0.0213    3.2447   -0.9417 H       1  LIG1        0.0271
     61 H           4.9535    1.9794    0.7402 H       1  LIG1        0.0235
     62 H           3.8483    3.1391    1.3045 H       1  LIG1        0.0235
     63 H           3.7382    2.6343   -0.3835 H       1  LIG1        0.0235
     64 H           0.5215   -2.4400    1.6123 H       1  LIG1        0.0235
     65 H           1.7214   -1.8527    2.8212 H       1  LIG1        0.0235
     66 H           2.0336   -3.0528    1.6982 H       1  LIG1        0.0235
     67 H          -0.6681   -2.5117    0.0293 H       1  LIG1        0.0268
     68 H           0.5328   -2.8576   -1.1553 H       1  LIG1        0.0268
     69 H          -1.6186   -3.0109   -2.2334 H       1  LIG1        0.0271
     70 H          -0.7666   -1.6492   -2.9245 H       1  LIG1        0.0271
     71 H          -2.2872    1.4915    0.9440 H       1  LIG1        0.0235
     72 H          -1.7930    2.8798   -0.1299 H       1  LIG1        0.0235
     73 H          -0.9357    2.5942    1.1643 H       1  LIG1        0.0235
     74 H          -2.4202    2.6307   -1.9871 H       1  LIG1        0.0269
     75 H          -3.3056    1.8003   -0.6955 H       1  LIG1        0.0269
     76 H          -3.7996    1.3932   -3.5677 H       1  LIG1        0.0290
     77 H          -4.8204    2.1875   -2.3567 H       1  LIG1        0.0290
     78 H          -4.0323   -1.5122   -0.0280 H       1  LIG1        0.0235
     79 H          -2.4559   -1.8701    0.5839 H       1  LIG1        0.0235
     80 H          -3.1475   -2.8695   -0.6054 H       1  LIG1        0.0235
     81 H          -4.9318   -2.6421   -2.1308 H       1  LIG1        0.0233
     82 H          -3.6421   -3.0466   -3.2921 H       1  LIG1        0.0233
     83 H          -4.9944   -2.0281   -3.7846 H       1  LIG1        0.0233
@<TRIPOS>BOND
     1     1     2    1
     2     2     3    1
     3     2     4    1
     4     4     6    1
     5     6     7    1
     6     7     8    1
     7     7     9    1
     8     9    10    1
     9    10    11    1
    10    10    12    1
    11    12    13    1
    12    13    14    1
    13    14    15    1
    14    14    16    1
    15    16    17    1
    16    17    18    1
    17    12    18    1
    18    16    19    1
    19    19    20    1
    20    20    21    1
    21    21    22    1
    22    14    22    1
    23    21    23    1
    24    21    24    1
    25    16    25    1
    26    13    26    1
    27    26    27    1
    28     9    27    1
    29    13    28    1
    30    12    29    1
    31    10    30    1
    32    30    31    1
    33     6    31    1
    34     9    32    1
    35     7    33    1
    36    33    34    1
    37     2    34    1
    38     6    35    1
    39     4    36    1
    40     4     5    1
    41     1    37    1
    42    17    38    1
    43    17    39    1
    44    18    40    1
    45    18    41    1
    46    19    42    1
    47    19    43    1
    48    20    44    1
    49    20    45    1
    50    22    46    1
    51    22    47    1
    52    23    48    1
    53    23    49    1
    54    23    50    1
    55    24    51    1
    56    24    52    1
    57    24    53    1
    58    25    54    1
    59    25    55    1
    60    25    56    1
    61    26    57    1
    62    26    58    1
    63    27    59    1
    64    27    60    1
    65    28    61    1
    66    28    62    1
    67    28    63    1
    68    29    64    1
    69    29    65    1
    70    29    66    1
    71    30    67    1
    72    30    68    1
    73    31    69    1
    74    31    70    1
    75    32    71    1
    76    32    72    1
    77    32    73    1
    78    33    74    1
    79    33    75    1
    80    34    76    1
    81    34    77    1
    82    35    78    1
    83    35    79    1
    84    35    80    1
    85    36    81    1
    86    36    82    1
    87    36    83    1
