@<TRIPOS>MOLECULE
NuBBE_1985
 62 61 0 0 0
SMALL
GASTEIGER

@<TRIPOS>ATOM
      1 C           1.7569    1.4398   -2.1272 C.3     1  LIG1       -0.0531
      2 C           0.3819    1.5724   -1.4670 C.3     1  LIG1       -0.0531
      3 C          -0.6434    0.4096   -1.2494 C.3     1  LIG1       -0.0531
      4 C          -0.2213   -0.8150   -0.4040 C.3     1  LIG1       -0.0531
      5 C          -1.3271   -1.9019   -0.2349 C.3     1  LIG1       -0.0531
      6 C          -1.0238   -3.1375    0.6928 C.3     1  LIG1       -0.0531
      7 C           0.0613   -4.1431    0.2139 C.3     1  LIG1       -0.0531
      8 C           0.3797   -5.4043    1.1041 C.3     1  LIG1       -0.0531
      9 C          -0.0122   -6.8621    0.6599 C.3     1  LIG1       -0.0533
     10 C          -1.4032   -7.4151    1.0320 C.3     1  LIG1       -0.0559
     11 C          -1.7021   -8.8328    0.4910 C.3     1  LIG1       -0.0653
     12 C           2.6760    2.7149   -2.1073 C.3     1  LIG1       -0.0531
     13 C           2.2409    4.0271   -2.8065 C.3     1  LIG1       -0.0531
     14 C           0.9364    4.6696   -2.2906 C.3     1  LIG1       -0.0531
     15 C           0.9907    5.0116   -0.7934 C.3     1  LIG1       -0.0531
     16 C          -0.3501    5.4145   -0.1795 C.3     1  LIG1       -0.0531
     17 C          -1.3022    4.2732    0.2422 C.3     1  LIG1       -0.0531
     18 C          -0.8320    3.3563    1.3898 C.3     1  LIG1       -0.0533
     19 C          -0.2343    4.1149    2.5674 C.3     1  LIG1       -0.0559
     20 C           0.0556    3.2350    3.7697 C.3     1  LIG1       -0.0653
     21 H           1.6404    1.1174   -3.1691 H       1  LIG1        0.0265
     22 H           2.3097    0.6611   -1.5999 H       1  LIG1        0.0265
     23 H          -0.1915    2.2854   -2.0503 H       1  LIG1        0.0265
     24 H           0.5854    2.0097   -0.4962 H       1  LIG1        0.0265
     25 H          -1.0301    0.0958   -2.2300 H       1  LIG1        0.0265
     26 H          -1.5029    0.8733   -0.7439 H       1  LIG1        0.0265
     27 H           0.0622   -0.4533    0.5952 H       1  LIG1        0.0265
     28 H           0.6637   -1.2697   -0.8592 H       1  LIG1        0.0265
     29 H          -1.6480   -2.2590   -1.2268 H       1  LIG1        0.0265
     30 H          -2.2160   -1.3991    0.1890 H       1  LIG1        0.0265
     31 H          -1.9617   -3.6908    0.8261 H       1  LIG1        0.0265
     32 H          -0.7480   -2.7469    1.6800 H       1  LIG1        0.0265
     33 H           0.9901   -3.5562    0.1880 H       1  LIG1        0.0265
     34 H          -0.1356   -4.4582   -0.8154 H       1  LIG1        0.0265
     35 H           0.1453   -5.2328    2.1614 H       1  LIG1        0.0265
     36 H           1.4827   -5.4504    1.0760 H       1  LIG1        0.0265
     37 H           0.7109   -7.5342    1.1463 H       1  LIG1        0.0265
     38 H           0.1620   -6.9756   -0.4163 H       1  LIG1        0.0265
     39 H          -2.1817   -6.7466    0.6642 H       1  LIG1        0.0263
     40 H          -1.4923   -7.4699    2.1244 H       1  LIG1        0.0263
     41 H          -1.8167   -8.8369   -0.5987 H       1  LIG1        0.0230
     42 H          -2.6486   -9.2031    0.9087 H       1  LIG1        0.0230
     43 H          -0.9326   -9.5679    0.7545 H       1  LIG1        0.0230
     44 H           3.6175    2.4318   -2.5948 H       1  LIG1        0.0265
     45 H           2.9744    2.9547   -1.0716 H       1  LIG1        0.0265
     46 H           2.1131    3.8224   -3.8543 H       1  LIG1        0.0265
     47 H           3.0236    4.7528   -2.7214 H       1  LIG1        0.0265
     48 H           0.0927    4.0333   -2.5244 H       1  LIG1        0.0265
     49 H           0.7373    5.5811   -2.8633 H       1  LIG1        0.0265
     50 H           1.6767    5.8634   -0.6915 H       1  LIG1        0.0265
     51 H           1.4232    4.2018   -0.2090 H       1  LIG1        0.0265
     52 H          -0.8876    6.0730   -0.8712 H       1  LIG1        0.0265
     53 H          -0.1390    6.0201    0.7063 H       1  LIG1        0.0265
     54 H          -1.5817    3.6750   -0.6232 H       1  LIG1        0.0265
     55 H          -2.2318    4.7481    0.5870 H       1  LIG1        0.0265
     56 H          -0.0553    2.6636    1.0601 H       1  LIG1        0.0265
     57 H          -1.6627    2.7144    1.6964 H       1  LIG1        0.0265
     58 H          -0.8981    4.9254    2.8606 H       1  LIG1        0.0263
     59 H           0.7167    4.5509    2.2461 H       1  LIG1        0.0263
     60 H          -0.8692    2.9145    4.2616 H       1  LIG1        0.0230
     61 H           0.6422    3.8085    4.4969 H       1  LIG1        0.0230
     62 H           0.6338    2.3457    3.4987 H       1  LIG1        0.0230
@<TRIPOS>BOND
     1     1     2    1
     2     2     3    1
     3     3     4    1
     4     4     5    1
     5     5     6    1
     6     6     7    1
     7     7     8    1
     8     8     9    1
     9     9    10    1
    10    10    11    1
    11     1    12    1
    12    12    13    1
    13    13    14    1
    14    14    15    1
    15    15    16    1
    16    16    17    1
    17    17    18    1
    18    18    19    1
    19    19    20    1
    20     1    21    1
    21     1    22    1
    22     2    23    1
    23     2    24    1
    24     3    25    1
    25     3    26    1
    26     4    27    1
    27     4    28    1
    28     5    29    1
    29     5    30    1
    30     6    31    1
    31     6    32    1
    32     7    33    1
    33     7    34    1
    34     8    35    1
    35     8    36    1
    36     9    37    1
    37     9    38    1
    38    10    39    1
    39    10    40    1
    40    11    41    1
    41    11    42    1
    42    11    43    1
    43    12    44    1
    44    12    45    1
    45    13    46    1
    46    13    47    1
    47    14    48    1
    48    14    49    1
    49    15    50    1
    50    15    51    1
    51    16    52    1
    52    16    53    1
    53    17    54    1
    54    17    55    1
    55    18    56    1
    56    18    57    1
    57    19    58    1
    58    19    59    1
    59    20    60    1
    60    20    61    1
    61    20    62    1
