REMARK  Name = NuBBE_2339
REMARK  12 active torsions:
REMARK  status: ('A' for Active; 'I' for Inactive)
REMARK    1  A    between atoms: C_1  and  O_2
REMARK    2  A    between atoms: O_2  and  C_3
REMARK    3  A    between atoms: C_4  and  O_5
REMARK    4  A    between atoms: O_5  and  C_6
REMARK    5  A    between atoms: C_7  and  O_8
REMARK    6  A    between atoms: O_8  and  C_9
REMARK    7  A    between atoms: C_11  and  C_12
REMARK    8  A    between atoms: C_16  and  C_17
REMARK    9  A    between atoms: C_17  and  C_18
REMARK   10  A    between atoms: C_20  and  C_22
REMARK   11  A    between atoms: C_25  and  O_26
REMARK   12  A    between atoms: O_26  and  C_27
REMARK                            x       y       z     vdW  Elec       q    Type
REMARK                         _______ _______ _______ _____ _____    ______ ____
ROOT
ATOM      1  C   LIG A   1       1.163   0.503   0.011  0.00  0.00    +0.207 C 
ATOM      2  O   LIG A   1       1.246   0.324   1.425  0.00  0.00    -0.487 OA
ATOM      3  C   LIG A   1       1.419  -1.026   1.611  0.00  0.00    +0.113 C 
ATOM      4  C   LIG A   1       0.841  -1.871   0.515  0.00  0.00    +0.059 C 
ATOM      5  C   LIG A   1       1.061  -0.900  -0.666  0.00  0.00    +0.049 C 
ATOM      6  C   LIG A   1       2.335  -1.154  -1.495  0.00  0.00    +0.013 C 
ATOM      7  C   LIG A   1       2.163  -1.478   2.618  0.00  0.00    +0.096 C 
ATOM      8  C   LIG A   1       2.493  -2.912   2.679  0.00  0.00    +0.223 C 
ATOM      9  C   LIG A   1       2.284  -3.732   1.421  0.00  0.00    +0.164 C 
ATOM     10  C   LIG A   1       1.542  -3.211   0.427  0.00  0.00    +0.038 C 
ATOM     11  O   LIG A   1       2.945  -3.350   3.724  0.00  0.00    -0.284 OA
ENDROOT
BRANCH   1  16
ATOM     12  C   LIG A   1      -1.025   2.858  -2.036  0.00  0.00    +0.166 A 
ATOM     13  C   LIG A   1      -1.737   3.575  -1.046  0.00  0.00    +0.203 A 
ATOM     14  C   LIG A   1      -1.599   3.173   0.299  0.00  0.00    +0.166 A 
ATOM     15  C   LIG A   1      -0.703   2.138   0.627  0.00  0.00    +0.057 A 
ATOM     16  C   LIG A   1       0.077   1.495  -0.343  0.00  0.00    +0.000 A 
ATOM     17  C   LIG A   1      -0.098   1.874  -1.672  0.00  0.00    +0.057 A 
BRANCH  12  19
ATOM     18  C   LIG A   1      -1.089   2.105  -4.297  0.00  0.00    +0.277 C 
ATOM     19  O   LIG A   1      -1.195   3.171  -3.360  0.00  0.00    -0.491 OA
ENDBRANCH  12  19
BRANCH  13  20
ATOM     20  O   LIG A   1      -2.552   4.651  -1.290  0.00  0.00    -0.488 OA
ATOM     21  C   LIG A   1      -2.663   5.153  -2.613  0.00  0.00    +0.277 C 
ENDBRANCH  13  20
BRANCH  14  22
ATOM     22  O   LIG A   1      -2.234   3.660   1.417  0.00  0.00    -0.491 OA
ATOM     23  C   LIG A   1      -3.162   4.726   1.293  0.00  0.00    +0.277 C 
ENDBRANCH  14  22
ENDBRANCH   1  16
BRANCH   9  24
ATOM     24  O   LIG A   1       2.795  -5.013   1.248  0.00  0.00    -0.492 OA
ATOM     25  C   LIG A   1       3.554  -5.542   2.330  0.00  0.00    +0.277 C 
ENDBRANCH   9  24
BRANCH   4  26
ATOM     26  C   LIG A   1      -0.691  -2.125   0.752  0.00  0.00    +0.045 C 
BRANCH  26  27
ATOM     27  C   LIG A   1      -1.053  -2.924   1.990  0.00  0.00    -0.033 C 
ATOM     28  C   LIG A   1      -2.097  -3.758   2.080  0.00  0.00    +0.004 C 
ENDBRANCH  26  27
ENDBRANCH   4  26
TORSDOF 7
