@<TRIPOS>MOLECULE
NuBBE_1555
 84 87 0 0 0
SMALL
GASTEIGER

@<TRIPOS>ATOM
      1 C          -3.3659    1.2530    0.2295 C.3     1  LIG1       -0.0588
      2 C          -1.8134    1.2325    0.3511 C.3     1  LIG1       -0.0232
      3 C          -1.2207   -0.2116    0.8844 C.3     1  LIG1       -0.0231
      4 C          -0.0978   -0.0029    1.9384 C.3     1  LIG1       -0.0588
      5 C          -2.3565   -1.0024    1.6033 C.3     1  LIG1       -0.0466
      6 C          -2.0546   -2.4561    1.9540 C.3     1  LIG1       -0.0486
      7 C          -1.6870   -3.2567    0.6926 C.3     1  LIG1       -0.0278
      8 H          -2.5040   -3.0683   -0.0231 H       1  LIG1        0.0312
      9 C          -0.4072   -2.6653    0.0091 C.3     1  LIG1       -0.0252
     10 C           0.8807   -2.8155    0.8729 C.3     1  LIG1       -0.0590
     11 C          -0.1493   -3.4807   -1.2973 C.3     1  LIG1       -0.0447
     12 C          -0.0794   -4.9935   -1.0974 C.3     1  LIG1       -0.0258
     13 C          -1.3552   -5.5209   -0.4487 C.3     1  LIG1        0.0606
     14 H          -2.1850   -5.3686   -1.1520 H       1  LIG1        0.0599
     15 O          -1.2277   -6.9307   -0.2669 O.3     1  LIG1       -0.3912
     16 C          -1.7075   -4.8222    0.8973 C.3     1  LIG1       -0.0056
     17 C          -0.7893   -5.3143    2.0361 C.3     1  LIG1       -0.0572
     18 C          -3.1447   -5.2766    1.2797 C.3     1  LIG1       -0.0572
     19 C          -0.6214   -1.0963   -0.3023 C.3     1  LIG1       -0.0294
     20 H           0.3846   -0.7052   -0.5154 H       1  LIG1        0.0312
     21 C          -1.4172   -0.8145   -1.5862 C.3     1  LIG1       -0.0489
     22 C          -1.1547    0.6008   -2.0793 C.3     1  LIG1       -0.0491
     23 C          -1.2445    1.6949   -1.0180 C.3     1  LIG1       -0.0297
     24 C           0.0916    2.4395   -0.7214 C.3     1  LIG1       -0.0090
     25 C           0.4196    3.6067   -1.7161 C.3     1  LIG1        0.0667
     26 O          -0.6403    4.5792   -1.6618 O.3     1  LIG1       -0.3886
     27 C           0.4524    3.1520   -3.1813 C.3     1  LIG1       -0.0358
     28 C           1.7365    4.3512   -1.3797 C.3     1  LIG1       -0.0206
     29 C           3.0020    3.4945   -1.3942 C.3     1  LIG1       -0.0319
     30 C           4.2092    4.3280   -1.0700 C.2     1  LIG1       -0.0852
     31 C           4.7374    4.5396    0.1519 C.2     1  LIG1       -0.0796
     32 C           4.1891    3.9792    1.4341 C.3     1  LIG1       -0.0440
     33 C           5.9525    5.4147    0.3280 C.3     1  LIG1       -0.0440
     34 H           0.9081    1.7080   -0.7537 H       1  LIG1        0.0331
     35 C          -0.0600    2.9218    0.7407 C.3     1  LIG1       -0.0468
     36 C          -1.4378    2.4662    1.2092 C.3     1  LIG1       -0.0465
     37 H          -1.9275    2.4523   -1.4298 H       1  LIG1        0.0310
     38 H          -3.8479    1.1322    1.2053 H       1  LIG1        0.0235
     39 H          -3.7423    0.4878   -0.4541 H       1  LIG1        0.0235
     40 H          -3.7263    2.2114   -0.1658 H       1  LIG1        0.0235
     41 H          -0.3967    0.6707    2.7443 H       1  LIG1        0.0235
     42 H           0.8204    0.3727    1.4801 H       1  LIG1        0.0235
     43 H           0.1724   -0.9170    2.4625 H       1  LIG1        0.0235
     44 H          -3.2475   -1.0498    0.9696 H       1  LIG1        0.0271
     45 H          -2.6520   -0.4735    2.5187 H       1  LIG1        0.0271
     46 H          -2.9617   -2.8622    2.4129 H       1  LIG1        0.0268
     47 H          -1.2840   -2.5183    2.7253 H       1  LIG1        0.0268
     48 H           1.4209   -3.7455    0.6854 H       1  LIG1        0.0235
     49 H           0.6868   -2.8021    1.9454 H       1  LIG1        0.0235
     50 H           1.6075   -2.0259    0.6517 H       1  LIG1        0.0235
     51 H           0.7675   -3.1301   -1.7868 H       1  LIG1        0.0271
     52 H          -0.9694   -3.3342   -2.0067 H       1  LIG1        0.0271
     53 H           0.8020   -5.3007   -0.5266 H       1  LIG1        0.0290
     54 H           0.0486   -5.4751   -2.0759 H       1  LIG1        0.0290
     55 H          -1.0575   -7.3257   -1.1391 H       1  LIG1        0.2098
     56 H           0.2702   -5.2239    1.7948 H       1  LIG1        0.0236
     57 H          -0.9651   -6.3745    2.2545 H       1  LIG1        0.0236
     58 H          -0.9726   -4.7712    2.9683 H       1  LIG1        0.0236
     59 H          -3.4292   -4.9407    2.2817 H       1  LIG1        0.0236
     60 H          -3.2333   -6.3691    1.2801 H       1  LIG1        0.0236
     61 H          -3.8845   -4.8887    0.5704 H       1  LIG1        0.0236
     62 H          -2.4847   -0.9999   -1.4387 H       1  LIG1        0.0268
     63 H          -1.1089   -1.4505   -2.4173 H       1  LIG1        0.0268
     64 H          -1.8669    0.8167   -2.8856 H       1  LIG1        0.0268
     65 H          -0.1645    0.6095   -2.5492 H       1  LIG1        0.0268
     66 H          -0.6094    5.0280   -0.8009 H       1  LIG1        0.2102
     67 H           1.1812    2.3555   -3.3536 H       1  LIG1        0.0257
     68 H           0.6995    3.9928   -3.8410 H       1  LIG1        0.0257
     69 H          -0.5324    2.8114   -3.5171 H       1  LIG1        0.0257
     70 H           1.6425    4.8447   -0.4040 H       1  LIG1        0.0296
     71 H           1.8564    5.1843   -2.0878 H       1  LIG1        0.0296
     72 H           3.1605    3.0554   -2.3908 H       1  LIG1        0.0308
     73 H           2.9233    2.6480   -0.7066 H       1  LIG1        0.0308
     74 H           4.6797    4.8020   -1.9267 H       1  LIG1        0.0571
     75 H           3.2593    3.4221    1.3028 H       1  LIG1        0.0274
     76 H           3.9769    4.7911    2.1414 H       1  LIG1        0.0274
     77 H           4.9190    3.3042    1.8974 H       1  LIG1        0.0274
     78 H           6.3450    5.7784   -0.6268 H       1  LIG1        0.0274
     79 H           6.7539    4.8622    0.8291 H       1  LIG1        0.0274
     80 H           5.6994    6.2908    0.9377 H       1  LIG1        0.0274
     81 H           0.0300    4.0036    0.8699 H       1  LIG1        0.0269
     82 H           0.7341    2.4944    1.3594 H       1  LIG1        0.0269
     83 H          -2.1339    3.2933    1.0069 H       1  LIG1        0.0271
     84 H          -1.5012    2.3038    2.2876 H       1  LIG1        0.0271
@<TRIPOS>BOND
     1     2     3    1
     2     3     5    1
     3     5     6    1
     4     6     7    1
     5     7     9    1
     6     9    11    1
     7    11    12    1
     8    12    13    1
     9    13    16    1
    10     7    16    1
    11     9    19    1
    12     3    19    1
    13    19    21    1
    14    21    22    1
    15    22    23    1
    16    23    24    1
    17    25    28    1
    18    28    29    1
    19    29    30    1
    20    30    31    2
    21    31    32    1
    22    31    33    1
    23    24    35    1
    24    35    36    1
    25     2    36    1
    26     2    23    1
    27     1     2    1
    28     3     4    1
    29     7     8    1
    30     9    10    1
    31    16    17    1
    32    16    18    1
    33    19    20    1
    34    23    37    1
    35    24    25    1
    36    24    34    1
    37    13    15    1
    38    13    14    1
    39    25    27    1
    40    25    26    1
    41     1    38    1
    42     1    39    1
    43     1    40    1
    44     4    41    1
    45     4    42    1
    46     4    43    1
    47     5    44    1
    48     5    45    1
    49     6    46    1
    50     6    47    1
    51    10    48    1
    52    10    49    1
    53    10    50    1
    54    11    51    1
    55    11    52    1
    56    12    53    1
    57    12    54    1
    58    15    55    1
    59    17    56    1
    60    17    57    1
    61    17    58    1
    62    18    59    1
    63    18    60    1
    64    18    61    1
    65    21    62    1
    66    21    63    1
    67    22    64    1
    68    22    65    1
    69    26    66    1
    70    27    67    1
    71    27    68    1
    72    27    69    1
    73    28    70    1
    74    28    71    1
    75    29    72    1
    76    29    73    1
    77    30    74    1
    78    32    75    1
    79    32    76    1
    80    32    77    1
    81    33    78    1
    82    33    79    1
    83    33    80    1
    84    35    81    1
    85    35    82    1
    86    36    83    1
    87    36    84    1
