REMARK  Name = NuBBE_2025
REMARK  8 active torsions:
REMARK  status: ('A' for Active; 'I' for Inactive)
REMARK    1  A    between atoms: C_4  and  O_5
REMARK    2  A    between atoms: C_6  and  O_7
REMARK    3  A    between atoms: O_7  and  C_8
REMARK    4  A    between atoms: C_9  and  O_10
REMARK    5  A    between atoms: C_15  and  C_16
REMARK    6  A    between atoms: C_18  and  O_19
REMARK    7  A    between atoms: C_20  and  O_21
REMARK    8  A    between atoms: O_21  and  C_22
REMARK                            x       y       z     vdW  Elec       q    Type
REMARK                         _______ _______ _______ _____ _____    ______ ____
ROOT
ATOM      1  O   LIG A   1      -1.029  -0.666  -0.008  0.00  0.00    -0.286 OA
ATOM      2  C   LIG A   1       0.186  -0.563   0.062  0.00  0.00    +0.204 A 
ATOM      3  C   LIG A   1       1.003  -1.793   0.082  0.00  0.00    +0.110 A 
ATOM      4  C   LIG A   1       0.399  -3.064  -0.010  0.00  0.00    +0.177 A 
ATOM      5  C   LIG A   1       1.203  -4.209  -0.069  0.00  0.00    +0.204 A 
ATOM      6  C   LIG A   1       2.597  -4.044  -0.004  0.00  0.00    +0.166 A 
ATOM      7  C   LIG A   1       3.194  -2.794   0.118  0.00  0.00    +0.096 A 
ATOM      8  C   LIG A   1       2.386  -1.664   0.157  0.00  0.00    +0.146 A 
ATOM      9  O   LIG A   1       3.020  -0.453   0.251  0.00  0.00    -0.462 OA
ATOM     10  C   LIG A   1       2.240   0.682   0.213  0.00  0.00    +0.208 A 
ATOM     11  C   LIG A   1       0.902   0.749   0.110  0.00  0.00    +0.065 A 
ENDROOT
BRANCH  11  12
ATOM     12  C   LIG A   1       0.192   2.051   0.070  0.00  0.00    -0.008 A 
ATOM     13  C   LIG A   1      -1.108   2.159   0.579  0.00  0.00    +0.058 A 
ATOM     14  C   LIG A   1      -1.822   3.360   0.532  0.00  0.00    +0.159 A 
ATOM     15  C   LIG A   1      -1.242   4.507  -0.010  0.00  0.00    +0.161 A 
ATOM     16  C   LIG A   1       0.066   4.423  -0.496  0.00  0.00    +0.050 A 
ATOM     17  C   LIG A   1       0.768   3.209  -0.478  0.00  0.00    +0.012 A 
BRANCH  14  18
ATOM     18  O   LIG A   1      -3.083   3.370   1.059  0.00  0.00    -0.503 OA
ATOM     19  H   LIG A   1      -3.334   2.466   1.307  0.00  0.00    +0.292 HD
ENDBRANCH  14  18
BRANCH  15  20
ATOM     20  O   LIG A   1      -1.798   5.755  -0.085  0.00  0.00    -0.491 OA
ATOM     21  C   LIG A   1      -3.216   5.808  -0.212  0.00  0.00    +0.277 C 
ENDBRANCH  15  20
ENDBRANCH  11  12
BRANCH   4  22
ATOM     22  O   LIG A   1      -0.967  -3.185  -0.050  0.00  0.00    -0.503 OA
ATOM     23  H   LIG A   1      -1.369  -2.286  -0.031  0.00  0.00    +0.292 HD
ENDBRANCH   4  22
BRANCH   5  24
ATOM     24  O   LIG A   1       0.815  -5.519  -0.196  0.00  0.00    -0.488 OA
ATOM     25  C   LIG A   1      -0.573  -5.790  -0.355  0.00  0.00    +0.277 C 
ENDBRANCH   5  24
BRANCH   6  26
ATOM     26  O   LIG A   1       3.422  -5.135  -0.077  0.00  0.00    -0.503 OA
ATOM     27  H   LIG A   1       2.823  -5.900  -0.189  0.00  0.00    +0.292 HD
ENDBRANCH   6  26
TORSDOF 6
