REMARK  Name = NuBBE_2471
REMARK  21 active torsions:
REMARK  status: ('A' for Active; 'I' for Inactive)
REMARK    1  A    between atoms: C_1  and  O_2
REMARK    2  A    between atoms: O_2  and  C_3
REMARK    3  A    between atoms: C_4  and  O_5
REMARK    4  A    between atoms: O_5  and  C_6
REMARK    5  A    between atoms: C_9  and  C_10
REMARK    6  A    between atoms: C_10  and  C_11
REMARK    7  A    between atoms: C_11  and  C_13
REMARK    8  A    between atoms: C_11  and  C_31
REMARK    9  A    between atoms: C_13  and  C_15
REMARK   10  A    between atoms: C_13  and  C_20
REMARK   11  A    between atoms: C_15  and  O_16
REMARK   12  A    between atoms: O_16  and  C_17
REMARK   13  A    between atoms: C_17  and  C_18
REMARK   14  A    between atoms: C_20  and  C_21
REMARK   15  A    between atoms: C_24  and  O_25
REMARK   16  A    between atoms: O_25  and  C_26
REMARK   17  A    between atoms: C_27  and  O_28
REMARK   18  A    between atoms: O_28  and  C_29
REMARK   19  A    between atoms: C_31  and  O_32
REMARK   20  A    between atoms: O_32  and  C_33
REMARK   21  A    between atoms: C_33  and  C_34
REMARK                            x       y       z     vdW  Elec       q    Type
REMARK                         _______ _______ _______ _____ _____    ______ ____
ROOT
ATOM      1  C   LIG A   1      -0.665  -1.521   0.119  0.00  0.00    +0.038 C 
ENDROOT
BRANCH   1   2
ATOM      2  C   LIG A   1      -2.224  -1.448  -0.015  0.00  0.00    +0.042 C 
BRANCH   2   7
ATOM      3  C   LIG A   1      -3.049   1.821   1.930  0.00  0.00    +0.162 A 
ATOM      4  C   LIG A   1      -4.048   1.382   2.807  0.00  0.00    +0.162 A 
ATOM      5  C   LIG A   1      -4.532   0.069   2.632  0.00  0.00    +0.050 A 
ATOM      6  C   LIG A   1      -3.989  -0.816   1.684  0.00  0.00    +0.007 A 
ATOM      7  C   LIG A   1      -2.920  -0.424   0.880  0.00  0.00    -0.043 A 
ATOM      8  C   LIG A   1      -2.549   0.933   0.938  0.00  0.00    +0.053 A 
BRANCH   3  10
ATOM      9  C   LIG A   1      -2.022   3.627   3.102  0.00  0.00    +0.277 C 
ATOM     10  O   LIG A   1      -2.461   3.058   1.873  0.00  0.00    -0.491 OA
ENDBRANCH   3  10
BRANCH   4  11
ATOM     11  O   LIG A   1      -4.586   1.999   3.905  0.00  0.00    -0.491 OA
ATOM     12  C   LIG A   1      -4.883   3.389   3.928  0.00  0.00    +0.277 C 
ENDBRANCH   4  11
ENDBRANCH   2   7
ENDBRANCH   1   2
BRANCH   1  13
ATOM     13  C   LIG A   1       0.005  -2.245  -1.119  0.00  0.00    +0.038 C 
BRANCH  13  14
ATOM     14  C   LIG A   1       0.017  -3.801  -1.002  0.00  0.00    +0.236 C 
BRANCH  14  15
ATOM     15  O   LIG A   1       0.534  -4.385  -2.228  0.00  0.00    -0.465 OA
BRANCH  15  16
ATOM     16  C   LIG A   1       1.864  -4.771  -2.213  0.00  0.00    +0.304 C 
ATOM     17  C   LIG A   1       2.356  -4.979  -3.642  0.00  0.00    +0.136 C 
ATOM     18  O   LIG A   1       2.560  -4.835  -1.275  0.00  0.00    -0.251 OA
ENDBRANCH  15  16
ENDBRANCH  14  15
ENDBRANCH  13  14
BRANCH  13  19
ATOM     19  C   LIG A   1       1.438  -1.737  -1.367  0.00  0.00    +0.042 C 
BRANCH  19  20
ATOM     20  C   LIG A   1       1.627  -0.232  -1.442  0.00  0.00    -0.043 A 
ATOM     21  C   LIG A   1       1.768   0.577  -0.331  0.00  0.00    +0.007 A 
ATOM     22  C   LIG A   1       2.150   1.889  -0.181  0.00  0.00    +0.050 A 
ATOM     23  C   LIG A   1       2.205   2.619  -1.316  0.00  0.00    +0.162 A 
ATOM     24  C   LIG A   1       1.910   1.916  -2.517  0.00  0.00    +0.162 A 
ATOM     25  C   LIG A   1       1.722   0.490  -2.580  0.00  0.00    +0.053 A 
BRANCH  23  26
ATOM     26  O   LIG A   1       2.456   3.961  -1.252  0.00  0.00    -0.491 OA
ATOM     27  C   LIG A   1       3.200   4.410  -0.098  0.00  0.00    +0.277 C 
ENDBRANCH  23  26
BRANCH  24  28
ATOM     28  O   LIG A   1       1.787   2.648  -3.669  0.00  0.00    -0.491 OA
ATOM     29  C   LIG A   1       0.855   2.038  -4.559  0.00  0.00    +0.277 C 
ENDBRANCH  24  28
ENDBRANCH  19  20
ENDBRANCH  13  19
ENDBRANCH   1  13
BRANCH   1  30
ATOM     30  C   LIG A   1      -0.149  -2.010   1.522  0.00  0.00    +0.236 C 
BRANCH  30  31
ATOM     31  O   LIG A   1       1.305  -2.229   1.541  0.00  0.00    -0.465 OA
BRANCH  31  32
ATOM     32  C   LIG A   1       2.178  -1.207   1.864  0.00  0.00    +0.304 C 
ATOM     33  C   LIG A   1       3.479  -1.332   0.932  0.00  0.00    +0.136 C 
ATOM     34  O   LIG A   1       1.864  -0.236   2.523  0.00  0.00    -0.251 OA
ENDBRANCH  31  32
ENDBRANCH  30  31
ENDBRANCH   1  30
TORSDOF 15
