REMARK  Name = NuBBE_1058
REMARK  2 active torsions:
REMARK  status: ('A' for Active; 'I' for Inactive)
REMARK    1  A    between atoms: C_15  and  O_16
REMARK    2  A    between atoms: O_16  and  C_17
REMARK                            x       y       z     vdW  Elec       q    Type
REMARK                         _______ _______ _______ _____ _____    ______ ____
ROOT
ATOM      1  O   LIG A   1      -4.449   1.415  -0.023  0.00  0.00    -0.245 OA
ATOM      2  C   LIG A   1      -3.224   1.441  -0.052  0.00  0.00    +0.337 A 
ATOM      3  C   LIG A   1      -2.500   2.715  -0.169  0.00  0.00    +0.092 A 
ATOM      4  C   LIG A   1      -1.166   2.781  -0.205  0.00  0.00    +0.020 A 
ATOM      5  O   LIG A   1      -2.445   0.300   0.022  0.00  0.00    -0.418 OA
ATOM      6  C   LIG A   1      -1.023   0.337  -0.014  0.00  0.00    +0.185 A 
ATOM      7  C   LIG A   1      -0.361   1.563  -0.127  0.00  0.00    +0.040 A 
ATOM      8  C   LIG A   1       1.040   1.554  -0.159  0.00  0.00    +0.063 A 
ATOM      9 CL   LIG A   1       2.012   2.963  -0.293  0.00  0.00    -0.082 Cl
ATOM     10  C   LIG A   1       1.765   0.347  -0.081  0.00  0.00    +0.043 A 
ATOM     11  C   LIG A   1       3.140  -0.034  -0.086  0.00  0.00    +0.051 A 
ATOM     12  C   LIG A   1       3.168  -1.402   0.020  0.00  0.00    +0.196 A 
ATOM     13  O   LIG A   1       1.909  -1.897   0.091  0.00  0.00    -0.459 OA
ATOM     14  C   LIG A   1       1.042  -0.843   0.031  0.00  0.00    +0.181 A 
ATOM     15  C   LIG A   1      -0.359  -0.904   0.072  0.00  0.00    +0.206 A 
ENDROOT
BRANCH  15  16
ATOM     16  O   LIG A   1      -1.161  -2.027   0.178  0.00  0.00    -0.488 OA
ATOM     17  C   LIG A   1      -0.498  -3.275   0.323  0.00  0.00    +0.277 C 
ENDBRANCH  15  16
TORSDOF 1
