REMARK  Name = NuBBE_611
REMARK  11 active torsions:
REMARK  status: ('A' for Active; 'I' for Inactive)
REMARK    1  A    between atoms: C_1  and  C_2
REMARK    2  A    between atoms: C_4  and  C_48
REMARK    3  A    between atoms: C_6  and  C_10
REMARK    4  A    between atoms: C_10  and  C_11
REMARK    5  A    between atoms: C_20  and  O_22
REMARK    6  A    between atoms: O_22  and  C_23
REMARK    7  A    between atoms: C_23  and  C_24
REMARK    8  A    between atoms: C_30  and  O_31
REMARK    9  A    between atoms: C_30  and  C_45
REMARK   10  A    between atoms: C_33  and  C_43
REMARK   11  A    between atoms: C_40  and  O_42
REMARK                            x       y       z     vdW  Elec       q    Type
REMARK                         _______ _______ _______ _____ _____    ______ ____
ROOT
ATOM      1  C   LIG A   1       2.207   2.629   2.895  0.00  0.00    +0.047 C 
ATOM      2  C   LIG A   1       1.782   1.411   2.106  0.00  0.00    +0.123 C 
ATOM      3  O   LIG A   1       2.882   0.516   1.954  0.00  0.00    -0.359 OA
ATOM      4  C   LIG A   1       2.365   1.083   0.720  0.00  0.00    +0.104 C 
ATOM      5  C   LIG A   1       1.699  -0.009  -0.083  0.00  0.00    +0.063 C 
ATOM      6  C   LIG A   1       2.046  -0.384  -1.528  0.00  0.00    +0.084 C 
ATOM      7  N   LIG A   1       1.084  -1.449  -1.708  0.00  0.00    -0.311 N 
ATOM      8  H   LIG A   1       1.180  -2.212  -2.370  0.00  0.00    +0.149 HD
ATOM      9  C   LIG A   1       0.159  -0.231   0.142  0.00  0.00    +0.102 C 
ATOM     10  C   LIG A   1       0.075  -1.476  -0.764  0.00  0.00    +0.224 C 
ATOM     11  O   LIG A   1      -0.791  -2.347  -0.803  0.00  0.00    -0.275 OA
ATOM     12  C   LIG A   1      -0.903   0.744  -0.518  0.00  0.00    +0.224 C 
ATOM     13  C   LIG A   1      -2.360   0.888   0.005  0.00  0.00    +0.192 C 
ATOM     14  C   LIG A   1      -3.606   0.324   0.876  0.00  0.00    +0.190 C 
ATOM     15  C   LIG A   1      -3.857  -0.286   2.247  0.00  0.00    +0.149 C 
ATOM     16  C   LIG A   1      -3.970  -1.841   2.254  0.00  0.00    +0.170 C 
ATOM     17  C   LIG A   1      -2.890  -2.676   2.960  0.00  0.00    +0.059 C 
ATOM     18  C   LIG A   1      -1.807  -3.006   1.935  0.00  0.00    +0.037 C 
ATOM     19  C   LIG A   1      -0.389  -2.849   2.419  0.00  0.00    -0.030 C 
ATOM     20  C   LIG A   1       0.394  -1.771   2.230  0.00  0.00    -0.024 C 
ATOM     21  C   LIG A   1      -0.064  -0.430   1.664  0.00  0.00    +0.062 C 
ATOM     22  C   LIG A   1       0.510   0.723   2.571  0.00  0.00    +0.157 C 
ATOM     23  C   LIG A   1      -3.496  -3.960   3.531  0.00  0.00    +0.016 C 
ATOM     24  O   LIG A   1      -4.893  -2.420   1.664  0.00  0.00    -0.294 OA
ATOM     25  C   LIG A   1      -3.104   0.330   3.418  0.00  0.00    +0.052 C 
ATOM     26  O   LIG A   1      -2.925  -0.454  -0.065  0.00  0.00    -0.361 OA
ATOM     27  C   LIG A   1       3.402   1.967   0.093  0.00  0.00    +0.045 C 
ENDROOT
BRANCH  15  28
ATOM     28  O   LIG A   1      -5.245   0.076   2.573  0.00  0.00    -0.379 OA
ATOM     29  H   LIG A   1      -5.272   1.020   2.801  0.00  0.00    +0.211 HD
ENDBRANCH  15  28
BRANCH  22  30
ATOM     30  O   LIG A   1      -0.519   1.695   2.790  0.00  0.00    -0.388 OA
ATOM     31  H   LIG A   1      -0.277   2.529   2.360  0.00  0.00    +0.210 HD
ENDBRANCH  22  30
BRANCH   6  32
ATOM     32  C   LIG A   1       1.938   0.639  -2.664  0.00  0.00    +0.057 C 
BRANCH  32  33
ATOM     33  C   LIG A   1       2.421   0.148  -4.020  0.00  0.00    -0.046 A 
ATOM     34  C   LIG A   1       1.530  -0.478  -4.907  0.00  0.00    +0.003 A 
ATOM     35  C   LIG A   1       1.961  -0.928  -6.159  0.00  0.00    +0.000 A 
ATOM     36  C   LIG A   1       3.286  -0.750  -6.547  0.00  0.00    +0.000 A 
ATOM     37  C   LIG A   1       4.176  -0.109  -5.688  0.00  0.00    +0.000 A 
ATOM     38  C   LIG A   1       3.749   0.336  -4.431  0.00  0.00    +0.003 A 
ENDBRANCH  32  33
ENDBRANCH   6  32
BRANCH  12  39
ATOM     39  O   LIG A   1      -0.301   2.059  -0.765  0.00  0.00    -0.458 OA
BRANCH  39  40
ATOM     40  C   LIG A   1      -0.730   2.695  -1.908  0.00  0.00    +0.304 C 
ATOM     41  C   LIG A   1       0.351   3.524  -2.531  0.00  0.00    +0.136 C 
ATOM     42  O   LIG A   1      -1.806   2.516  -2.464  0.00  0.00    -0.251 OA
ENDBRANCH  39  40
ENDBRANCH  12  39
TORSDOF 6
