@<TRIPOS>MOLECULE
NuBBE_1948
 42 43 0 0 0
SMALL
GASTEIGER

@<TRIPOS>ATOM
      1 O           1.9283   -0.3611    1.0842 O.3     1  LIG1       -0.3877
      2 C           1.0537    0.6753    0.5971 C.3     1  LIG1        0.0754
      3 C          -0.3218    0.0171    0.1875 C.3     1  LIG1        0.0095
      4 H          -0.9736    0.8100   -0.2110 H       1  LIG1        0.0374
      5 C          -0.1750   -1.0537   -0.9413 C.3     1  LIG1       -0.0298
      6 H           0.4127   -1.8954   -0.5491 H       1  LIG1        0.0310
      7 C          -1.5422   -1.6281   -1.4728 C.3     1  LIG1       -0.0433
      8 C          -1.3442   -2.6003   -2.6497 C.3     1  LIG1       -0.0624
      9 C          -2.3779   -2.3588   -0.4148 C.3     1  LIG1       -0.0624
     10 C           0.6144   -0.4362   -2.1238 C.3     1  LIG1       -0.0490
     11 C           1.9164    0.2528   -1.7341 C.3     1  LIG1       -0.0476
     12 C           1.7079    1.3179   -0.6514 C.3     1  LIG1       -0.0144
     13 H           1.0244    2.0821   -1.0466 H       1  LIG1        0.0326
     14 C           3.0473    2.0115   -0.3739 C.3     1  LIG1       -0.0598
     15 C          -0.9716   -0.5078    1.4786 C.2     1  LIG1       -0.0789
     16 C          -1.2003    0.4451    2.4068 C.2     1  LIG1       -0.0761
     17 C           0.0367    1.1360    2.9278 C.3     1  LIG1       -0.0294
     18 C           0.8454    1.7048    1.7461 C.3     1  LIG1       -0.0195
     19 C          -2.4492    1.2797    2.3687 C.3     1  LIG1       -0.0438
     20 H           2.7111    0.0593    1.4769 H       1  LIG1        0.2102
     21 H          -2.1459   -0.7891   -1.8440 H       1  LIG1        0.0298
     22 H          -0.6415   -3.3984   -2.3877 H       1  LIG1        0.0232
     23 H          -0.9731   -2.0862   -3.5410 H       1  LIG1        0.0232
     24 H          -2.2918   -3.0672   -2.9410 H       1  LIG1        0.0232
     25 H          -1.7703   -3.0714    0.1523 H       1  LIG1        0.0232
     26 H          -3.2014   -2.9167   -0.8752 H       1  LIG1        0.0232
     27 H          -2.8510   -1.6575    0.2766 H       1  LIG1        0.0232
     28 H          -0.0241    0.2888   -2.6453 H       1  LIG1        0.0268
     29 H           0.8735   -1.2128   -2.8514 H       1  LIG1        0.0268
     30 H           2.3483    0.7150   -2.6307 H       1  LIG1        0.0269
     31 H           2.6393   -0.5012   -1.3979 H       1  LIG1        0.0269
     32 H           3.7918    1.3180    0.0292 H       1  LIG1        0.0233
     33 H           2.9302    2.8401    0.3305 H       1  LIG1        0.0233
     34 H           3.4573    2.4346   -1.2980 H       1  LIG1        0.0233
     35 H          -0.3128   -1.3223    1.8097 H       1  LIG1        0.0575
     36 H           0.6449    0.4218    3.4968 H       1  LIG1        0.0311
     37 H          -0.2268    1.9433    3.6207 H       1  LIG1        0.0311
     38 H           1.8094    2.0427    2.1438 H       1  LIG1        0.0296
     39 H           0.3260    2.5876    1.3511 H       1  LIG1        0.0296
     40 H          -3.2053    0.8437    1.7068 H       1  LIG1        0.0274
     41 H          -2.2374    2.2946    2.0173 H       1  LIG1        0.0274
     42 H          -2.8822    1.3422    3.3721 H       1  LIG1        0.0274
@<TRIPOS>BOND
     1     1     2    1
     2     2     3    1
     3     3     4    1
     4     3     5    1
     5     5     6    1
     6     5     7    1
     7     7     8    1
     8     7     9    1
     9     5    10    1
    10    10    11    1
    11    11    12    1
    12     2    12    1
    13     3    15    1
    14    15    16    2
    15    16    17    1
    16    17    18    1
    17     2    18    1
    18    16    19    1
    19    12    14    1
    20    12    13    1
    21     1    20    1
    22     7    21    1
    23     8    22    1
    24     8    23    1
    25     8    24    1
    26     9    25    1
    27     9    26    1
    28     9    27    1
    29    10    28    1
    30    10    29    1
    31    11    30    1
    32    11    31    1
    33    14    32    1
    34    14    33    1
    35    14    34    1
    36    15    35    1
    37    17    36    1
    38    17    37    1
    39    18    38    1
    40    18    39    1
    41    19    40    1
    42    19    41    1
    43    19    42    1
