@<TRIPOS>MOLECULE
NuBBE_2400
 42 44 0 0 0
SMALL
GASTEIGER

@<TRIPOS>ATOM
      1 O          -0.7173   -0.6022   -0.4537 O.3     1  LIG1       -0.5053
      2 C           0.6323   -0.3663   -0.5398 C.ar    1  LIG1        0.1382
      3 C           1.5286   -1.4572   -0.5851 C.ar    1  LIG1        0.0586
      4 C           2.8880   -1.2130   -0.8090 C.ar    1  LIG1        0.1324
      5 C           3.3558    0.0949   -0.9378 C.ar    1  LIG1       -0.0184
      6 C           2.4695    1.1701   -0.8500 C.ar    1  LIG1       -0.0439
      7 C           1.0975    0.9572   -0.6419 C.ar    1  LIG1        0.0638
      8 C           0.2310    2.1729   -0.6094 C.2     1  LIG1        0.1896
      9 O           0.5958    3.1924   -1.2020 O.2     1  LIG1       -0.2872
     10 C          -1.0280    2.1572    0.1794 C.2     1  LIG1       -0.0137
     11 C          -1.8709    3.2057    0.1615 C.2     1  LIG1       -0.0510
     12 C          -3.1407    3.2401    0.9046 C.ar    1  LIG1       -0.0247
     13 C          -3.8996    2.0823    1.1391 C.ar    1  LIG1       -0.0511
     14 C          -5.1085    2.1440    1.8379 C.ar    1  LIG1       -0.0196
     15 C          -5.5729    3.3723    2.2909 C.ar    1  LIG1        0.1169
     16 C          -4.8532    4.5353    2.0483 C.ar    1  LIG1       -0.0196
     17 C          -3.6422    4.4707    1.3514 C.ar    1  LIG1       -0.0511
     18 O          -6.7446    3.4766    2.9794 O.3     1  LIG1       -0.5068
     19 O           3.8382   -2.1919   -0.9101 O.3     1  LIG1       -0.4815
     20 C           3.4190   -3.5713   -0.9556 C.3     1  LIG1        0.1235
     21 C           1.9819   -3.8179   -0.5670 C.2     1  LIG1       -0.0408
     22 C           1.0954   -2.8374   -0.3784 C.2     1  LIG1       -0.0478
     23 C           3.6577   -4.0823   -2.3812 C.3     1  LIG1       -0.0215
     24 C           4.3286   -4.3231    0.0244 C.3     1  LIG1       -0.0215
     25 H          -0.9083   -1.4277   -0.9318 H       1  LIG1        0.2922
     26 H           4.4137    0.2791   -1.1107 H       1  LIG1        0.0654
     27 H           2.8551    2.1837   -0.9587 H       1  LIG1        0.0627
     28 H          -1.2369    1.2832    0.7806 H       1  LIG1        0.0656
     29 H          -1.6222    4.0961   -0.4127 H       1  LIG1        0.0625
     30 H          -3.5631    1.1156    0.7729 H       1  LIG1        0.0625
     31 H          -5.6671    1.2300    2.0106 H       1  LIG1        0.0654
     32 H          -5.2314    5.4908    2.4008 H       1  LIG1        0.0654
     33 H          -3.0914    5.3913    1.1710 H       1  LIG1        0.0625
     34 H          -7.1225    2.5880    3.0827 H       1  LIG1        0.2921
     35 H           1.6696   -4.8501   -0.4292 H       1  LIG1        0.0611
     36 H           0.0865   -3.0604   -0.0552 H       1  LIG1        0.0624
     37 H           3.0562   -3.5197   -3.1053 H       1  LIG1        0.0271
     38 H           3.4079   -5.1447   -2.4819 H       1  LIG1        0.0271
     39 H           4.7042   -3.9459   -2.6773 H       1  LIG1        0.0271
     40 H           4.2081   -3.9342    1.0430 H       1  LIG1        0.0271
     41 H           5.3847   -4.1862   -0.2353 H       1  LIG1        0.0271
     42 H           4.1156   -5.3980    0.0406 H       1  LIG1        0.0271
@<TRIPOS>BOND
     1     1     2    1
     2     2     3   ar
     3     3     4   ar
     4     4     5   ar
     5     5     6   ar
     6     6     7   ar
     7     2     7   ar
     8     7     8    1
     9     8     9    2
    10     8    10    1
    11    10    11    2
    12    11    12    1
    13    12    13   ar
    14    13    14   ar
    15    14    15   ar
    16    15    16   ar
    17    16    17   ar
    18    12    17   ar
    19    15    18    1
    20     4    19    1
    21    19    20    1
    22    20    21    1
    23    21    22    2
    24     3    22    1
    25    20    23    1
    26    20    24    1
    27     1    25    1
    28     5    26    1
    29     6    27    1
    30    10    28    1
    31    11    29    1
    32    13    30    1
    33    14    31    1
    34    16    32    1
    35    17    33    1
    36    18    34    1
    37    21    35    1
    38    22    36    1
    39    23    37    1
    40    23    38    1
    41    23    39    1
    42    24    40    1
    43    24    41    1
    44    24    42    1
