@<TRIPOS>MOLECULE
NuBBE_2129
 30 30 0 0 0
SMALL
GASTEIGER

@<TRIPOS>ATOM
      1 C          -2.6867   -3.2270    0.5436 C.3     1  LIG1       -0.0653
      2 C          -1.4603   -2.4454    0.9879 C.3     1  LIG1       -0.0559
      3 C          -0.9131   -1.5738   -0.1440 C.3     1  LIG1       -0.0531
      4 C           0.3195   -0.7821    0.3061 C.3     1  LIG1       -0.0502
      5 C           0.9407    0.0881   -0.8105 C.3     1  LIG1       -0.0410
      6 C          -0.0101    1.1615   -1.3687 C.3     1  LIG1       -0.0502
      7 C          -0.2787    2.2892   -0.3743 C.3     1  LIG1       -0.0528
      8 C           1.0212    2.9326    0.0993 C.3     1  LIG1       -0.0530
      9 C           1.9954    1.9009    0.6605 C.3     1  LIG1       -0.0528
     10 C           2.2412    0.7577   -0.3250 C.3     1  LIG1       -0.0502
     11 H          -3.1048   -3.7886    1.3848 H       1  LIG1        0.0230
     12 H          -2.4303   -3.9404   -0.2468 H       1  LIG1        0.0230
     13 H          -3.4645   -2.5578    0.1623 H       1  LIG1        0.0230
     14 H          -0.6897   -3.1459    1.3306 H       1  LIG1        0.0263
     15 H          -1.7292   -1.8141    1.8426 H       1  LIG1        0.0263
     16 H          -1.7053   -0.8890   -0.4652 H       1  LIG1        0.0265
     17 H          -0.6548   -2.2021   -1.0043 H       1  LIG1        0.0265
     18 H           1.0800   -1.4950    0.6529 H       1  LIG1        0.0268
     19 H           0.0543   -0.1683    1.1731 H       1  LIG1        0.0268
     20 H           1.2055   -0.5853   -1.6371 H       1  LIG1        0.0301
     21 H          -0.9575    0.7229   -1.6960 H       1  LIG1        0.0268
     22 H           0.4435    1.5935   -2.2705 H       1  LIG1        0.0268
     23 H          -0.8391    1.9071    0.4860 H       1  LIG1        0.0265
     24 H          -0.9096    3.0505   -0.8479 H       1  LIG1        0.0265
     25 H           0.8027    3.6887    0.8625 H       1  LIG1        0.0265
     26 H           1.4929    3.4566   -0.7407 H       1  LIG1        0.0265
     27 H           1.6065    1.5046    1.6048 H       1  LIG1        0.0265
     28 H           2.9477    2.3906    0.8962 H       1  LIG1        0.0265
     29 H           2.9046    0.0142    0.1332 H       1  LIG1        0.0268
     30 H           2.7780    1.1560   -1.1956 H       1  LIG1        0.0268
@<TRIPOS>BOND
     1     1     2    1
     2     2     3    1
     3     3     4    1
     4     4     5    1
     5     5     6    1
     6     6     7    1
     7     7     8    1
     8     8     9    1
     9     9    10    1
    10     5    10    1
    11     1    11    1
    12     1    12    1
    13     1    13    1
    14     2    14    1
    15     2    15    1
    16     3    16    1
    17     3    17    1
    18     4    18    1
    19     4    19    1
    20     5    20    1
    21     6    21    1
    22     6    22    1
    23     7    23    1
    24     7    24    1
    25     8    25    1
    26     8    26    1
    27     9    27    1
    28     9    28    1
    29    10    29    1
    30    10    30    1
