@<TRIPOS>MOLECULE
NuBBE_2505
 51 54 0 0 0
SMALL
GASTEIGER

@<TRIPOS>ATOM
      1 C          -0.4522    0.9622   -5.0659 C.3     1  LIG1       -0.0585
      2 C          -1.6032    1.3981   -4.1560 C.3     1  LIG1       -0.0179
      3 C          -1.8694    2.9005   -4.2976 C.3     1  LIG1       -0.0585
      4 C          -1.3374    0.9960   -2.7139 C.ar    1  LIG1        0.0007
      5 C          -0.3232    1.6144   -1.9663 C.ar    1  LIG1       -0.0476
      6 C          -0.0833    1.2136   -0.6507 C.ar    1  LIG1        0.0035
      7 C          -0.8550    0.2087   -0.0205 C.ar    1  LIG1        0.0216
      8 C          -1.8508   -0.4028   -0.7612 C.ar    1  LIG1        0.1632
      9 O          -2.6493   -1.3726   -0.2338 O.3     1  LIG1       -0.5031
     10 C          -2.0683   -0.0298   -2.0968 C.ar    1  LIG1        0.1620
     11 O          -3.0027   -0.7275   -2.8189 O.3     1  LIG1       -0.5031
     12 C          -0.3996   -0.0283    1.4358 C.3     1  LIG1        0.1022
     13 C          -1.2353   -1.0034    2.2899 C.3     1  LIG1       -0.0326
     14 C          -0.7203   -2.4307    2.1915 C.3     1  LIG1       -0.0512
     15 C           0.7025   -2.5694    2.7430 C.3     1  LIG1       -0.0475
     16 C           1.6373   -1.3349    2.5132 C.3     1  LIG1       -0.0283
     17 C           3.0504   -1.8884    2.2175 C.3     1  LIG1       -0.0594
     18 C           1.7227   -0.5289    3.8267 C.3     1  LIG1       -0.0594
     19 C           1.1012   -0.5113    1.2995 C.3     1  LIG1        0.0139
     20 C           1.9507    0.6560    0.6952 C.3     1  LIG1        0.1009
     21 H           2.5041    0.2795   -0.1754 H       1  LIG1        0.0637
     22 O           2.8977    1.1963    1.6057 O.3     1  LIG1       -0.3874
     23 C           0.9934    1.7893    0.2380 C.3     1  LIG1        0.1545
     24 H           1.5381    2.6149   -0.2304 H       1  LIG1        0.0812
     25 O           0.3218    2.3089    1.4057 O.3     1  LIG1       -0.4533
     26 C          -0.3934    1.3760    2.1083 C.2     1  LIG1        0.3189
     27 O          -0.9955    1.6725    3.1327 O.2     1  LIG1       -0.2498
     28 H          -0.6784    1.1941   -6.1122 H       1  LIG1        0.0235
     29 H          -0.2818   -0.1177   -4.9914 H       1  LIG1        0.0235
     30 H           0.4857    1.4661   -4.8075 H       1  LIG1        0.0235
     31 H          -2.5087    0.8929   -4.5133 H       1  LIG1        0.0345
     32 H          -0.9869    3.5019   -4.0549 H       1  LIG1        0.0235
     33 H          -2.6840    3.2174   -3.6368 H       1  LIG1        0.0235
     34 H          -2.1590    3.1424   -5.3261 H       1  LIG1        0.0235
     35 H           0.2854    2.4002   -2.4079 H       1  LIG1        0.0626
     36 H          -3.5641   -1.0978   -0.4382 H       1  LIG1        0.2923
     37 H          -3.0032   -1.6316   -2.4527 H       1  LIG1        0.2923
     38 H          -2.2990   -0.9529    2.0395 H       1  LIG1        0.0279
     39 H          -1.2049   -0.7272    3.3508 H       1  LIG1        0.0279
     40 H          -0.7395   -2.7647    1.1473 H       1  LIG1        0.0266
     41 H          -1.3859   -3.1066    2.7410 H       1  LIG1        0.0266
     42 H           1.1357   -3.4692    2.2862 H       1  LIG1        0.0271
     43 H           0.6429   -2.7937    3.8162 H       1  LIG1        0.0271
     44 H           3.0761   -2.4139    1.2562 H       1  LIG1        0.0235
     45 H           3.3607   -2.6010    2.9913 H       1  LIG1        0.0235
     46 H           3.8100   -1.1040    2.1897 H       1  LIG1        0.0235
     47 H           2.3840    0.3365    3.7475 H       1  LIG1        0.0235
     48 H           2.1240   -1.1522    4.6355 H       1  LIG1        0.0235
     49 H           0.7490   -0.1698    4.1646 H       1  LIG1        0.0235
     50 H           1.0850   -1.2538    0.4805 H       1  LIG1        0.0346
     51 H           3.7762    0.8459    1.3795 H       1  LIG1        0.2100
@<TRIPOS>BOND
     1     1     2    1
     2     2     3    1
     3     4     5   ar
     4     5     6   ar
     5     6     7   ar
     6     7     8   ar
     7     8    10   ar
     8     4    10   ar
     9     7    12    1
    10    12    13    1
    11    13    14    1
    12    14    15    1
    13    15    16    1
    14    16    19    1
    15    12    19    1
    16    19    20    1
    17    20    23    1
    18     6    23    1
    19    23    25    1
    20    25    26    1
    21    12    26    1
    22     2     4    1
    23     8     9    1
    24    10    11    1
    25    16    17    1
    26    16    18    1
    27    23    24    1
    28    26    27    2
    29    20    22    1
    30    20    21    1
    31     1    28    1
    32     1    29    1
    33     1    30    1
    34     2    31    1
    35     3    32    1
    36     3    33    1
    37     3    34    1
    38     5    35    1
    39     9    36    1
    40    11    37    1
    41    13    38    1
    42    13    39    1
    43    14    40    1
    44    14    41    1
    45    15    42    1
    46    15    43    1
    47    17    44    1
    48    17    45    1
    49    17    46    1
    50    18    47    1
    51    18    48    1
    52    18    49    1
    53    19    50    1
    54    22    51    1
