@<TRIPOS>MOLECULE
NuBBE_1054
 66 70 0 0 0
SMALL
GASTEIGER

@<TRIPOS>ATOM
      1 O          -2.0640   -4.2268    3.9580 O.2     1  LIG1       -0.2505
      2 C          -1.9318   -3.1871    3.3147 C.2     1  LIG1        0.3118
      3 C          -1.5205   -3.2323    1.8428 C.3     1  LIG1        0.0670
      4 C          -1.4554   -1.9112    1.0904 C.2     1  LIG1       -0.0497
      5 C          -0.6074   -1.6725    0.0554 C.2     1  LIG1       -0.0640
      6 C           0.3426   -2.7501   -0.4503 C.3     1  LIG1       -0.0148
      7 C           1.4080   -2.2504   -1.4121 C.3     1  LIG1        0.0805
      8 H           1.9404   -3.0871   -1.8790 H       1  LIG1        0.0458
      9 C           0.6885   -1.4942   -2.4608 C.2     1  LIG1        0.1505
     10 O           0.6042   -1.9206   -3.6094 O.2     1  LIG1       -0.2960
     11 C          -0.5095   -0.2748   -0.5712 C.3     1  LIG1       -0.0072
     12 C           0.1488   -0.1473   -2.0011 C.3     1  LIG1        0.0375
     13 C           1.4607    0.7410   -1.9571 C.3     1  LIG1       -0.0065
     14 H           1.8200    0.7690   -2.9977 H       1  LIG1        0.0325
     15 C           2.6548    0.0635   -1.1083 C.3     1  LIG1        0.0283
     16 C           3.9251    0.0291   -1.9889 C.3     1  LIG1       -0.0528
     17 C           2.4267   -1.4126   -0.6909 C.2     1  LIG1        0.1497
     18 O           3.1041   -1.9406    0.1974 O.2     1  LIG1       -0.2961
     19 C           3.0117    0.8276    0.1916 C.3     1  LIG1       -0.0528
     20 C           1.2094    2.2307   -1.5652 C.3     1  LIG1        0.0495
     21 C           0.5379    3.0903   -2.6173 C.2     1  LIG1        0.3071
     22 O          -0.1546    4.1067   -2.0240 O.3     1  LIG1       -0.4679
     23 C          -0.5351    5.1406   -2.9342 C.3     1  LIG1        0.0817
     24 O           0.7050    2.9525   -3.8157 O.2     1  LIG1       -0.2509
     25 C          -0.8452    0.2922   -3.0980 C.3     1  LIG1       -0.0520
     26 H           0.1624    0.2531    0.1163 H       1  LIG1        0.0355
     27 C          -1.8623    0.4504   -0.4415 C.3     1  LIG1       -0.0447
     28 C          -2.2601    0.5471    1.0245 C.3     1  LIG1       -0.0396
     29 C          -2.3584   -0.8412    1.7041 C.3     1  LIG1        0.0310
     30 C          -3.8396   -1.2934    1.5667 C.3     1  LIG1       -0.0521
     31 O          -2.1920   -1.9929    3.8926 O.3     1  LIG1       -0.4554
     32 C          -1.9507   -0.7444    3.2079 C.3     1  LIG1        0.1399
     33 H          -2.6361   -0.0286    3.6841 H       1  LIG1        0.0795
     34 C          -0.5413   -0.2559    3.4920 C.ar    1  LIG1        0.0312
     35 C           0.6561   -0.9132    3.2664 C.ar    1  LIG1        0.0984
     36 O           1.7138   -0.1635    3.6594 O.2     1  LIG1       -0.4706
     37 C           1.2141    0.9848    4.1719 C.ar    1  LIG1        0.0921
     38 C          -0.1591    0.9856    4.0913 C.ar    1  LIG1       -0.0172
     39 H          -2.2436   -3.8779    1.3310 H       1  LIG1        0.0423
     40 H          -0.5479   -3.7321    1.8416 H       1  LIG1        0.0423
     41 H          -0.2589   -3.5169   -0.9565 H       1  LIG1        0.0321
     42 H           0.8480   -3.2336    0.3927 H       1  LIG1        0.0321
     43 H           4.7942   -0.3272   -1.4223 H       1  LIG1        0.0239
     44 H           4.1685    1.0220   -2.3818 H       1  LIG1        0.0239
     45 H           3.7982   -0.6540   -2.8371 H       1  LIG1        0.0239
     46 H           3.7603    0.2887    0.7876 H       1  LIG1        0.0239
     47 H           2.1389    0.9549    0.8381 H       1  LIG1        0.0239
     48 H           3.4496    1.8097   -0.0078 H       1  LIG1        0.0239
     49 H           0.6490    2.2987   -0.6277 H       1  LIG1        0.0381
     50 H           2.1732    2.7332   -1.4181 H       1  LIG1        0.0381
     51 H          -1.1067    5.8966   -2.3816 H       1  LIG1        0.0661
     52 H          -1.1652    4.7556   -3.7428 H       1  LIG1        0.0661
     53 H           0.3557    5.6220   -3.3389 H       1  LIG1        0.0661
     54 H          -1.6174   -0.4741   -3.2473 H       1  LIG1        0.0239
     55 H          -0.3421    0.4210   -4.0636 H       1  LIG1        0.0239
     56 H          -1.3540    1.2319   -2.8792 H       1  LIG1        0.0239
     57 H          -2.6417   -0.0706   -1.0118 H       1  LIG1        0.0272
     58 H          -1.7960    1.4735   -0.8261 H       1  LIG1        0.0272
     59 H          -3.2153    1.0838    1.0990 H       1  LIG1        0.0275
     60 H          -1.5330    1.1939    1.5264 H       1  LIG1        0.0275
     61 H          -4.1371   -1.3553    0.5132 H       1  LIG1        0.0239
     62 H          -4.5115   -0.5821    2.0614 H       1  LIG1        0.0239
     63 H          -4.0424   -2.2730    2.0103 H       1  LIG1        0.0239
     64 H           0.9206   -1.8755    2.8503 H       1  LIG1        0.1033
     65 H           1.9494    1.6810    4.5514 H       1  LIG1        0.1029
     66 H          -0.8041    1.7824    4.4348 H       1  LIG1        0.0653
@<TRIPOS>BOND
     1     1     2    2
     2     2     3    1
     3     3     4    1
     4     4     5    2
     5     5     6    1
     6     6     7    1
     7     7     8    1
     8     7     9    1
     9     9    10    2
    10     5    11    1
    11    11    12    1
    12     9    12    1
    13    12    13    1
    14    13    15    1
    15    15    16    1
    16    15    17    1
    17     7    17    1
    18    17    18    2
    19    15    19    1
    20    20    21    1
    21    21    22    1
    22    22    23    1
    23    21    24    2
    24    12    25    1
    25    11    26    1
    26    11    27    1
    27    27    28    1
    28    28    29    1
    29     4    29    1
    30    29    30    1
    31     2    31    1
    32    31    32    1
    33    29    32    1
    34    34    35   ar
    35    35    36   ar
    36    36    37   ar
    37    37    38   ar
    38    34    38   ar
    39    13    20    1
    40    13    14    1
    41    32    34    1
    42    32    33    1
    43     3    39    1
    44     3    40    1
    45     6    41    1
    46     6    42    1
    47    16    43    1
    48    16    44    1
    49    16    45    1
    50    19    46    1
    51    19    47    1
    52    19    48    1
    53    20    49    1
    54    20    50    1
    55    23    51    1
    56    23    52    1
    57    23    53    1
    58    25    54    1
    59    25    55    1
    60    25    56    1
    61    27    57    1
    62    27    58    1
    63    28    59    1
    64    28    60    1
    65    30    61    1
    66    30    62    1
    67    30    63    1
    68    35    64    1
    69    37    65    1
    70    38    66    1
