@<TRIPOS>MOLECULE
NuBBE_2162
 56 57 0 0 0
SMALL
GASTEIGER

@<TRIPOS>ATOM
      1 O           0.7438   -3.0125   -1.6850 O.2     1  LIG1       -0.2918
      2 C          -0.4677   -2.8719   -1.2758 C.2     1  LIG1        0.1702
      3 C          -0.7654   -2.9467    0.2095 C.ar    1  LIG1        0.1000
      4 C          -2.0358   -2.6238    0.7336 C.ar    1  LIG1        0.1308
      5 O          -3.0608   -2.1645   -0.0415 O.3     1  LIG1       -0.5059
      6 C          -2.2971   -2.6954    2.1063 C.ar    1  LIG1       -0.0192
      7 C          -1.2698   -2.9028    3.0150 C.ar    1  LIG1       -0.0548
      8 C           0.0227   -3.0718    2.5514 C.ar    1  LIG1       -0.0192
      9 C           0.2560   -3.1918    1.1728 C.ar    1  LIG1        0.1308
     10 O           1.5649   -3.4196    0.8182 O.3     1  LIG1       -0.5059
     11 C          -1.5331   -2.6819   -2.3400 C.3     1  LIG1        0.0107
     12 C          -1.3787   -1.5604   -3.3814 C.3     1  LIG1       -0.0460
     13 C          -1.3957   -0.1365   -2.8567 C.3     1  LIG1       -0.0527
     14 C          -0.2197    0.1717   -1.9729 C.3     1  LIG1       -0.0530
     15 C           1.2064   -0.0713   -2.4671 C.3     1  LIG1       -0.0531
     16 C           2.3770    0.1350   -1.4764 C.3     1  LIG1       -0.0531
     17 C           2.3532   -0.6604   -0.1781 C.3     1  LIG1       -0.0530
     18 C           1.1965   -0.4628    0.7941 C.3     1  LIG1       -0.0528
     19 C           0.8234    0.8677    1.3783 C.3     1  LIG1       -0.0491
     20 C           0.5616    1.9329    0.3548 C.3     1  LIG1       -0.0277
     21 C           0.3835    3.2671    0.9371 C.ar    1  LIG1       -0.0474
     22 C           1.5040    4.0400    1.2245 C.ar    1  LIG1       -0.0586
     23 C           1.3138    5.2205    1.9044 C.ar    1  LIG1       -0.0615
     24 C           0.0166    5.6064    2.2595 C.ar    1  LIG1       -0.0617
     25 C          -1.1008    4.8610    1.8769 C.ar    1  LIG1       -0.0615
     26 C          -0.9178    3.6869    1.1921 C.ar    1  LIG1       -0.0586
     27 H          -3.8392   -1.9429    0.4958 H       1  LIG1        0.2922
     28 H          -3.3087   -2.5682    2.4789 H       1  LIG1        0.0654
     29 H          -1.4730   -2.9218    4.0802 H       1  LIG1        0.0620
     30 H           0.8442   -3.0788    3.2658 H       1  LIG1        0.0654
     31 H           2.1668   -3.1142    1.5217 H       1  LIG1        0.2922
     32 H          -2.5336   -2.5982   -1.9385 H       1  LIG1        0.0345
     33 H          -1.5527   -3.6372   -2.8835 H       1  LIG1        0.0345
     34 H          -2.2230   -1.6332   -4.0759 H       1  LIG1        0.0269
     35 H          -0.4709   -1.7103   -3.9681 H       1  LIG1        0.0269
     36 H          -2.3136    0.0474   -2.2738 H       1  LIG1        0.0265
     37 H          -1.3980    0.5963   -3.6696 H       1  LIG1        0.0265
     38 H          -0.4725   -0.3672   -1.0776 H       1  LIG1        0.0265
     39 H          -0.3089    1.2352   -1.8077 H       1  LIG1        0.0265
     40 H           1.3597    0.6326   -3.2909 H       1  LIG1        0.0265
     41 H           1.3135   -1.0662   -2.8997 H       1  LIG1        0.0265
     42 H           2.5549    1.1833   -1.2629 H       1  LIG1        0.0265
     43 H           3.3029   -0.1316   -2.0021 H       1  LIG1        0.0265
     44 H           3.2714   -0.4936    0.3940 H       1  LIG1        0.0265
     45 H           2.4176   -1.7090   -0.4877 H       1  LIG1        0.0265
     46 H           1.3945   -1.0721    1.6719 H       1  LIG1        0.0265
     47 H           0.2920   -0.8550    0.3732 H       1  LIG1        0.0265
     48 H           1.5819    1.1399    2.1110 H       1  LIG1        0.0268
     49 H          -0.1173    0.7121    1.9335 H       1  LIG1        0.0268
     50 H          -0.3822    1.7085   -0.1237 H       1  LIG1        0.0313
     51 H           1.3375    2.0601   -0.3782 H       1  LIG1        0.0313
     52 H           2.4984    3.7020    0.9350 H       1  LIG1        0.0620
     53 H           2.1753    5.8190    2.1764 H       1  LIG1        0.0618
     54 H          -0.1272    6.5027    2.8476 H       1  LIG1        0.0618
     55 H          -2.1085    5.1683    2.1268 H       1  LIG1        0.0618
     56 H          -1.7619    3.0768    0.8744 H       1  LIG1        0.0620
@<TRIPOS>BOND
     1     1     2    2
     2     2     3    1
     3     3     4   ar
     4     4     5    1
     5     4     6   ar
     6     6     7   ar
     7     7     8   ar
     8     8     9   ar
     9     3     9   ar
    10     9    10    1
    11     2    11    1
    12    11    12    1
    13    12    13    1
    14    13    14    1
    15    14    15    1
    16    15    16    1
    17    16    17    1
    18    17    18    1
    19    18    19    1
    20    19    20    1
    21    20    21    1
    22    21    22   ar
    23    22    23   ar
    24    23    24   ar
    25    24    25   ar
    26    25    26   ar
    27    21    26   ar
    28     5    27    1
    29     6    28    1
    30     7    29    1
    31     8    30    1
    32    10    31    1
    33    11    32    1
    34    11    33    1
    35    12    34    1
    36    12    35    1
    37    13    36    1
    38    13    37    1
    39    14    38    1
    40    14    39    1
    41    15    40    1
    42    15    41    1
    43    16    42    1
    44    16    43    1
    45    17    44    1
    46    17    45    1
    47    18    46    1
    48    18    47    1
    49    19    48    1
    50    19    49    1
    51    20    50    1
    52    20    51    1
    53    22    52    1
    54    23    53    1
    55    24    54    1
    56    25    55    1
    57    26    56    1
