@<TRIPOS>MOLECULE
NuBBE_227
 82 84 0 0 0
SMALL
GASTEIGER

@<TRIPOS>ATOM
      1 C          -2.5927    0.9507    3.2918 C.3     1  LIG1       -0.0585
      2 C          -2.0928    0.7522    1.8575 C.3     1  LIG1       -0.0007
      3 H          -2.7547    1.3975    1.2636 H       1  LIG1        0.0339
      4 C          -2.4332   -0.6997    1.4060 C.3     1  LIG1        0.1071
      5 H          -2.8375   -1.2301    2.2743 H       1  LIG1        0.0737
      6 O          -3.5790   -0.6940    0.4941 O.3     1  LIG1       -0.4610
      7 C          -3.2713   -0.0923   -0.7055 C.2     1  LIG1        0.3073
      8 C          -4.3832    0.4404   -1.5235 C.3     1  LIG1        0.0447
      9 C          -4.2579    1.9775   -1.6969 C.3     1  LIG1       -0.0458
     10 C          -3.2123    2.5616   -2.6458 C.3     1  LIG1       -0.0648
     11 O          -2.2030    0.0629   -1.0725 O.2     1  LIG1       -0.2508
     12 C          -1.2476   -1.5646    0.9727 C.3     1  LIG1        0.0002
     13 C          -0.1709   -0.9103    0.0162 C.3     1  LIG1        0.0668
     14 C          -0.3490   -1.3895   -1.4459 C.2     1  LIG1        0.0090
     15 C          -0.0935   -2.8599   -1.5014 C.3     1  LIG1        0.2314
     16 H          -0.9494   -3.4473   -1.1409 H       1  LIG1        0.1111
     17 O           0.2721   -3.2448   -2.8293 O.3     1  LIG1       -0.4311
     18 C          -0.8029   -3.3853   -3.6621 C.2     1  LIG1        0.3063
     19 C          -0.4929   -2.8311   -5.0336 C.3     1  LIG1        0.0333
     20 O          -1.9272   -3.7291   -3.3197 O.2     1  LIG1       -0.2511
     21 O           0.9926   -3.0052   -0.5672 O.3     1  LIG1       -0.2972
     22 C           1.1662   -1.7327    0.1256 C.3     1  LIG1        0.2182
     23 H           1.3463   -2.0450    1.1441 H       1  LIG1        0.1067
     24 O           2.4148   -1.0643   -0.1789 O.3     1  LIG1       -0.4340
     25 C           2.4234    0.0023   -0.9766 C.2     1  LIG1        0.3093
     26 C           3.5198    0.9144   -1.0648 C.3     1  LIG1        0.0448
     27 C           4.5815   -0.0500   -1.4332 C.3     1  LIG1       -0.0458
     28 C           5.8370    0.6933   -1.6994 C.3     1  LIG1       -0.0648
     29 O           1.5283    0.3610   -1.7031 O.2     1  LIG1       -0.2508
     30 C          -0.4373   -0.5829   -2.5200 C.2     1  LIG1       -0.0501
     31 C          -0.5264    0.9209   -2.4890 C.3     1  LIG1        0.0741
     32 H          -1.4604    1.0627   -3.0132 H       1  LIG1        0.0638
     33 O           0.3740    1.5418   -3.4281 O.3     1  LIG1       -0.3877
     34 C          -0.4413    1.6016   -1.0336 C.3     1  LIG1       -0.0189
     35 C          -0.0575    0.6996    0.2508 C.3     1  LIG1       -0.0170
     36 H           0.9870    0.9435    0.4350 H       1  LIG1        0.0318
     37 C          -0.6367    1.2870    1.6091 C.3     1  LIG1       -0.0188
     38 C          -0.7430    2.8605    1.4755 C.3     1  LIG1       -0.0586
     39 C           0.4426    1.0892    2.7857 C.3     1  LIG1       -0.0282
     40 C           0.9318   -0.2926    3.0839 C.2     1  LIG1       -0.0806
     41 C           1.8309   -0.8363    3.9131 C.2     1  LIG1       -0.0549
     42 C           2.5246   -0.0364    4.8752 C.2     1  LIG1       -0.0662
     43 C           2.4677   -0.3006    6.1834 C.2     1  LIG1       -0.0985
     44 C           2.1476   -2.3226    3.8547 C.3     1  LIG1       -0.0400
     45 H          -2.0249    0.3373    3.9965 H       1  LIG1        0.0234
     46 H          -3.6451    0.6499    3.3667 H       1  LIG1        0.0234
     47 H          -2.5364    1.9989    3.5965 H       1  LIG1        0.0234
     48 H          -5.3027    0.1869   -1.0071 H       1  LIG1        0.0377
     49 H          -4.3170   -0.0646   -2.4964 H       1  LIG1        0.0377
     50 H          -4.1017    2.4451   -0.7172 H       1  LIG1        0.0268
     51 H          -5.2078    2.3129   -2.1023 H       1  LIG1        0.0268
     52 H          -2.2312    2.4790   -2.2389 H       1  LIG1        0.0230
     53 H          -3.2610    3.6497   -2.7280 H       1  LIG1        0.0230
     54 H          -3.2079    2.1037   -3.6386 H       1  LIG1        0.0230
     55 H          -1.5937   -2.5334    0.6131 H       1  LIG1        0.0311
     56 H          -0.8135   -1.8866    1.9186 H       1  LIG1        0.0311
     57 H          -1.0190   -3.3935   -5.8018 H       1  LIG1        0.0342
     58 H           0.5819   -2.8362   -5.2299 H       1  LIG1        0.0342
     59 H          -0.8509   -1.7994   -5.1098 H       1  LIG1        0.0342
     60 H           3.5998    1.5260   -0.1683 H       1  LIG1        0.0377
     61 H           3.2828    1.6005   -1.9068 H       1  LIG1        0.0377
     62 H           4.2609   -0.6327   -2.3137 H       1  LIG1        0.0268
     63 H           4.7002   -0.7545   -0.6054 H       1  LIG1        0.0268
     64 H           5.7485    1.2405   -2.6410 H       1  LIG1        0.0230
     65 H           6.6370   -0.0388   -1.7565 H       1  LIG1        0.0230
     66 H           6.0355    1.4024   -0.8914 H       1  LIG1        0.0230
     67 H          -0.4247   -0.9547   -3.5148 H       1  LIG1        0.0599
     68 H           0.8507    0.8089   -3.8518 H       1  LIG1        0.2102
     69 H          -1.4047    2.0316   -0.7631 H       1  LIG1        0.0296
     70 H           0.2191    2.4778   -1.0963 H       1  LIG1        0.0296
     71 H          -1.6017    3.1731    0.8675 H       1  LIG1        0.0235
     72 H           0.1518    3.2859    1.0024 H       1  LIG1        0.0235
     73 H          -0.8662    3.3558    2.4417 H       1  LIG1        0.0235
     74 H           1.3380    1.6608    2.4943 H       1  LIG1        0.0313
     75 H           0.0636    1.5431    3.7044 H       1  LIG1        0.0313
     76 H           0.4903   -1.0344    2.4956 H       1  LIG1        0.0575
     77 H           3.0478    0.8368    4.4982 H       1  LIG1        0.0614
     78 H           1.9052   -1.1449    6.5732 H       1  LIG1        0.0535
     79 H           2.9601    0.3528    6.8907 H       1  LIG1        0.0535
     80 H           1.6381   -2.8417    3.0331 H       1  LIG1        0.0277
     81 H           1.8444   -2.8392    4.7688 H       1  LIG1        0.0277
     82 H           3.2197   -2.4784    3.6896 H       1  LIG1        0.0277
@<TRIPOS>BOND
     1     2     4    1
     2     6     7    1
     3     7     8    1
     4     8     9    1
     5     9    10    1
     6     7    11    2
     7     4    12    1
     8    12    13    1
     9    13    14    1
    10    14    15    1
    11    17    18    1
    12    18    19    1
    13    18    20    2
    14    15    21    1
    15    21    22    1
    16    13    22    1
    17    24    25    1
    18    25    26    1
    19    26    27    1
    20    27    28    1
    21    25    29    2
    22    14    30    2
    23    30    31    1
    24    31    34    1
    25    34    35    1
    26    13    35    1
    27    35    37    1
    28     2    37    1
    29    39    40    1
    30    40    41    2
    31    41    42    1
    32    42    43    2
    33    41    44    1
    34    15    16    1
    35    15    17    1
    36    22    23    1
    37    22    24    1
    38    35    36    1
    39    37    38    1
    40    37    39    1
    41     4     6    1
    42     4     5    1
    43     2     3    1
    44     2     1    1
    45    31    33    1
    46    31    32    1
    47     1    45    1
    48     1    46    1
    49     1    47    1
    50     8    48    1
    51     8    49    1
    52     9    50    1
    53     9    51    1
    54    10    52    1
    55    10    53    1
    56    10    54    1
    57    12    55    1
    58    12    56    1
    59    19    57    1
    60    19    58    1
    61    19    59    1
    62    26    60    1
    63    26    61    1
    64    27    62    1
    65    27    63    1
    66    28    64    1
    67    28    65    1
    68    28    66    1
    69    30    67    1
    70    33    68    1
    71    34    69    1
    72    34    70    1
    73    38    71    1
    74    38    72    1
    75    38    73    1
    76    39    74    1
    77    39    75    1
    78    40    76    1
    79    42    77    1
    80    43    78    1
    81    43    79    1
    82    44    80    1
    83    44    81    1
    84    44    82    1
