@<TRIPOS>MOLECULE
NuBBE_2498
 48 50 0 0 0
SMALL
GASTEIGER

@<TRIPOS>ATOM
      1 C           2.2356    3.8007   -1.1593 C.3     1  LIG1       -0.0612
      2 C           0.7261    3.6060   -1.0944 C.3     1  LIG1       -0.0300
      3 C           0.3060    2.7124    0.0633 C.ar    1  LIG1       -0.0413
      4 C           0.0341    3.2909    1.3261 C.ar    1  LIG1       -0.0470
      5 C           0.1084    4.7751    1.5720 C.3     1  LIG1       -0.0394
      6 C          -0.3473    2.4672    2.3873 C.ar    1  LIG1       -0.0583
      7 C          -0.4617    1.0909    2.2172 C.ar    1  LIG1       -0.0575
      8 C          -0.2104    0.4780    0.9769 C.ar    1  LIG1       -0.0374
      9 C           0.2027    1.2957   -0.1053 C.ar    1  LIG1       -0.0402
     10 C           0.4666    0.6892   -1.4692 C.3     1  LIG1       -0.0268
     11 C           0.6095   -0.8270   -1.4981 C.3     1  LIG1       -0.0446
     12 C          -0.4905   -1.4744   -0.6536 C.3     1  LIG1       -0.0225
     13 H          -1.4342   -1.0068   -0.9851 H       1  LIG1        0.0318
     14 C          -0.6746   -3.0138   -0.9168 C.3     1  LIG1       -0.0132
     15 C          -1.4658   -3.2001   -2.2365 C.3     1  LIG1       -0.0561
     16 C           0.6490   -3.7880   -1.0770 C.3     1  LIG1       -0.0561
     17 C          -1.5019   -3.6619    0.1790 C.2     1  LIG1       -0.0820
     18 C          -1.9343   -3.0253    1.2758 C.2     1  LIG1       -0.0866
     19 C          -1.5958   -1.5974    1.5958 C.3     1  LIG1       -0.0250
     20 C          -0.3335   -1.0608    0.8512 C.3     1  LIG1        0.0002
     21 C           0.9266   -1.6501    1.5347 C.3     1  LIG1       -0.0550
     22 H           2.4953    4.4432   -2.0066 H       1  LIG1        0.0233
     23 H           2.7618    2.8493   -1.2839 H       1  LIG1        0.0233
     24 H           2.6206    4.2718   -0.2496 H       1  LIG1        0.0233
     25 H           0.3627    3.2016   -2.0454 H       1  LIG1        0.0311
     26 H           0.2352    4.5828   -1.0183 H       1  LIG1        0.0311
     27 H          -0.6828    5.2899    1.0180 H       1  LIG1        0.0278
     28 H           1.0836    5.1724    1.2778 H       1  LIG1        0.0278
     29 H          -0.0238    5.0139    2.6331 H       1  LIG1        0.0278
     30 H          -0.5601    2.8918    3.3661 H       1  LIG1        0.0620
     31 H          -0.7441    0.5014    3.0855 H       1  LIG1        0.0621
     32 H           1.3822    1.1058   -1.9010 H       1  LIG1        0.0313
     33 H          -0.3687    0.9703   -2.1238 H       1  LIG1        0.0313
     34 H           1.6038   -1.1119   -1.1378 H       1  LIG1        0.0272
     35 H           0.5556   -1.1535   -2.5424 H       1  LIG1        0.0272
     36 H          -0.9283   -2.7807   -3.0934 H       1  LIG1        0.0238
     37 H          -2.4470   -2.7126   -2.1887 H       1  LIG1        0.0238
     38 H          -1.6408   -4.2613   -2.4526 H       1  LIG1        0.0238
     39 H           1.2136   -3.4448   -1.9508 H       1  LIG1        0.0238
     40 H           0.4633   -4.8594   -1.2246 H       1  LIG1        0.0238
     41 H           1.3041   -3.6990   -0.2090 H       1  LIG1        0.0238
     42 H          -1.7837   -4.7050    0.0402 H       1  LIG1        0.0574
     43 H          -2.5605   -3.5556    1.9895 H       1  LIG1        0.0569
     44 H          -1.4518   -1.5342    2.6816 H       1  LIG1        0.0316
     45 H          -2.4733   -0.9807    1.3604 H       1  LIG1        0.0316
     46 H           1.0289   -1.2841    2.5642 H       1  LIG1        0.0238
     47 H           1.8491   -1.3727    1.0154 H       1  LIG1        0.0238
     48 H           0.8906   -2.7391    1.6122 H       1  LIG1        0.0238
@<TRIPOS>BOND
     1     1     2    1
     2     2     3    1
     3     3     4   ar
     4     4     5    1
     5     4     6   ar
     6     6     7   ar
     7     7     8   ar
     8     8     9   ar
     9     3     9   ar
    10     9    10    1
    11    10    11    1
    12    11    12    1
    13    12    13    1
    14    12    14    1
    15    14    15    1
    16    14    16    1
    17    14    17    1
    18    17    18    2
    19    18    19    1
    20    19    20    1
    21     8    20    1
    22    12    20    1
    23    20    21    1
    24     1    22    1
    25     1    23    1
    26     1    24    1
    27     2    25    1
    28     2    26    1
    29     5    27    1
    30     5    28    1
    31     5    29    1
    32     6    30    1
    33     7    31    1
    34    10    32    1
    35    10    33    1
    36    11    34    1
    37    11    35    1
    38    15    36    1
    39    15    37    1
    40    15    38    1
    41    16    39    1
    42    16    40    1
    43    16    41    1
    44    17    42    1
    45    18    43    1
    46    19    44    1
    47    19    45    1
    48    21    46    1
    49    21    47    1
    50    21    48    1
