REMARK  Name = NuBBE_1044
REMARK  15 active torsions:
REMARK  status: ('A' for Active; 'I' for Inactive)
REMARK    1  A    between atoms: C_1  and  C_2
REMARK    2  A    between atoms: C_8  and  C_31
REMARK    3  A    between atoms: C_13  and  C_14
REMARK    4  A    between atoms: C_15  and  C_19
REMARK    5  A    between atoms: C_19  and  C_21
REMARK    6  A    between atoms: C_19  and  C_30
REMARK    7  A    between atoms: C_21  and  C_22
REMARK    8  A    between atoms: C_22  and  C_23
REMARK    9  A    between atoms: C_24  and  C_25
REMARK   10  A    between atoms: C_24  and  C_29
REMARK   11  A    between atoms: C_25  and  O_27
REMARK   12  A    between atoms: O_27  and  C_28
REMARK   13  A    between atoms: N_35  and  O_36
REMARK   14  A    between atoms: C_37  and  C_38
REMARK   15  A    between atoms: C_37  and  C_39
REMARK                            x       y       z     vdW  Elec       q    Type
REMARK                         _______ _______ _______ _____ _____    ______ ____
ROOT
ATOM      1  C   LIG A   1      -2.979  -0.588  -0.041  0.00  0.00    +0.016 C 
ATOM      2  C   LIG A   1      -1.508  -0.160  -0.266  0.00  0.00    -0.005 C 
ATOM      3  C   LIG A   1      -0.864  -1.302  -1.095  0.00  0.00    -0.063 C 
ATOM      4  C   LIG A   1      -0.772  -1.313  -2.437  0.00  0.00    -0.026 C 
ATOM      5  C   LIG A   1      -0.347  -2.502  -3.232  0.00  0.00    +0.032 C 
ATOM      6  C   LIG A   1      -0.660  -3.841  -2.538  0.00  0.00    +0.011 C 
ATOM      7  C   LIG A   1      -0.076  -3.835  -1.074  0.00  0.00    -0.021 C 
ATOM      8  C   LIG A   1      -0.424  -2.503  -0.276  0.00  0.00    +0.021 C 
ATOM      9  C   LIG A   1       0.680  -1.979   0.657  0.00  0.00    +0.009 C 
ATOM     10  C   LIG A   1       0.116  -0.968   1.659  0.00  0.00    +0.008 C 
ATOM     11  C   LIG A   1      -0.708   0.217   1.070  0.00  0.00    -0.020 C 
ATOM     12  C   LIG A   1      -1.721   0.620   2.180  0.00  0.00    +0.012 C 
ATOM     13  C   LIG A   1       0.272   1.428   0.641  0.00  0.00    -0.001 C 
ATOM     14  C   LIG A   1      -0.116   1.720  -0.825  0.00  0.00    +0.005 C 
ATOM     15  C   LIG A   1      -1.529   1.201  -0.984  0.00  0.00    +0.012 C 
ATOM     16  C   LIG A   1       1.462  -4.040  -1.203  0.00  0.00    +0.012 C 
ATOM     17  C   LIG A   1      -0.636  -5.054  -0.270  0.00  0.00    +0.013 C 
ATOM     18  C   LIG A   1      -1.069  -6.215  -1.156  0.00  0.00    +0.055 C 
ATOM     19  C   LIG A   1      -2.234  -5.766  -2.023  0.00  0.00    +0.063 C 
ATOM     20  N   LIG A   1      -3.304  -6.477  -2.240  0.00  0.00    -0.096 NA
ATOM     21  C   LIG A   1      -2.141  -4.365  -2.676  0.00  0.00    +0.010 C 
ATOM     22  C   LIG A   1      -2.517  -4.509  -4.171  0.00  0.00    +0.017 C 
ATOM     23  C   LIG A   1      -3.213  -3.488  -2.020  0.00  0.00    +0.017 C 
ENDROOT
BRANCH  13  24
ATOM     24  C   LIG A   1       0.287   2.728   1.541  0.00  0.00    -0.010 C 
ATOM     25  C   LIG A   1       0.866   2.448   2.941  0.00  0.00    +0.008 C 
BRANCH  24  26
ATOM     26  C   LIG A   1       1.111   3.915   0.937  0.00  0.00    +0.007 C 
BRANCH  26  27
ATOM     27  C   LIG A   1       1.012   5.224   1.745  0.00  0.00    +0.028 C 
BRANCH  27  28
ATOM     28  C   LIG A   1       1.801   6.349   1.119  0.00  0.00    -0.017 C 
ATOM     29  C   LIG A   1       3.071   6.726   1.370  0.00  0.00    +0.030 C 
ATOM     30  C   LIG A   1       3.665   7.945   0.708  0.00  0.00    +0.051 C 
BRANCH  29  31
ATOM     31  C   LIG A   1       3.948   5.994   2.339  0.00  0.00    +0.334 C 
ATOM     32  O   LIG A   1       3.782   4.862   2.737  0.00  0.00    -0.245 OA
BRANCH  31  33
ATOM     33  O   LIG A   1       4.880   6.878   2.791  0.00  0.00    -0.465 OA
ATOM     34  C   LIG A   1       5.335   6.675   4.126  0.00  0.00    +0.280 C 
ENDBRANCH  31  33
ENDBRANCH  29  31
ENDBRANCH  27  28
ENDBRANCH  26  27
ENDBRANCH  24  26
ENDBRANCH  13  24
BRANCH  20  35
ATOM     35  O   LIG A   1      -3.263  -7.716  -1.599  0.00  0.00    -0.409 OA
ATOM     36  H   LIG A   1      -4.132  -8.096  -1.829  0.00  0.00    +0.328 HD
ENDBRANCH  20  35
TORSDOF 7
