REMARK  Name = NuBBE_2517
REMARK  6 active torsions:
REMARK  status: ('A' for Active; 'I' for Inactive)
REMARK    1  A    between atoms: C_1  and  C_2
REMARK    2  A    between atoms: C_1  and  C_4
REMARK    3  A    between atoms: C_5  and  C_7
REMARK    4  A    between atoms: C_8  and  C_20
REMARK    5  A    between atoms: C_12  and  O_13
REMARK    6  A    between atoms: C_14  and  O_19
REMARK                            x       y       z     vdW  Elec       q    Type
REMARK                         _______ _______ _______ _____ _____    ______ ____
ROOT
ATOM      1  C   LIG A   1      -1.533   0.926   1.019  0.00  0.00    +0.010 C 
ATOM      2  C   LIG A   1      -1.088  -0.386   0.284  0.00  0.00    +0.003 C 
ATOM      3  C   LIG A   1      -1.768  -1.685   0.727  0.00  0.00    +0.009 C 
ATOM      4  C   LIG A   1       0.449  -0.505   0.565  0.00  0.00    +0.031 C 
ATOM      5  C   LIG A   1       0.835   0.809   1.282  0.00  0.00    +0.062 C 
ATOM      6  C   LIG A   1      -0.440   1.085   2.099  0.00  0.00    +0.128 C 
ATOM      7  C   LIG A   1       1.156   1.976   0.345  0.00  0.00    +0.186 C 
ATOM      8  C   LIG A   1      -0.041   2.377  -0.501  0.00  0.00    +0.163 C 
ATOM      9  O   LIG A   1       0.121   3.018  -1.549  0.00  0.00    -0.295 OA
ATOM     10  C   LIG A   1      -1.430   2.140   0.048  0.00  0.00    +0.087 C 
ENDROOT
BRANCH   4  11
ATOM     11  C   LIG A   1       1.338  -0.949  -0.582  0.00  0.00    -0.040 A 
ATOM     12  C   LIG A   1       2.524  -1.651  -0.285  0.00  0.00    +0.053 A 
ATOM     13  C   LIG A   1       3.317  -2.089  -1.329  0.00  0.00    +0.167 A 
ATOM     14  C   LIG A   1       2.984  -1.851  -2.639  0.00  0.00    +0.166 A 
ATOM     15  C   LIG A   1       1.844  -1.163  -2.977  0.00  0.00    +0.050 A 
ATOM     16  C   LIG A   1       1.020  -0.708  -1.939  0.00  0.00    +0.008 A 
ATOM     17  O   LIG A   1       3.888  -2.368  -3.512  0.00  0.00    -0.453 OA
ATOM     18  C   LIG A   1       4.832  -2.965  -2.599  0.00  0.00    +0.466 C 
ATOM     19  O   LIG A   1       4.475  -2.793  -1.211  0.00  0.00    -0.453 OA
ENDBRANCH   4  11
BRANCH   6  20
ATOM     20  O   LIG A   1      -0.478   2.356   2.719  0.00  0.00    -0.391 OA
ATOM     21  H   LIG A   1       0.384   2.803   2.578  0.00  0.00    +0.210 HD
ENDBRANCH   6  20
BRANCH   7  22
ATOM     22  O   LIG A   1       1.563   3.101   1.130  0.00  0.00    -0.384 OA
ATOM     23  H   LIG A   1       1.802   3.800   0.489  0.00  0.00    +0.210 HD
ENDBRANCH   7  22
BRANCH   1  24
ATOM     24  C   LIG A   1      -2.954   0.902   1.645  0.00  0.00    +0.036 C 
BRANCH  24  25
ATOM     25  C   LIG A   1      -4.080   0.682   0.662  0.00  0.00    -0.034 C 
ATOM     26  C   LIG A   1      -5.204   0.011   0.946  0.00  0.00    +0.004 C 
ENDBRANCH  24  25
ENDBRANCH   1  24
TORSDOF 5
