REMARK  Name = NuBBE_1950
REMARK  13 active torsions:
REMARK  status: ('A' for Active; 'I' for Inactive)
REMARK    1  A    between atoms: C_1  and  C_2
REMARK    2  A    between atoms: C_12  and  C_13
REMARK    3  A    between atoms: C_12  and  C_14
REMARK    4  A    between atoms: C_21  and  C_22
REMARK    5  A    between atoms: C_23  and  C_27
REMARK    6  A    between atoms: C_27  and  C_29
REMARK    7  A    between atoms: C_27  and  C_37
REMARK    8  A    between atoms: C_29  and  C_30
REMARK    9  A    between atoms: C_30  and  C_31
REMARK   10  A    between atoms: C_31  and  C_33
REMARK   11  A    between atoms: C_33  and  C_34
REMARK   12  A    between atoms: C_33  and  C_36
REMARK   13  A    between atoms: C_34  and  O_35
REMARK                            x       y       z     vdW  Elec       q    Type
REMARK                         _______ _______ _______ _____ _____    ______ ____
ROOT
ATOM      1  C   LIG A   1      -3.453   1.506   1.810  0.00  0.00    +0.012 C 
ATOM      2  C   LIG A   1      -2.220   1.252   0.914  0.00  0.00    -0.023 C 
ATOM      3  C   LIG A   1      -2.103  -0.288   0.574  0.00  0.00    +0.002 C 
ATOM      4  C   LIG A   1      -1.608  -1.131   1.757  0.00  0.00    -0.019 C 
ATOM      5  C   LIG A   1      -1.740  -2.674   1.632  0.00  0.00    -0.019 C 
ATOM      6  C   LIG A   1      -2.556  -1.897   2.654  0.00  0.00    +0.015 C 
ATOM      7  C   LIG A   1      -2.553  -3.320   0.479  0.00  0.00    +0.009 C 
ATOM      8  C   LIG A   1      -3.078  -2.304  -0.560  0.00  0.00    +0.005 C 
ATOM      9  C   LIG A   1      -3.378  -0.906  -0.032  0.00  0.00    +0.005 C 
ATOM     10  C   LIG A   1      -1.826  -4.536  -0.213  0.00  0.00    +0.027 C 
ATOM     11  C   LIG A   1      -0.664  -4.114  -1.133  0.00  0.00    +0.019 C 
ATOM     12  C   LIG A   1      -2.841  -5.350  -1.054  0.00  0.00    +0.019 C 
ATOM     13  C   LIG A   1      -1.244  -5.520   0.816  0.00  0.00    +0.139 C 
ATOM     14  O   LIG A   1      -0.936  -6.665   0.526  0.00  0.00    -0.297 OA
ATOM     15  C   LIG A   1      -1.076  -5.020   2.227  0.00  0.00    +0.075 C 
ATOM     16  C   LIG A   1      -0.653  -3.569   2.219  0.00  0.00    +0.015 C 
ATOM     17  C   LIG A   1      -0.345  -0.583   2.388  0.00  0.00    +0.008 C 
ATOM     18  C   LIG A   1      -0.403   0.913   2.666  0.00  0.00    +0.008 C 
ATOM     19  C   LIG A   1      -0.867   1.815   1.509  0.00  0.00    -0.023 C 
ATOM     20  C   LIG A   1      -1.054   3.231   2.158  0.00  0.00    +0.012 C 
ATOM     21  C   LIG A   1       0.070   2.077   0.242  0.00  0.00    -0.002 C 
ATOM     22  C   LIG A   1      -0.946   2.262  -0.921  0.00  0.00    +0.005 C 
ATOM     23  C   LIG A   1      -2.355   2.111  -0.360  0.00  0.00    +0.008 C 
ENDROOT
BRANCH  21  24
ATOM     24  C   LIG A   1       1.242   1.141  -0.203  0.00  0.00    -0.010 C 
ATOM     25  C   LIG A   1       2.357   0.962   0.835  0.00  0.00    +0.008 C 
BRANCH  24  26
ATOM     26  C   LIG A   1       1.932   1.589  -1.549  0.00  0.00    +0.008 C 
BRANCH  26  27
ATOM     27  C   LIG A   1       2.648   2.955  -1.525  0.00  0.00    +0.031 C 
BRANCH  27  28
ATOM     28  C   LIG A   1       3.334   3.339  -2.833  0.00  0.00    -0.072 C 
ATOM     29  C   LIG A   1       2.641   4.052  -3.743  0.00  0.00    +0.008 C 
BRANCH  28  30
ATOM     30  C   LIG A   1       4.812   2.985  -3.077  0.00  0.00    +0.037 C 
ATOM     31  C   LIG A   1       5.068   1.479  -3.175  0.00  0.00    +0.014 C 
BRANCH  30  32
ATOM     32  C   LIG A   1       5.809   3.633  -2.089  0.00  0.00    +0.163 C 
BRANCH  32  33
ATOM     33  O   LIG A   1       5.627   3.192  -0.750  0.00  0.00    -0.394 OA
ATOM     34  H   LIG A   1       6.143   3.787  -0.180  0.00  0.00    +0.209 HD
ENDBRANCH  32  33
ENDBRANCH  30  32
ENDBRANCH  28  30
ENDBRANCH  27  28
ENDBRANCH  26  27
ENDBRANCH  24  26
ENDBRANCH  21  24
TORSDOF 7
