@<TRIPOS>MOLECULE
NuBBE_1419
 59 63 0 0 0
SMALL
GASTEIGER

@<TRIPOS>ATOM
      1 O           1.9641   -0.3010    4.1610 O.3     1  LIG1       -0.4914
      2 C           1.7733    1.0435    4.5798 C.3     1  LIG1        0.0790
      3 C           1.1764   -0.7604    3.1349 C.ar    1  LIG1        0.1619
      4 C           0.2056    0.0060    2.4776 C.ar    1  LIG1       -0.0107
      5 C          -0.5432   -0.5172    1.4090 C.ar    1  LIG1       -0.0149
      6 C          -0.3423   -1.8576    1.0515 C.ar    1  LIG1       -0.0524
      7 C           0.6153   -2.6358    1.7049 C.ar    1  LIG1       -0.0159
      8 C           1.4013   -2.0835    2.7209 C.ar    1  LIG1        0.1624
      9 O           2.3930   -2.7819    3.3673 O.3     1  LIG1       -0.4843
     10 C           3.0603   -3.7671    2.5756 C.3     1  LIG1        0.1082
     11 C           4.4518   -3.9484    3.1162 C.2     1  LIG1       -0.0484
     12 C           5.5577   -4.2844    2.4287 C.2     1  LIG1       -0.0765
     13 C           5.6082   -4.5526    0.9472 C.3     1  LIG1       -0.0439
     14 C           6.8798   -4.4439    3.1333 C.3     1  LIG1       -0.0439
     15 C          -1.5614    0.3273    0.6621 C.3     1  LIG1        0.0891
     16 H          -2.5520   -0.1107    0.8360 H       1  LIG1        0.0650
     17 C          -1.2414    0.4609   -0.8346 C.3     1  LIG1        0.0205
     18 H          -0.1831    0.2651   -1.0431 H       1  LIG1        0.0356
     19 C          -1.6357    1.8792   -1.1533 C.3     1  LIG1        0.0205
     20 H          -1.0681    2.2966   -1.9926 H       1  LIG1        0.0356
     21 C          -1.3457    2.6021    0.1365 C.3     1  LIG1        0.0544
     22 O          -1.6193    1.6725    1.1897 O.3     1  LIG1       -0.3712
     23 C          -3.1299    1.7630   -1.4743 C.3     1  LIG1        0.0891
     24 H          -3.7572    1.9635   -0.5968 H       1  LIG1        0.0650
     25 O          -3.3768    0.3839   -1.8267 O.3     1  LIG1       -0.3712
     26 C          -2.1514   -0.3477   -1.7252 C.3     1  LIG1        0.0544
     27 C          -3.5620    2.6787   -2.6023 C.ar    1  LIG1       -0.0149
     28 C          -3.5140    2.2499   -3.9408 C.ar    1  LIG1       -0.0105
     29 C          -3.9217    3.1222   -4.9270 C.ar    1  LIG1        0.1666
     30 C          -4.3602    4.3905   -4.6359 C.ar    1  LIG1        0.1662
     31 C          -4.4145    4.8573   -3.3411 C.ar    1  LIG1       -0.0158
     32 C          -4.0093    3.9918   -2.3169 C.ar    1  LIG1       -0.0524
     33 O          -4.7155    5.0843   -5.7501 O.3     1  LIG1       -0.4526
     34 C          -4.4603    4.1004   -6.7746 C.3     1  LIG1        0.2332
     35 O          -3.9454    2.8555   -6.2601 O.3     1  LIG1       -0.4526
     36 H           0.7795    1.1803    5.0190 H       1  LIG1        0.0660
     37 H           1.9432    1.7462    3.7571 H       1  LIG1        0.0660
     38 H           2.5140    1.2623    5.3549 H       1  LIG1        0.0660
     39 H           0.0186    1.0313    2.7803 H       1  LIG1        0.0659
     40 H          -0.9278   -2.3163    0.2587 H       1  LIG1        0.0622
     41 H           0.7309   -3.6722    1.4031 H       1  LIG1        0.0655
     42 H           3.1034   -3.4549    1.5271 H       1  LIG1        0.0742
     43 H           2.5187   -4.7145    2.6667 H       1  LIG1        0.0742
     44 H           4.5334   -3.7779    4.1915 H       1  LIG1        0.0605
     45 H           4.6377   -4.4541    0.4553 H       1  LIG1        0.0274
     46 H           5.9626   -5.5711    0.7599 H       1  LIG1        0.0274
     47 H           6.2955   -3.8526    0.4618 H       1  LIG1        0.0274
     48 H           6.8052   -4.2325    4.2052 H       1  LIG1        0.0274
     49 H           7.6240   -3.7624    2.7099 H       1  LIG1        0.0274
     50 H           7.2438   -5.4706    3.0229 H       1  LIG1        0.0274
     51 H          -1.9471    3.5038    0.2808 H       1  LIG1        0.0564
     52 H          -0.2872    2.8778    0.2039 H       1  LIG1        0.0564
     53 H          -1.7322   -0.4381   -2.7335 H       1  LIG1        0.0564
     54 H          -2.3614   -1.3529   -1.3512 H       1  LIG1        0.0564
     55 H          -3.1811    1.2518   -4.2043 H       1  LIG1        0.0659
     56 H          -4.7658    5.8603   -3.1262 H       1  LIG1        0.0655
     57 H          -4.0559    4.3429   -1.2874 H       1  LIG1        0.0622
     58 H          -3.7324    4.5123   -7.4830 H       1  LIG1        0.1166
     59 H          -5.3958    3.8989   -7.3096 H       1  LIG1        0.1166
@<TRIPOS>BOND
     1     1     2    1
     2     1     3    1
     3     3     4   ar
     4     4     5   ar
     5     5     6   ar
     6     6     7   ar
     7     7     8   ar
     8     3     8   ar
     9     8     9    1
    10     9    10    1
    11    10    11    1
    12    11    12    2
    13    12    13    1
    14    12    14    1
    15    15    17    1
    16    17    18    1
    17    17    19    1
    18    19    20    1
    19    19    21    1
    20    21    22    1
    21    15    22    1
    22    19    23    1
    23    23    24    1
    24    23    25    1
    25    25    26    1
    26    17    26    1
    27    23    27    1
    28    27    28   ar
    29    28    29   ar
    30    29    30   ar
    31    30    31   ar
    32    31    32   ar
    33    27    32   ar
    34    30    33    1
    35    33    34    1
    36    34    35    1
    37    29    35    1
    38    15    16    1
    39    15     5    1
    40     2    36    1
    41     2    37    1
    42     2    38    1
    43     4    39    1
    44     6    40    1
    45     7    41    1
    46    10    42    1
    47    10    43    1
    48    11    44    1
    49    13    45    1
    50    13    46    1
    51    13    47    1
    52    14    48    1
    53    14    49    1
    54    14    50    1
    55    21    51    1
    56    21    52    1
    57    26    53    1
    58    26    54    1
    59    28    55    1
    60    31    56    1
    61    32    57    1
    62    34    58    1
    63    34    59    1
