@<TRIPOS>MOLECULE
NuBBE_2169
 51 55 0 0 0
SMALL
GASTEIGER

@<TRIPOS>ATOM
      1 O           0.3025    0.1833   -2.5777 O.3     1  LIG1       -0.3789
      2 C          -0.0133   -0.1214   -1.2039 C.3     1  LIG1        0.1227
      3 C           0.6731    0.8915   -0.2870 C.ar    1  LIG1        0.0407
      4 C           0.6345    2.2614   -0.5542 C.ar    1  LIG1        0.1728
      5 O           0.1450    2.8323   -1.6949 O.3     1  LIG1       -0.4522
      6 C           0.2985    4.2359   -1.3977 C.3     1  LIG1        0.2332
      7 O           0.9503    4.4821   -0.1385 O.3     1  LIG1       -0.4526
      8 C           1.1014    3.2132    0.3249 C.ar    1  LIG1        0.1666
      9 C           1.6448    2.8713    1.5377 C.ar    1  LIG1       -0.0157
     10 C           1.7369    1.5124    1.8362 C.ar    1  LIG1       -0.0510
     11 C           1.2684    0.5152    0.9354 C.ar    1  LIG1        0.0030
     12 C           1.4911   -0.9294    1.3226 C.3     1  LIG1        0.1314
     13 O           2.8836   -1.1970    1.0615 O.3     1  LIG1       -0.4565
     14 C           3.6334   -1.6047    2.1139 C.2     1  LIG1        0.3045
     15 C           5.0007   -2.0043    1.6574 C.3     1  LIG1        0.0333
     16 O           3.2573   -1.6745    3.2795 O.2     1  LIG1       -0.2511
     17 C           0.6781   -1.9726    0.5344 C.3     1  LIG1        0.0034
     18 H           1.2507   -2.9122    0.5473 H       1  LIG1        0.0341
     19 C          -0.6196   -2.3220    1.2666 C.3     1  LIG1       -0.0584
     20 C           0.4725   -1.5945   -0.9576 C.3     1  LIG1       -0.0002
     21 H          -0.2796   -2.2825   -1.3706 H       1  LIG1        0.0336
     22 C           1.7526   -1.9255   -1.7599 C.3     1  LIG1       -0.0588
     23 C          -1.5577   -0.0453   -1.1104 C.ar    1  LIG1       -0.0076
     24 C          -2.2105    0.4124    0.0522 C.ar    1  LIG1       -0.0099
     25 C          -3.5887    0.4498    0.0790 C.ar    1  LIG1        0.1666
     26 C          -4.3470    0.0667   -0.9973 C.ar    1  LIG1        0.1662
     27 O          -5.6801    0.1926   -0.7614 O.3     1  LIG1       -0.4526
     28 C          -5.6686    0.7246    0.5803 C.3     1  LIG1        0.2332
     29 O          -4.3441    0.8552    1.1344 O.3     1  LIG1       -0.4526
     30 C          -3.7662   -0.3835   -2.1601 C.ar    1  LIG1       -0.0158
     31 C          -2.3662   -0.4420   -2.2111 C.ar    1  LIG1       -0.0518
     32 H           0.5640    1.1189   -2.6224 H       1  LIG1        0.2111
     33 H          -0.6946    4.6994   -1.3768 H       1  LIG1        0.1166
     34 H           0.8875    4.7028   -2.1955 H       1  LIG1        0.1166
     35 H           1.9962    3.6279    2.2299 H       1  LIG1        0.0655
     36 H           2.1817    1.2156    2.7866 H       1  LIG1        0.0623
     37 H           1.2541   -1.0347    2.3889 H       1  LIG1        0.0788
     38 H           5.1222   -1.8179    0.5861 H       1  LIG1        0.0342
     39 H           5.1367   -3.0732    1.8396 H       1  LIG1        0.0342
     40 H           5.7505   -1.4213    2.1971 H       1  LIG1        0.0342
     41 H          -1.1931   -1.4431    1.5555 H       1  LIG1        0.0234
     42 H          -0.3845   -2.8571    2.1949 H       1  LIG1        0.0234
     43 H          -1.2509   -2.9821    0.6641 H       1  LIG1        0.0234
     44 H           2.5668   -1.2278   -1.5451 H       1  LIG1        0.0234
     45 H           1.5569   -1.8964   -2.8377 H       1  LIG1        0.0234
     46 H           2.1015   -2.9404   -1.5389 H       1  LIG1        0.0234
     47 H          -1.6676    0.7312    0.9352 H       1  LIG1        0.0659
     48 H          -6.2562    0.0632    1.2272 H       1  LIG1        0.1166
     49 H          -6.1389    1.7148    0.5700 H       1  LIG1        0.1166
     50 H          -4.3718   -0.6785   -3.0095 H       1  LIG1        0.0655
     51 H          -1.8942   -0.7900   -3.1299 H       1  LIG1        0.0622
@<TRIPOS>BOND
     1     2     3    1
     2     3     4   ar
     3     4     5    1
     4     5     6    1
     5     6     7    1
     6     4     8   ar
     7     7     8    1
     8     8     9   ar
     9     9    10   ar
    10     3    11   ar
    11    10    11   ar
    12    11    12    1
    13    12    13    1
    14    13    14    1
    15    14    15    1
    16    14    16    2
    17    12    17    1
    18    17    20    1
    19     2    20    1
    20    23    24   ar
    21    24    25   ar
    22    25    26   ar
    23    26    27    1
    24    27    28    1
    25    28    29    1
    26    25    29    1
    27    26    30   ar
    28    30    31   ar
    29    23    31   ar
    30     2    23    1
    31     2     1    1
    32    17    19    1
    33    17    18    1
    34    20    22    1
    35    20    21    1
    36     1    32    1
    37     6    33    1
    38     6    34    1
    39     9    35    1
    40    10    36    1
    41    12    37    1
    42    15    38    1
    43    15    39    1
    44    15    40    1
    45    19    41    1
    46    19    42    1
    47    19    43    1
    48    22    44    1
    49    22    45    1
    50    22    46    1
    51    24    47    1
    52    28    48    1
    53    28    49    1
    54    30    50    1
    55    31    51    1
