@<TRIPOS>MOLECULE
NuBBE_640
 101 103 0 0 0
SMALL
GASTEIGER

@<TRIPOS>ATOM
      1 H          -3.3010   -2.1339    0.4199 H       1  LIG1        0.0319
      2 C          -2.3409   -1.6277    0.2259 C.3     1  LIG1       -0.0127
      3 C          -2.4463   -0.1514    0.7821 C.3     1  LIG1        0.1037
      4 C          -1.1322    0.6114    0.3613 C.3     1  LIG1        0.1554
      5 H          -1.0798    0.5655   -0.7295 H       1  LIG1        0.0783
      6 O          -1.1524    2.1079    0.4610 O.3     1  LIG1       -0.4567
      7 C          -0.3718    3.0128    1.1118 C.2     1  LIG1        0.3043
      8 C           0.1919    4.0499    0.2163 C.3     1  LIG1        0.0332
      9 O           0.0433    3.0238    2.2615 O.2     1  LIG1       -0.2512
     10 C           0.1206   -0.1496    0.8300 C.3     1  LIG1        0.1441
     11 H           0.2164    0.0980    1.8745 H       1  LIG1        0.0775
     12 O           1.3187    0.4319    0.2462 O.3     1  LIG1       -0.4542
     13 C           1.5747    0.3336   -1.0822 C.2     1  LIG1        0.3323
     14 C           2.3950    1.5091   -1.4113 C.2     1  LIG1        0.0225
     15 C           2.5485    1.9212   -2.6805 C.2     1  LIG1       -0.0553
     16 C           3.1814    3.1859   -3.0417 C.2     1  LIG1       -0.0655
     17 C           4.3289    3.5316   -2.4474 C.2     1  LIG1       -0.0840
     18 C           5.3382    4.6078   -2.6547 C.3     1  LIG1       -0.0345
     19 C           6.6587    4.3209   -3.4213 C.3     1  LIG1       -0.0496
     20 C           7.7120    3.3712   -2.7845 C.3     1  LIG1       -0.0530
     21 C           7.4459    1.8512   -2.8082 C.3     1  LIG1       -0.0559
     22 C           6.3121    1.3572   -1.9603 C.3     1  LIG1       -0.0653
     23 O           1.0936   -0.4389   -1.8916 O.2     1  LIG1       -0.2456
     24 C           0.1675   -1.7112    0.7600 C.3     1  LIG1        0.0026
     25 H           0.6185   -1.9860   -0.1956 H       1  LIG1        0.0340
     26 C           1.2298   -2.1540    1.7407 C.3     1  LIG1       -0.0584
     27 C          -1.1813   -2.5317    0.8593 C.3     1  LIG1       -0.0216
     28 C          -1.0315   -3.7820   -0.0652 C.3     1  LIG1       -0.0589
     29 C          -1.6232   -3.1429    2.2704 C.3     1  LIG1       -0.0430
     30 C          -0.8144   -4.2426    3.0834 C.3     1  LIG1       -0.0277
     31 C           0.5306   -4.0307    3.7911 C.2     1  LIG1       -0.0550
     32 C           0.7321   -3.0139    4.8118 C.2     1  LIG1       -0.0662
     33 C          -0.1700   -2.1134    5.1972 C.2     1  LIG1       -0.0985
     34 C           1.5937   -4.8102    3.5107 C.2     1  LIG1       -0.0955
     35 C          -3.6452    0.4720    0.1104 C.2     1  LIG1        0.0136
     36 C          -4.5651    1.0999    1.1137 C.3     1  LIG1        0.2315
     37 H          -4.8004    2.1494    0.8992 H       1  LIG1        0.1111
     38 O          -5.7361    0.2718    1.2063 O.3     1  LIG1       -0.4311
     39 C          -6.6496    0.3879    0.2053 C.2     1  LIG1        0.3063
     40 C          -7.3793   -0.9155    0.0505 C.3     1  LIG1        0.0333
     41 O          -6.7999    1.3494   -0.5358 O.2     1  LIG1       -0.2511
     42 O          -3.8495    1.0204    2.3591 O.3     1  LIG1       -0.2971
     43 C          -2.9104   -0.0708    2.2599 C.3     1  LIG1        0.2216
     44 H          -3.5216   -0.9426    2.5224 H       1  LIG1        0.1068
     45 O          -1.8099   -0.1051    3.2016 O.3     1  LIG1       -0.4341
     46 C          -1.2517    1.0353    3.5868 C.2     1  LIG1        0.3061
     47 C           0.0694    0.9792    4.2585 C.3     1  LIG1        0.0333
     48 O          -1.8355    2.1528    3.3230 O.2     1  LIG1       -0.2511
     49 C          -3.8767    0.3399   -1.2040 C.2     1  LIG1       -0.0380
     50 C          -3.0360   -0.5106   -2.0939 C.3     1  LIG1        0.1220
     51 H          -2.3666    0.1554   -2.6485 H       1  LIG1        0.0779
     52 O          -3.9319   -1.2089   -2.9715 O.3     1  LIG1       -0.4573
     53 C          -3.7438   -0.9865   -4.2993 C.2     1  LIG1        0.3045
     54 C          -4.6820   -1.8222   -5.1080 C.3     1  LIG1        0.0333
     55 O          -2.9025   -0.2509   -4.7962 O.2     1  LIG1       -0.2511
     56 C          -2.1904   -1.5612   -1.3489 C.3     1  LIG1       -0.0075
     57 H           0.3004    4.9718    0.7995 H       1  LIG1        0.0342
     58 H          -0.4153    4.2466   -0.6626 H       1  LIG1        0.0342
     59 H           1.1884    3.6824   -0.0351 H       1  LIG1        0.0342
     60 H           2.7532    2.0791   -0.5610 H       1  LIG1        0.0689
     61 H           2.2039    1.2914   -3.5013 H       1  LIG1        0.0620
     62 H           2.7282    3.8036   -3.8118 H       1  LIG1        0.0615
     63 H           4.5645    2.9300   -1.5783 H       1  LIG1        0.0572
     64 H           5.6248    4.9139   -1.6423 H       1  LIG1        0.0307
     65 H           4.8308    5.4494   -3.1288 H       1  LIG1        0.0307
     66 H           7.1581    5.3034   -3.5045 H       1  LIG1        0.0268
     67 H           6.4596    4.0224   -4.4578 H       1  LIG1        0.0268
     68 H           7.9526    3.7183   -1.7732 H       1  LIG1        0.0265
     69 H           8.6364    3.5023   -3.3707 H       1  LIG1        0.0265
     70 H           8.3410    1.2906   -2.5325 H       1  LIG1        0.0263
     71 H           7.1697    1.5947   -3.8367 H       1  LIG1        0.0263
     72 H           6.3264    1.6538   -0.9029 H       1  LIG1        0.0230
     73 H           6.0042    0.3150   -2.0742 H       1  LIG1        0.0230
     74 H           5.5134    1.7977   -2.5016 H       1  LIG1        0.0230
     75 H           2.2001   -1.6699    1.6224 H       1  LIG1        0.0234
     76 H           1.4036   -3.2222    1.6274 H       1  LIG1        0.0234
     77 H           0.8953   -1.8674    2.7313 H       1  LIG1        0.0234
     78 H          -0.5173   -3.5364   -1.0014 H       1  LIG1        0.0235
     79 H          -2.0098   -4.2023   -0.3344 H       1  LIG1        0.0235
     80 H          -0.4413   -4.5676    0.4019 H       1  LIG1        0.0235
     81 H          -1.8933   -2.3483    2.9469 H       1  LIG1        0.0274
     82 H          -2.5974   -3.6352    2.0866 H       1  LIG1        0.0274
     83 H          -0.7187   -5.1141    2.4258 H       1  LIG1        0.0313
     84 H          -1.4858   -4.5855    3.8852 H       1  LIG1        0.0313
     85 H           1.7188   -2.9493    5.2751 H       1  LIG1        0.0614
     86 H          -1.1147   -1.9920    4.6947 H       1  LIG1        0.0535
     87 H           0.0745   -1.3736    5.9516 H       1  LIG1        0.0535
     88 H           1.5304   -5.6392    2.8158 H       1  LIG1        0.0537
     89 H           2.5786   -4.5978    3.9234 H       1  LIG1        0.0537
     90 H          -7.9356   -0.9206   -0.8920 H       1  LIG1        0.0342
     91 H          -8.0688   -1.0662    0.8818 H       1  LIG1        0.0342
     92 H          -6.6499   -1.7315    0.0010 H       1  LIG1        0.0342
     93 H           0.3384   -0.0784    4.4167 H       1  LIG1        0.0342
     94 H           0.0946    1.4582    5.2199 H       1  LIG1        0.0342
     95 H           0.9315    1.2889    3.6397 H       1  LIG1        0.0342
     96 H          -4.7213    0.8352   -1.6721 H       1  LIG1        0.0610
     97 H          -5.0978   -1.2146   -5.9159 H       1  LIG1        0.0342
     98 H          -5.5105   -2.1877   -4.4950 H       1  LIG1        0.0342
     99 H          -4.1244   -2.6696   -5.5119 H       1  LIG1        0.0342
    100 H          -1.1448   -1.3442   -1.5850 H       1  LIG1        0.0307
    101 H          -2.3670   -2.5450   -1.7950 H       1  LIG1        0.0307
@<TRIPOS>BOND
     1     2     3    1
     2     3     4    1
     3     6     7    1
     4     7     8    1
     5     7     9    2
     6     4    10    1
     7    12    13    1
     8    13    14    1
     9    14    15    2
    10    15    16    1
    11    16    17    2
    12    17    18    1
    13    18    19    1
    14    19    20    1
    15    20    21    1
    16    21    22    1
    17    13    23    2
    18    10    24    1
    19    24    27    1
    20     2    27    1
    21    29    30    1
    22    30    31    1
    23    31    32    1
    24    32    33    2
    25    31    34    2
    26     3    35    1
    27    35    36    1
    28    38    39    1
    29    39    40    1
    30    39    41    2
    31    36    42    1
    32    42    43    1
    33     3    43    1
    34    45    46    1
    35    46    47    1
    36    46    48    2
    37    35    49    2
    38    49    50    1
    39    52    53    1
    40    53    54    1
    41    53    55    2
    42    50    56    1
    43     2    56    1
    44     1     2    1
    45    27    28    1
    46    27    29    1
    47    36    37    1
    48    36    38    1
    49    50    51    1
    50    50    52    1
    51     4     6    1
    52     4     5    1
    53    10    12    1
    54    10    11    1
    55    24    26    1
    56    24    25    1
    57    43    45    1
    58    43    44    1
    59     8    57    1
    60     8    58    1
    61     8    59    1
    62    14    60    1
    63    15    61    1
    64    16    62    1
    65    17    63    1
    66    18    64    1
    67    18    65    1
    68    19    66    1
    69    19    67    1
    70    20    68    1
    71    20    69    1
    72    21    70    1
    73    21    71    1
    74    22    72    1
    75    22    73    1
    76    22    74    1
    77    26    75    1
    78    26    76    1
    79    26    77    1
    80    28    78    1
    81    28    79    1
    82    28    80    1
    83    29    81    1
    84    29    82    1
    85    30    83    1
    86    30    84    1
    87    32    85    1
    88    33    86    1
    89    33    87    1
    90    34    88    1
    91    34    89    1
    92    40    90    1
    93    40    91    1
    94    40    92    1
    95    47    93    1
    96    47    94    1
    97    47    95    1
    98    49    96    1
    99    54    97    1
   100    54    98    1
   101    54    99    1
   102    56   100    1
   103    56   101    1
