REMARK  Name = NuBBE_259
REMARK  7 active torsions:
REMARK  status: ('A' for Active; 'I' for Inactive)
REMARK    1  A    between atoms: O_1  and  C_2
REMARK    2  A    between atoms: C_2  and  C_3
REMARK    3  A    between atoms: C_3  and  C_4
REMARK    4  A    between atoms: C_4  and  C_5
REMARK    5  A    between atoms: C_7  and  O_8
REMARK    6  A    between atoms: O_8  and  C_9
REMARK    7  A    between atoms: C_12  and  C_13
REMARK                            x       y       z     vdW  Elec       q    Type
REMARK                         _______ _______ _______ _____ _____    ______ ____
ROOT
ATOM      1  C   LIG A   1      -0.034   3.136  -0.941  0.00  0.00    -0.043 A 
ATOM      2  C   LIG A   1       0.904   3.139   0.106  0.00  0.00    +0.053 A 
ATOM      3  C   LIG A   1       1.359   1.950   0.701  0.00  0.00    +0.163 A 
ATOM      4  C   LIG A   1       0.866   0.757   0.161  0.00  0.00    +0.177 A 
ATOM      5  O   LIG A   1       1.180  -0.513   0.548  0.00  0.00    -0.451 OA
ATOM      6  C   LIG A   1       0.473  -1.379  -0.229  0.00  0.00    +0.137 A 
ATOM      7  C   LIG A   1      -0.287  -0.664  -1.138  0.00  0.00    +0.058 A 
ATOM      8  C   LIG A   1      -0.046   0.709  -0.885  0.00  0.00    +0.025 A 
ATOM      9  C   LIG A   1      -0.512   1.912  -1.441  0.00  0.00    +0.015 A 
ENDROOT
BRANCH   6  10
ATOM     10  C   LIG A   1       0.634  -2.799   0.053  0.00  0.00    +0.021 A 
ATOM     11  C   LIG A   1      -0.079  -3.742  -0.704  0.00  0.00    +0.061 A 
ATOM     12  C   LIG A   1       0.065  -5.074  -0.399  0.00  0.00    +0.167 A 
ATOM     13  C   LIG A   1       0.885  -5.506   0.617  0.00  0.00    +0.166 A 
ATOM     14  O   LIG A   1       0.874  -6.857   0.751  0.00  0.00    -0.453 OA
ATOM     15  C   LIG A   1      -0.048  -7.228  -0.297  0.00  0.00    +0.466 C 
ATOM     16  O   LIG A   1      -0.564  -6.102  -1.032  0.00  0.00    -0.453 OA
ATOM     17  C   LIG A   1       1.609  -4.620   1.382  0.00  0.00    +0.050 A 
ATOM     18  C   LIG A   1       1.481  -3.255   1.094  0.00  0.00    +0.015 A 
ENDBRANCH   6  10
BRANCH   3  19
ATOM     19  O   LIG A   1       2.279   2.089   1.726  0.00  0.00    -0.491 OA
ATOM     20  C   LIG A   1       2.325   0.989   2.632  0.00  0.00    +0.277 C 
ENDBRANCH   3  19
BRANCH   1  21
ATOM     21  C   LIG A   1      -0.505   4.431  -1.565  0.00  0.00    +0.037 C 
BRANCH  21  22
ATOM     22  C   LIG A   1      -2.015   4.670  -1.478  0.00  0.00    +0.032 C 
BRANCH  22  23
ATOM     23  C   LIG A   1      -2.524   4.855  -0.055  0.00  0.00    +0.156 C 
BRANCH  23  24
ATOM     24  O   LIG A   1      -3.931   5.068  -0.108  0.00  0.00    -0.395 OA
ATOM     25  H   LIG A   1      -4.292   4.820   0.760  0.00  0.00    +0.209 HD
ENDBRANCH  23  24
ENDBRANCH  22  23
ENDBRANCH  21  22
ENDBRANCH   1  21
TORSDOF 6
