@<TRIPOS>MOLECULE
NuBBE_1029
 70 74 0 0 0
SMALL
GASTEIGER

@<TRIPOS>ATOM
      1 O          -5.6228    5.0971   -3.2097 O.3     1  LIG1       -0.5068
      2 C          -4.7485    4.0540   -3.1264 C.ar    1  LIG1        0.1169
      3 C          -5.0521    2.9055   -2.4060 C.ar    1  LIG1       -0.0198
      4 C          -4.1292    1.8536   -2.3676 C.ar    1  LIG1       -0.0515
      5 C          -2.8923    1.9459   -3.0355 C.ar    1  LIG1       -0.0046
      6 C          -1.8875    0.7896   -2.9599 C.3     1  LIG1        0.1515
      7 H          -2.4103   -0.0974   -3.3406 H       1  LIG1        0.0811
      8 C          -1.4018    0.4871   -1.5137 C.3     1  LIG1        0.1069
      9 H          -2.2483    0.3182   -0.8370 H       1  LIG1        0.0641
     10 C          -0.6222    1.7488   -1.1016 C.3     1  LIG1        0.0096
     11 C           0.5489    1.8911   -2.0394 C.ar    1  LIG1        0.0384
     12 C           1.8073    2.3139   -1.5915 C.ar    1  LIG1        0.1270
     13 C           2.9505    2.0582   -2.3374 C.ar    1  LIG1        0.0218
     14 C           2.8225    1.4280   -3.5699 C.ar    1  LIG1        0.1238
     15 C           1.5688    1.1514   -4.1088 C.ar    1  LIG1        0.0221
     16 C           0.4278    1.3723   -3.3369 C.ar    1  LIG1        0.1317
     17 O          -0.7692    0.9618   -3.8748 O.3     1  LIG1       -0.4811
     18 O           3.9276    0.9964   -4.2453 O.3     1  LIG1       -0.5065
     19 O           1.9849    2.8670   -0.3539 O.3     1  LIG1       -0.5063
     20 O          -0.6147   -0.7304   -1.5948 O.3     1  LIG1       -0.3411
     21 C          -0.1622   -1.3692   -0.3999 C.3     1  LIG1        0.1893
     22 H          -1.0411   -1.5260    0.2349 H       1  LIG1        0.0938
     23 C           0.9023   -0.5593    0.3630 C.3     1  LIG1        0.1451
     24 H           1.2081    0.2423   -0.2924 H       1  LIG1        0.0682
     25 C           2.2168   -1.2701    0.6623 C.3     1  LIG1        0.1619
     26 H           2.9245   -0.4619    0.9000 H       1  LIG1        0.0789
     27 C           2.7324   -1.9893   -0.5725 C.3     1  LIG1        0.1205
     28 H           3.5647   -2.6374   -0.2800 H       1  LIG1        0.0657
     29 C           1.6170   -2.7546   -1.3269 C.3     1  LIG1        0.0884
     30 H           1.5110   -2.3753   -2.3505 H       1  LIG1        0.0621
     31 O           0.3202   -2.6747   -0.7205 O.3     1  LIG1       -0.3430
     32 C           2.0001   -4.2385   -1.4104 C.3     1  LIG1       -0.0360
     33 O           3.3178   -1.0061   -1.4457 O.3     1  LIG1       -0.3855
     34 O           2.2523   -2.0475    1.8691 O.3     1  LIG1       -0.4528
     35 C           1.3100   -2.9925    2.0797 C.2     1  LIG1        0.3324
     36 C           0.4918   -2.6706    3.2426 C.2     1  LIG1        0.0231
     37 C           0.9691   -1.8440    4.1745 C.2     1  LIG1       -0.0478
     38 C           0.2590   -1.5688    5.4161 C.ar    1  LIG1       -0.0248
     39 C          -0.5212   -2.5514    6.0257 C.ar    1  LIG1       -0.0546
     40 C          -1.1807   -2.2738    7.2171 C.ar    1  LIG1       -0.0612
     41 C          -1.0383   -1.0240    7.8109 C.ar    1  LIG1       -0.0617
     42 C          -0.2318   -0.0492    7.2269 C.ar    1  LIG1       -0.0612
     43 C           0.4220   -0.3256    6.0272 C.ar    1  LIG1       -0.0546
     44 O           1.1773   -4.0145    1.4467 O.2     1  LIG1       -0.2456
     45 O           0.3479    0.0663    1.5274 O.3     1  LIG1       -0.3830
     46 C          -2.6077    3.1276   -3.7389 C.ar    1  LIG1       -0.0515
     47 C          -3.5351    4.1718   -3.7902 C.ar    1  LIG1       -0.0198
     48 H          -6.4180    4.8839   -2.6949 H       1  LIG1        0.2921
     49 H          -5.9966    2.8063   -1.8796 H       1  LIG1        0.0654
     50 H          -4.3897    0.9562   -1.8098 H       1  LIG1        0.0623
     51 H          -0.3024    1.6695   -0.0647 H       1  LIG1        0.0342
     52 H          -1.2376    2.6528   -1.1333 H       1  LIG1        0.0342
     53 H           3.9255    2.2950   -1.9238 H       1  LIG1        0.0691
     54 H           1.4897    0.6785   -5.0830 H       1  LIG1        0.0691
     55 H           4.6369    0.8757   -3.5873 H       1  LIG1        0.2921
     56 H           1.1499    3.2949   -0.0993 H       1  LIG1        0.2921
     57 H           2.8249   -4.4954   -0.7337 H       1  LIG1        0.0255
     58 H           2.3531   -4.4814   -2.4179 H       1  LIG1        0.0255
     59 H           1.1670   -4.8987   -1.1587 H       1  LIG1        0.0255
     60 H           3.4054   -1.3968   -2.3334 H       1  LIG1        0.2101
     61 H          -0.4560   -3.1857    3.3018 H       1  LIG1        0.0689
     62 H           1.9254   -1.3410    4.0603 H       1  LIG1        0.0626
     63 H          -0.6222   -3.5430    5.5926 H       1  LIG1        0.0623
     64 H          -1.7966   -3.0376    7.6767 H       1  LIG1        0.0618
     65 H          -1.5597   -0.8084    8.7481 H       1  LIG1        0.0618
     66 H          -0.1106    0.9193    7.7004 H       1  LIG1        0.0618
     67 H           1.0529    0.4383    5.5767 H       1  LIG1        0.0623
     68 H           1.0602    0.5981    1.9243 H       1  LIG1        0.2102
     69 H          -1.6568    3.2501   -4.2539 H       1  LIG1        0.0623
     70 H          -3.3104    5.0733   -4.3533 H       1  LIG1        0.0654
@<TRIPOS>BOND
     1     1     2    1
     2     2     3   ar
     3     3     4   ar
     4     4     5   ar
     5     5     6    1
     6     6     7    1
     7     6     8    1
     8     8     9    1
     9     8    10    1
    10    10    11    1
    11    11    12   ar
    12    12    13   ar
    13    13    14   ar
    14    14    15   ar
    15    15    16   ar
    16    11    16   ar
    17    16    17    1
    18     6    17    1
    19    14    18    1
    20    12    19    1
    21     8    20    1
    22    21    23    1
    23    23    24    1
    24    23    25    1
    25    25    27    1
    26    27    28    1
    27    27    29    1
    28    29    31    1
    29    21    31    1
    30    27    33    1
    31    34    35    1
    32    35    36    1
    33    36    37    2
    34    37    38    1
    35    38    39   ar
    36    39    40   ar
    37    40    41   ar
    38    41    42   ar
    39    42    43   ar
    40    38    43   ar
    41    35    44    2
    42    23    45    1
    43     5    46   ar
    44    46    47   ar
    45     2    47   ar
    46    21    22    1
    47    21    20    1
    48    25    34    1
    49    25    26    1
    50    29    32    1
    51    29    30    1
    52     1    48    1
    53     3    49    1
    54     4    50    1
    55    10    51    1
    56    10    52    1
    57    13    53    1
    58    15    54    1
    59    18    55    1
    60    19    56    1
    61    32    57    1
    62    32    58    1
    63    32    59    1
    64    33    60    1
    65    36    61    1
    66    37    62    1
    67    39    63    1
    68    40    64    1
    69    41    65    1
    70    42    66    1
    71    43    67    1
    72    45    68    1
    73    46    69    1
    74    47    70    1
