REMARK  Name = NuBBE_65
REMARK  11 active torsions:
REMARK  status: ('A' for Active; 'I' for Inactive)
REMARK    1  A    between atoms: O_1  and  C_2
REMARK    2  A    between atoms: C_3  and  C_22
REMARK    3  A    between atoms: C_6  and  O_8
REMARK    4  A    between atoms: C_12  and  C_14
REMARK    5  A    between atoms: C_16  and  O_17
REMARK    6  A    between atoms: C_18  and  O_21
REMARK    7  A    between atoms: C_25  and  C_27
REMARK    8  A    between atoms: C_27  and  O_28
REMARK    9  A    between atoms: C_29  and  O_37
REMARK   10  A    between atoms: C_31  and  O_36
REMARK   11  A    between atoms: C_33  and  O_35
REMARK                            x       y       z     vdW  Elec       q    Type
REMARK                         _______ _______ _______ _____ _____    ______ ____
ROOT
ATOM      1  C   LIG A   1      -2.357  -3.011  -0.033  0.00  0.00    +0.130 A 
ATOM      2  C   LIG A   1      -1.504  -1.892  -0.082  0.00  0.00    +0.068 A 
ATOM      3  C   LIG A   1      -0.117  -2.128  -0.005  0.00  0.00    +0.152 A 
ATOM      4  C   LIG A   1       0.377  -3.438   0.025  0.00  0.00    +0.106 A 
ATOM      5  C   LIG A   1      -0.498  -4.527   0.011  0.00  0.00    +0.135 A 
ATOM      6  C   LIG A   1      -1.867  -4.316  -0.010  0.00  0.00    +0.092 A 
ATOM      7  C   LIG A   1       1.829  -3.641   0.068  0.00  0.00    +0.197 A 
ATOM      8  O   LIG A   1       2.315  -4.760   0.089  0.00  0.00    -0.287 OA
ATOM      9  C   LIG A   1       2.673  -2.443   0.068  0.00  0.00    +0.098 A 
ATOM     10  C   LIG A   1       2.091  -1.230   0.054  0.00  0.00    +0.139 A 
ATOM     11  O   LIG A   1       0.723  -1.039   0.065  0.00  0.00    -0.454 OA
ENDROOT
BRANCH  10  12
ATOM     12  C   LIG A   1       2.892   0.016   0.031  0.00  0.00    +0.021 A 
ATOM     13  C   LIG A   1       2.410   1.198   0.627  0.00  0.00    +0.060 A 
ATOM     14  C   LIG A   1       3.176   2.362   0.578  0.00  0.00    +0.159 A 
ATOM     15  C   LIG A   1       4.410   2.371  -0.066  0.00  0.00    +0.158 A 
ATOM     16  C   LIG A   1       4.901   1.226  -0.665  0.00  0.00    +0.050 A 
ATOM     17  C   LIG A   1       4.142   0.055  -0.618  0.00  0.00    +0.015 A 
BRANCH  14  18
ATOM     18  O   LIG A   1       2.758   3.533   1.150  0.00  0.00    -0.503 OA
ATOM     19  H   LIG A   1       1.908   3.375   1.595  0.00  0.00    +0.292 HD
ENDBRANCH  14  18
BRANCH  15  20
ATOM     20  O   LIG A   1       5.155   3.513  -0.114  0.00  0.00    -0.503 OA
ATOM     21  H   LIG A   1       4.622   4.179   0.365  0.00  0.00    +0.292 HD
ENDBRANCH  15  20
ENDBRANCH  10  12
BRANCH   2  22
ATOM     22  C   LIG A   1      -2.099  -0.495  -0.208  0.00  0.00    +0.187 C 
ATOM     23  O   LIG A   1      -1.213   0.365  -0.944  0.00  0.00    -0.361 OA
ATOM     24  C   LIG A   1      -1.744   1.679  -1.164  0.00  0.00    +0.175 C 
ATOM     25  C   LIG A   1      -2.006   2.377   0.174  0.00  0.00    +0.176 C 
ATOM     26  C   LIG A   1      -2.936   1.525   1.038  0.00  0.00    +0.177 C 
ATOM     27  C   LIG A   1      -2.430   0.087   1.179  0.00  0.00    +0.179 C 
BRANCH  27  28
ATOM     28  O   LIG A   1      -3.462  -0.685   1.823  0.00  0.00    -0.386 OA
ATOM     29  H   LIG A   1      -3.652  -0.199   2.655  0.00  0.00    +0.210 HD
ENDBRANCH  27  28
BRANCH  26  30
ATOM     30  O   LIG A   1      -3.058   2.105   2.346  0.00  0.00    -0.387 OA
ATOM     31  H   LIG A   1      -3.151   3.070   2.206  0.00  0.00    +0.210 HD
ENDBRANCH  26  30
BRANCH  25  32
ATOM     32  O   LIG A   1      -2.597   3.670   0.011  0.00  0.00    -0.387 OA
ATOM     33  H   LIG A   1      -3.350   3.598  -0.605  0.00  0.00    +0.210 HD
ENDBRANCH  25  32
BRANCH  24  34
ATOM     34  C   LIG A   1      -0.731   2.471  -2.000  0.00  0.00    +0.190 C 
BRANCH  34  35
ATOM     35  O   LIG A   1      -0.530   1.824  -3.254  0.00  0.00    -0.392 OA
ATOM     36  H   LIG A   1      -0.248   0.913  -3.045  0.00  0.00    +0.209 HD
ENDBRANCH  34  35
ENDBRANCH  24  34
ENDBRANCH   2  22
BRANCH   1  37
ATOM     37  O   LIG A   1      -3.717  -2.866   0.027  0.00  0.00    -0.506 OA
ATOM     38  H   LIG A   1      -3.904  -2.161   0.684  0.00  0.00    +0.292 HD
ENDBRANCH   1  37
BRANCH   5  39
ATOM     39  O   LIG A   1      -0.070  -5.830   0.040  0.00  0.00    -0.506 OA
ATOM     40  H   LIG A   1       0.913  -5.834   0.057  0.00  0.00    +0.292 HD
ENDBRANCH   5  39
TORSDOF 11
