@<TRIPOS>MOLECULE
NuBBE_270
 57 59 0 0 0
SMALL
GASTEIGER

@<TRIPOS>ATOM
      1 O          -1.0567    0.2763    5.3392 O.3     1  LIG1       -0.3841
      2 C          -1.3152    0.0084    3.9416 C.3     1  LIG1        0.1341
      3 H          -2.3638   -0.2990    3.8468 H       1  LIG1        0.0671
      4 C          -1.0539    1.3011    3.1180 C.3     1  LIG1        0.1883
      5 H          -1.5292    2.1228    3.6685 H       1  LIG1        0.0938
      6 O           0.3387    1.6276    3.0594 O.3     1  LIG1       -0.3405
      7 C           1.2120    0.5801    2.5901 C.3     1  LIG1        0.1134
      8 H           2.2241    0.9625    2.7734 H       1  LIG1        0.0647
      9 C           1.0905    0.3509    1.0731 C.3     1  LIG1        0.0796
     10 O           1.9792   -0.6685    0.6052 O.3     1  LIG1       -0.3461
     11 C           1.8455   -0.8489   -0.8192 C.3     1  LIG1        0.1879
     12 H           2.0312    0.1226   -1.2919 H       1  LIG1        0.0937
     13 O           0.5202   -1.3107   -1.0897 O.3     1  LIG1       -0.3431
     14 C           0.2278   -1.5379   -2.4707 C.3     1  LIG1        0.0873
     15 H          -0.7946   -1.9363   -2.4777 H       1  LIG1        0.0621
     16 C           0.2045   -0.2494   -3.2876 C.3     1  LIG1       -0.0361
     17 C           1.1632   -2.6304   -3.0118 C.3     1  LIG1        0.1095
     18 H           0.9874   -2.7666   -4.0844 H       1  LIG1        0.0646
     19 O           0.8425   -3.8730   -2.3677 O.3     1  LIG1       -0.3866
     20 C           2.6418   -2.3217   -2.7483 C.3     1  LIG1        0.1140
     21 H           3.2544   -3.2111   -2.9416 H       1  LIG1        0.0648
     22 O           3.1265   -1.3000   -3.6358 O.3     1  LIG1       -0.3864
     23 C           2.8933   -1.8814   -1.2957 C.3     1  LIG1        0.1341
     24 H           2.8434   -2.7592   -0.6408 H       1  LIG1        0.0671
     25 O           4.2313   -1.3615   -1.2020 O.3     1  LIG1       -0.3841
     26 C           1.0596   -0.6979    3.4286 C.3     1  LIG1        0.1119
     27 H           1.6830   -1.4947    3.0102 H       1  LIG1        0.0647
     28 O           1.5623   -0.4491    4.7548 O.3     1  LIG1       -0.3865
     29 C          -0.4049   -1.1572    3.5151 C.3     1  LIG1        0.1141
     30 H          -0.4697   -1.9431    4.2791 H       1  LIG1        0.0648
     31 O          -0.8700   -1.7305    2.2948 O.3     1  LIG1       -0.3864
     32 O          -1.6685    1.2549    1.8355 O.3     1  LIG1       -0.3441
     33 C          -1.5250    2.4782    1.1043 C.3     1  LIG1        0.0758
     34 C          -2.1794    2.3914   -0.2596 C.ar    1  LIG1       -0.0218
     35 C          -2.8873    1.2515   -0.6651 C.ar    1  LIG1       -0.0564
     36 C          -3.4755    1.1782   -1.9270 C.ar    1  LIG1       -0.0614
     37 C          -3.3550    2.2514   -2.8124 C.ar    1  LIG1       -0.0617
     38 C          -2.6559    3.3917   -2.4261 C.ar    1  LIG1       -0.0614
     39 C          -2.0722    3.4663   -1.1598 C.ar    1  LIG1       -0.0564
     40 H          -1.7827    0.8419    5.6596 H       1  LIG1        0.2101
     41 H           1.3207    1.2912    0.5584 H       1  LIG1        0.0587
     42 H           0.0701    0.0771    0.8052 H       1  LIG1        0.0587
     43 H           1.1727    0.2549   -3.3214 H       1  LIG1        0.0255
     44 H          -0.4972    0.4650   -2.8455 H       1  LIG1        0.0255
     45 H          -0.1097   -0.4500   -4.3168 H       1  LIG1        0.0255
     46 H           0.6247   -3.6707   -1.4365 H       1  LIG1        0.2100
     47 H           3.2042   -1.7096   -4.5186 H       1  LIG1        0.2100
     48 H           4.3770   -0.8678   -2.0341 H       1  LIG1        0.2101
     49 H           0.8984    0.1111    5.2101 H       1  LIG1        0.2100
     50 H          -0.2110   -2.3844    1.9999 H       1  LIG1        0.2100
     51 H          -0.4618    2.6874    0.9495 H       1  LIG1        0.0611
     52 H          -1.9741    3.3018    1.6693 H       1  LIG1        0.0611
     53 H          -2.9862    0.3931    0.0054 H       1  LIG1        0.0621
     54 H          -4.0225    0.2888   -2.2176 H       1  LIG1        0.0618
     55 H          -3.8084    2.1912   -3.7966 H       1  LIG1        0.0618
     56 H          -2.5670    4.2288   -3.1173 H       1  LIG1        0.0618
     57 H          -1.5330    4.3625   -0.8756 H       1  LIG1        0.0621
@<TRIPOS>BOND
     1     1     2    1
     2     2     3    1
     3     2     4    1
     4     4     6    1
     5     6     7    1
     6     7     8    1
     7     7     9    1
     8     9    10    1
     9    11    13    1
    10    13    14    1
    11    14    17    1
    12    17    18    1
    13    17    19    1
    14    17    20    1
    15    20    23    1
    16    11    23    1
    17     7    26    1
    18    26    29    1
    19    29    30    1
    20     2    29    1
    21    29    31    1
    22    32    33    1
    23    33    34    1
    24    34    35   ar
    25    35    36   ar
    26    36    37   ar
    27    37    38   ar
    28    38    39   ar
    29    34    39   ar
    30    11    12    1
    31    11    10    1
    32     4    32    1
    33     4     5    1
    34    14    16    1
    35    14    15    1
    36    20    22    1
    37    20    21    1
    38    23    25    1
    39    23    24    1
    40    26    28    1
    41    26    27    1
    42     1    40    1
    43     9    41    1
    44     9    42    1
    45    16    43    1
    46    16    44    1
    47    16    45    1
    48    19    46    1
    49    22    47    1
    50    25    48    1
    51    28    49    1
    52    31    50    1
    53    33    51    1
    54    33    52    1
    55    35    53    1
    56    36    54    1
    57    37    55    1
    58    38    56    1
    59    39    57    1
