@<TRIPOS>MOLECULE
NuBBE_1835
 54 56 0 0 0
SMALL
GASTEIGER

@<TRIPOS>ATOM
      1 C          -0.9081    1.3588    3.4188 C.3     1  LIG1       -0.0546
      2 C          -0.6277    0.5782    2.1384 C.3     1  LIG1        0.0261
      3 H          -1.0286   -0.4379    2.2399 H       1  LIG1        0.0387
      4 C           0.8845    0.5797    1.7899 C.3     1  LIG1        0.1320
      5 H           1.4779    0.9906    2.6173 H       1  LIG1        0.0790
      6 O           1.1250    1.4538    0.6573 O.3     1  LIG1       -0.4832
      7 C          -0.1175    1.7171    0.1490 C.ar    1  LIG1        0.1287
      8 C          -1.1603    1.2434    0.9202 C.ar    1  LIG1        0.0046
      9 C          -2.4669    1.4171    0.5010 C.ar    1  LIG1       -0.0093
     10 C          -2.7171    2.0783   -0.7160 C.ar    1  LIG1        0.1620
     11 C          -1.6343    2.5722   -1.4849 C.ar    1  LIG1        0.1658
     12 C          -0.3207    2.3876   -1.0405 C.ar    1  LIG1        0.0258
     13 O          -1.9090    3.2931   -2.6166 O.3     1  LIG1       -0.4842
     14 C          -0.9898    3.1939   -3.7014 C.3     1  LIG1        0.1077
     15 C          -1.7872    3.3678   -4.9519 C.2     1  LIG1       -0.0542
     16 C          -2.0214    4.5770   -5.5600 C.2     1  LIG1       -0.0995
     17 O          -4.0564    2.1291   -1.0137 O.3     1  LIG1       -0.4914
     18 C          -4.4708    2.7669   -2.2138 C.3     1  LIG1        0.0790
     19 C           1.4026   -0.8182    1.5035 C.ar    1  LIG1        0.0004
     20 C           1.3751   -1.3799    0.2256 C.ar    1  LIG1       -0.0094
     21 C           1.7405   -2.7130    0.0112 C.ar    1  LIG1        0.1655
     22 O           1.6296   -3.3308   -1.2145 O.3     1  LIG1       -0.4913
     23 C           1.1733   -2.5560   -2.3228 C.3     1  LIG1        0.0790
     24 C           2.2092   -3.4926    1.1005 C.ar    1  LIG1        0.2035
     25 C           2.3251   -2.8996    2.3772 C.ar    1  LIG1        0.1655
     26 C           1.8658   -1.5930    2.5661 C.ar    1  LIG1       -0.0094
     27 O           2.8173   -3.6216    3.4341 O.3     1  LIG1       -0.4913
     28 C           3.5650   -2.9046    4.4169 C.3     1  LIG1        0.0790
     29 O           2.5755   -4.7851    0.7911 O.3     1  LIG1       -0.4885
     30 C           2.4068   -5.7656    1.8100 C.3     1  LIG1        0.0791
     31 H          -0.4318    0.8699    4.2764 H       1  LIG1        0.0237
     32 H          -1.9830    1.4162    3.6196 H       1  LIG1        0.0237
     33 H          -0.5249    2.3838    3.3612 H       1  LIG1        0.0237
     34 H          -3.2960    1.0442    1.0964 H       1  LIG1        0.0659
     35 H           0.5378    2.7589   -1.5864 H       1  LIG1        0.0692
     36 H          -0.5055    2.2122   -3.7472 H       1  LIG1        0.0742
     37 H          -0.2274    3.9687   -3.6078 H       1  LIG1        0.0742
     38 H          -2.2246    2.4735   -5.3932 H       1  LIG1        0.0600
     39 H          -1.6445    5.4909   -5.1343 H       1  LIG1        0.0533
     40 H          -2.6353    4.6204   -6.4567 H       1  LIG1        0.0533
     41 H          -5.5246    2.5217   -2.3777 H       1  LIG1        0.0660
     42 H          -3.9409    2.3904   -3.0930 H       1  LIG1        0.0660
     43 H          -4.3913    3.8545   -2.1140 H       1  LIG1        0.0660
     44 H           1.0376   -0.7520   -0.5897 H       1  LIG1        0.0659
     45 H           2.0049   -1.9859   -2.7509 H       1  LIG1        0.0660
     46 H           0.3339   -1.8945   -2.0830 H       1  LIG1        0.0660
     47 H           0.7991   -3.2426   -3.0887 H       1  LIG1        0.0660
     48 H           1.8349   -1.1497    3.5542 H       1  LIG1        0.0659
     49 H           3.7053   -3.5699    5.2740 H       1  LIG1        0.0660
     50 H           3.0543   -2.0211    4.8078 H       1  LIG1        0.0660
     51 H           4.5498   -2.6286    4.0262 H       1  LIG1        0.0660
     52 H           3.2147   -5.7186    2.5458 H       1  LIG1        0.0660
     53 H           2.4781   -6.7539    1.3433 H       1  LIG1        0.0660
     54 H           1.4224   -5.6947    2.2856 H       1  LIG1        0.0660
@<TRIPOS>BOND
     1     1     2    1
     2     2     3    1
     3     2     4    1
     4     4     6    1
     5     6     7    1
     6     7     8   ar
     7     2     8    1
     8     8     9   ar
     9     9    10   ar
    10    10    11   ar
    11    11    12   ar
    12     7    12   ar
    13    11    13    1
    14    13    14    1
    15    14    15    1
    16    15    16    2
    17    10    17    1
    18    17    18    1
    19    19    20   ar
    20    20    21   ar
    21    21    22    1
    22    22    23    1
    23    21    24   ar
    24    24    25   ar
    25    25    26   ar
    26    19    26   ar
    27    25    27    1
    28    27    28    1
    29    24    29    1
    30    29    30    1
    31     4    19    1
    32     4     5    1
    33     1    31    1
    34     1    32    1
    35     1    33    1
    36     9    34    1
    37    12    35    1
    38    14    36    1
    39    14    37    1
    40    15    38    1
    41    16    39    1
    42    16    40    1
    43    18    41    1
    44    18    42    1
    45    18    43    1
    46    20    44    1
    47    23    45    1
    48    23    46    1
    49    23    47    1
    50    26    48    1
    51    28    49    1
    52    28    50    1
    53    28    51    1
    54    30    52    1
    55    30    53    1
    56    30    54    1
