@<TRIPOS>MOLECULE
NuBBE_1828
 28 29 0 0 0
SMALL
GASTEIGER

@<TRIPOS>ATOM
      1 O          -0.8764    1.7977    1.8677 O.2     1  LIG1       -0.2450
      2 C          -0.8247    1.3879    0.7178 C.2     1  LIG1        0.3395
      3 O           0.2939    1.1367    0.0022 O.3     1  LIG1       -0.4564
      4 C           1.5408    1.2777    0.6880 C.3     1  LIG1        0.1178
      5 C           2.2720   -0.0359    0.5839 C.ar    1  LIG1       -0.0103
      6 C           3.1149   -0.3076   -0.5027 C.ar    1  LIG1       -0.0554
      7 C           3.7683   -1.5379   -0.5994 C.ar    1  LIG1       -0.0614
      8 C           3.5778   -2.5099    0.3815 C.ar    1  LIG1       -0.0617
      9 C           2.7316   -2.2550    1.4588 C.ar    1  LIG1       -0.0614
     10 C           2.0777   -1.0261    1.5576 C.ar    1  LIG1       -0.0554
     11 C          -2.0243    1.0510   -0.0952 C.ar    1  LIG1        0.0590
     12 C          -1.9232    0.6321   -1.4300 C.ar    1  LIG1       -0.0478
     13 C          -3.0685    0.2813   -2.1454 C.ar    1  LIG1       -0.0610
     14 C          -4.3195    0.3493   -1.5348 C.ar    1  LIG1       -0.0617
     15 C          -4.4302    0.7739   -0.2106 C.ar    1  LIG1       -0.0610
     16 C          -3.2863    1.1268    0.5088 C.ar    1  LIG1       -0.0478
     17 H           1.4354    1.5673    1.7395 H       1  LIG1        0.0749
     18 H           2.1092    2.0714    0.1909 H       1  LIG1        0.0749
     19 H           3.2658    0.4368   -1.2811 H       1  LIG1        0.0621
     20 H           4.4249   -1.7397   -1.4418 H       1  LIG1        0.0618
     21 H           4.0857   -3.4677    0.3047 H       1  LIG1        0.0618
     22 H           2.5783   -3.0136    2.2219 H       1  LIG1        0.0618
     23 H           1.4125   -0.8425    2.3992 H       1  LIG1        0.0621
     24 H          -0.9565    0.5627   -1.9229 H       1  LIG1        0.0626
     25 H          -2.9806   -0.0535   -3.1760 H       1  LIG1        0.0618
     26 H          -5.2095    0.0666   -2.0915 H       1  LIG1        0.0618
     27 H          -5.4070    0.8220    0.2645 H       1  LIG1        0.0618
     28 H          -3.3820    1.4482    1.5444 H       1  LIG1        0.0626
@<TRIPOS>BOND
     1     1     2    2
     2     2     3    1
     3     3     4    1
     4     4     5    1
     5     5     6   ar
     6     6     7   ar
     7     7     8   ar
     8     8     9   ar
     9     9    10   ar
    10     5    10   ar
    11     2    11    1
    12    11    12   ar
    13    12    13   ar
    14    13    14   ar
    15    14    15   ar
    16    15    16   ar
    17    11    16   ar
    18     4    17    1
    19     4    18    1
    20     6    19    1
    21     7    20    1
    22     8    21    1
    23     9    22    1
    24    10    23    1
    25    12    24    1
    26    13    25    1
    27    14    26    1
    28    15    27    1
    29    16    28    1
