REMARK  Name = NuBBE_562
REMARK  5 active torsions:
REMARK  status: ('A' for Active; 'I' for Inactive)
REMARK    1  A    between atoms: O_1  and  C_2
REMARK    2  A    between atoms: C_4  and  O_5
REMARK    3  A    between atoms: C_9  and  C_11
REMARK    4  A    between atoms: C_13  and  O_14
REMARK    5  A    between atoms: C_15  and  O_16
REMARK                            x       y       z     vdW  Elec       q    Type
REMARK                         _______ _______ _______ _____ _____    ______ ____
ROOT
ATOM      1  C   LIG A   1      -3.218  -1.306  -1.522  0.00  0.00    +0.124 A 
ATOM      2  C   LIG A   1      -2.396  -2.408  -1.735  0.00  0.00    +0.091 A 
ATOM      3  C   LIG A   1      -1.010  -2.228  -1.786  0.00  0.00    +0.134 A 
ATOM      4  C   LIG A   1      -0.451  -0.954  -1.614  0.00  0.00    +0.101 A 
ATOM      5  C   LIG A   1       1.004  -0.680  -1.718  0.00  0.00    +0.174 C 
ATOM      6  C   LIG A   1       1.378   0.771  -1.817  0.00  0.00    +0.129 C 
ATOM      7  C   LIG A   1       0.528   1.564  -0.833  0.00  0.00    +0.211 C 
ATOM      8  O   LIG A   1      -0.865   1.424  -1.173  0.00  0.00    -0.483 OA
ATOM      9  O   LIG A   1       1.861  -1.553  -1.784  0.00  0.00    -0.292 OA
ATOM     10  C   LIG A   1      -1.295   0.138  -1.379  0.00  0.00    +0.139 A 
ATOM     11  C   LIG A   1      -2.679  -0.038  -1.347  0.00  0.00    +0.092 A 
ENDROOT
BRANCH   7  12
ATOM     12  C   LIG A   1       0.808   1.336   0.655  0.00  0.00    -0.003 A 
ATOM     13  C   LIG A   1       2.129   1.231   1.132  0.00  0.00    +0.056 A 
ATOM     14  C   LIG A   1       2.371   1.067   2.495  0.00  0.00    +0.159 A 
ATOM     15  C   LIG A   1       1.316   1.018   3.398  0.00  0.00    +0.158 A 
ATOM     16  C   LIG A   1       0.009   1.136   2.961  0.00  0.00    +0.049 A 
ATOM     17  C   LIG A   1      -0.242   1.305   1.596  0.00  0.00    +0.011 A 
BRANCH  14  18
ATOM     18  O   LIG A   1       3.640   0.958   2.995  0.00  0.00    -0.503 OA
ATOM     19  H   LIG A   1       4.262   0.940   2.248  0.00  0.00    +0.292 HD
ENDBRANCH  14  18
BRANCH  15  20
ATOM     20  O   LIG A   1       1.565   0.862   4.731  0.00  0.00    -0.503 OA
ATOM     21  H   LIG A   1       2.539   0.808   4.792  0.00  0.00    +0.292 HD
ENDBRANCH  15  20
ENDBRANCH   7  12
BRANCH   1  22
ATOM     22  O   LIG A   1      -4.575  -1.426  -1.477  0.00  0.00    -0.506 OA
ATOM     23  H   LIG A   1      -4.823  -2.356  -1.609  0.00  0.00    +0.292 HD
ENDBRANCH   1  22
BRANCH   3  24
ATOM     24  O   LIG A   1      -0.216  -3.312  -2.033  0.00  0.00    -0.506 OA
ATOM     25  H   LIG A   1      -0.740  -4.128  -2.040  0.00  0.00    +0.292 HD
ENDBRANCH   3  24
TORSDOF 5
