@<TRIPOS>MOLECULE
NuBBE_253
 24 25 0 0 0
SMALL
GASTEIGER

@<TRIPOS>ATOM
      1 O          -2.8729   -1.7710   -0.0445 O.3     1  LIG1       -0.5061
      2 C          -1.5067   -1.6844   -0.0468 C.ar    1  LIG1        0.1277
      3 C          -0.8126   -0.4661   -0.0215 C.ar    1  LIG1        0.0645
      4 C           0.5948   -0.4583   -0.0638 C.ar    1  LIG1       -0.0027
      5 C           1.3746    0.8344   -0.0738 C.3     1  LIG1        0.1071
      6 H           2.2246    0.7527   -0.7615 H       1  LIG1        0.0670
      7 O           1.9199    1.0803    1.2215 O.3     1  LIG1       -0.3846
      8 C           0.5049    2.0305   -0.5201 C.3     1  LIG1        0.0922
      9 H           0.2550    1.9096   -1.5817 H       1  LIG1        0.0627
     10 O           1.1790    3.2846   -0.3950 O.3     1  LIG1       -0.3885
     11 C          -0.7786    2.0815    0.2917 C.3     1  LIG1        0.0394
     12 C          -1.5648    0.8166    0.0628 C.2     1  LIG1        0.1695
     13 O          -2.7894    0.8052   -0.0036 O.2     1  LIG1       -0.2918
     14 C           1.2806   -1.6856   -0.0872 C.ar    1  LIG1       -0.0551
     15 C           0.5787   -2.8925   -0.0860 C.ar    1  LIG1       -0.0579
     16 C          -0.8144   -2.8912   -0.0740 C.ar    1  LIG1       -0.0195
     17 H          -3.2375   -0.8564   -0.0525 H       1  LIG1        0.2922
     18 H           2.1759    0.2294    1.6173 H       1  LIG1        0.2103
     19 H           2.1374    3.1217   -0.4336 H       1  LIG1        0.2099
     20 H          -1.3833    2.9403   -0.0204 H       1  LIG1        0.0371
     21 H          -0.5864    2.1975    1.3646 H       1  LIG1        0.0371
     22 H           2.3690   -1.7113   -0.1092 H       1  LIG1        0.0621
     23 H           1.1162   -3.8381   -0.1001 H       1  LIG1        0.0619
     24 H          -1.3640   -3.8293   -0.0826 H       1  LIG1        0.0654
@<TRIPOS>BOND
     1     1     2    1
     2     2     3   ar
     3     3     4   ar
     4     4     5    1
     5     5     6    1
     6     5     7    1
     7     5     8    1
     8     8     9    1
     9     8    10    1
    10     8    11    1
    11    11    12    1
    12     3    12    1
    13    12    13    2
    14     4    14   ar
    15    14    15   ar
    16    15    16   ar
    17     2    16   ar
    18     1    17    1
    19     7    18    1
    20    10    19    1
    21    11    20    1
    22    11    21    1
    23    14    22    1
    24    15    23    1
    25    16    24    1
