@<TRIPOS>MOLECULE
NuBBE_1049
 84 88 0 0 0
SMALL
GASTEIGER

@<TRIPOS>ATOM
      1 C          -4.6606   -0.7710    1.6092 C.3     1  LIG1       -0.0587
      2 C          -3.2714   -0.6083    2.3193 C.3     1  LIG1       -0.0218
      3 C          -2.3168    0.0831    1.2321 C.3     1  LIG1       -0.0137
      4 H          -3.0154    0.4728    0.4758 H       1  LIG1        0.0351
      5 C          -1.4215   -0.8593    0.4112 C.2     1  LIG1       -0.0634
      6 C          -0.5653   -0.1829   -0.7105 C.3     1  LIG1       -0.0051
      7 C           0.2022    1.1246   -0.1968 C.3     1  LIG1       -0.0198
      8 C          -0.2116    2.4273   -0.9134 C.3     1  LIG1       -0.0585
      9 C           1.7557    0.7913   -0.2767 C.3     1  LIG1       -0.0298
     10 H           2.1773    0.9842    0.7216 H       1  LIG1        0.0310
     11 C           2.7115    1.6140   -1.2066 C.3     1  LIG1       -0.0116
     12 H           2.5955    2.6628   -0.9018 H       1  LIG1        0.0327
     13 C           4.1762    1.2443   -0.8812 C.3     1  LIG1       -0.0597
     14 C           2.4586    1.5526   -2.7255 C.3     1  LIG1        0.0906
     15 C           3.3124    2.5013   -3.5641 C.3     1  LIG1        0.1100
     16 H           4.3846    2.3912   -3.3699 H       1  LIG1        0.0646
     17 O           2.9687    3.8678   -3.3991 O.3     1  LIG1       -0.3866
     18 C           2.9924    1.9899   -4.9630 C.3     1  LIG1        0.1118
     19 H           2.0409    2.4229   -5.2966 H       1  LIG1        0.0649
     20 O           3.9691    2.4079   -5.9106 O.3     1  LIG1       -0.3863
     21 C           2.8667    0.4633   -4.7415 C.3     1  LIG1        0.0927
     22 C           4.0860   -0.3440   -5.1763 C.3     1  LIG1       -0.0335
     23 C           1.6061   -0.0757   -5.4235 C.3     1  LIG1       -0.0335
     24 O           2.7204    0.2666   -3.3086 O.3     1  LIG1       -0.3651
     25 C           1.8065   -0.7281   -0.4469 C.3     1  LIG1       -0.0486
     26 C           0.5886   -1.0548   -1.2794 C.3     1  LIG1       -0.0431
     27 C          -0.0913    1.3560    1.3146 C.3     1  LIG1       -0.0460
     28 C          -1.5715    1.3612    1.6649 C.3     1  LIG1       -0.0455
     29 C          -1.5340    0.0602   -1.8940 C.3     1  LIG1       -0.0553
     30 C          -1.4924   -2.1876    0.5854 C.2     1  LIG1       -0.0836
     31 C          -2.4061   -2.8858    1.5387 C.3     1  LIG1       -0.0306
     32 C          -2.8004   -2.0473    2.7624 C.3     1  LIG1       -0.0242
     33 H          -3.7094   -2.5488    3.1297 H       1  LIG1        0.0315
     34 C          -1.7951   -2.1069    3.9935 C.3     1  LIG1       -0.0053
     35 C          -0.5364   -2.9763    3.7528 C.3     1  LIG1       -0.0572
     36 C          -1.3286   -0.6924    4.4001 C.3     1  LIG1        0.0606
     37 C          -2.4837    0.2659    4.6583 C.3     1  LIG1       -0.0258
     38 C          -3.5718    0.2384    3.5857 C.3     1  LIG1       -0.0444
     39 H          -0.6860   -0.3044    3.6088 H       1  LIG1        0.0599
     40 O          -0.5130   -0.7322    5.5732 O.3     1  LIG1       -0.3912
     41 C          -2.5376   -2.7720    5.1878 C.3     1  LIG1       -0.0572
     42 H          -4.5796   -1.3157    0.6630 H       1  LIG1        0.0235
     43 H          -5.1001    0.2089    1.3860 H       1  LIG1        0.0235
     44 H          -5.3762   -1.3091    2.2415 H       1  LIG1        0.0235
     45 H          -0.1502    2.3680   -1.9976 H       1  LIG1        0.0235
     46 H           0.4019    3.2739   -0.5881 H       1  LIG1        0.0235
     47 H          -1.2526    2.6937   -0.7063 H       1  LIG1        0.0235
     48 H           4.8674    2.0016   -1.2635 H       1  LIG1        0.0233
     49 H           4.4637    0.2814   -1.3146 H       1  LIG1        0.0233
     50 H           4.3430    1.1903    0.2000 H       1  LIG1        0.0233
     51 H           1.4120    1.7754   -2.9236 H       1  LIG1        0.0626
     52 H           3.3729    4.3471   -4.1468 H       1  LIG1        0.2100
     53 H           4.8416    2.0896   -5.6203 H       1  LIG1        0.2100
     54 H           4.2646   -0.2628   -6.2529 H       1  LIG1        0.0258
     55 H           3.9562   -1.4036   -4.9272 H       1  LIG1        0.0258
     56 H           4.9834   -0.0131   -4.6419 H       1  LIG1        0.0258
     57 H           1.6540    0.0510   -6.5099 H       1  LIG1        0.0258
     58 H           0.7096    0.4368   -5.0546 H       1  LIG1        0.0258
     59 H           1.4625   -1.1383   -5.1992 H       1  LIG1        0.0258
     60 H           1.7231   -1.2133    0.5341 H       1  LIG1        0.0268
     61 H           2.7252   -1.0962   -0.9089 H       1  LIG1        0.0268
     62 H           0.4038   -2.1297   -1.2971 H       1  LIG1        0.0274
     63 H           0.7828   -0.7890   -2.3226 H       1  LIG1        0.0274
     64 H           0.3522    2.3077    1.6380 H       1  LIG1        0.0271
     65 H           0.4016    0.5822    1.9167 H       1  LIG1        0.0271
     66 H          -2.0643    2.2256    1.2027 H       1  LIG1        0.0271
     67 H          -1.6426    1.5722    2.7262 H       1  LIG1        0.0271
     68 H          -2.3414    0.7535   -1.6397 H       1  LIG1        0.0238
     69 H          -1.9985   -0.8808   -2.2155 H       1  LIG1        0.0238
     70 H          -1.0160    0.4657   -2.7702 H       1  LIG1        0.0238
     71 H          -0.9270   -2.8746   -0.0370 H       1  LIG1        0.0572
     72 H          -1.9751   -3.8459    1.8340 H       1  LIG1        0.0310
     73 H          -3.3074   -3.1656    0.9775 H       1  LIG1        0.0310
     74 H           0.0596   -2.6013    2.9152 H       1  LIG1        0.0236
     75 H          -0.7935   -4.0235    3.5620 H       1  LIG1        0.0236
     76 H           0.1190   -2.9849    4.6317 H       1  LIG1        0.0236
     77 H          -2.0902    1.2838    4.7765 H       1  LIG1        0.0290
     78 H          -2.9343    0.0588    5.6380 H       1  LIG1        0.0290
     79 H          -3.8470    1.2639    3.3078 H       1  LIG1        0.0272
     80 H          -4.4717   -0.1668    4.0707 H       1  LIG1        0.0272
     81 H          -0.1427    0.1582    5.6989 H       1  LIG1        0.2098
     82 H          -3.4488   -2.2265    5.4552 H       1  LIG1        0.0236
     83 H          -1.9072   -2.8222    6.0825 H       1  LIG1        0.0236
     84 H          -2.8335   -3.7982    4.9402 H       1  LIG1        0.0236
@<TRIPOS>BOND
     1     2     3    1
     2     3     5    1
     3     5     6    1
     4     6     7    1
     5     7     9    1
     6    11    12    1
     7    11    13    1
     8    11    14    1
     9    14    15    1
    10    15    18    1
    11    18    21    1
    12    21    22    1
    13    21    23    1
    14    21    24    1
    15    14    24    1
    16     9    25    1
    17    25    26    1
    18     7    27    1
    19    27    28    1
    20     3    28    1
    21    26     6    1
    22     5    30    2
    23    30    31    1
    24    31    32    1
    25     2    32    1
    26    32    34    1
    27    34    36    1
    28    36    37    1
    29    37    38    1
    30     2    38    1
    31     1     2    1
    32     3     4    1
    33     6    29    1
    34     7     8    1
    35     9    10    1
    36     9    11    1
    37    32    33    1
    38    34    35    1
    39    34    41    1
    40    36    39    1
    41    36    40    1
    42    15    17    1
    43    15    16    1
    44    18    20    1
    45    18    19    1
    46     1    42    1
    47     1    43    1
    48     1    44    1
    49     8    45    1
    50     8    46    1
    51     8    47    1
    52    13    48    1
    53    13    49    1
    54    13    50    1
    55    14    51    1
    56    17    52    1
    57    20    53    1
    58    22    54    1
    59    22    55    1
    60    22    56    1
    61    23    57    1
    62    23    58    1
    63    23    59    1
    64    25    60    1
    65    25    61    1
    66    26    62    1
    67    26    63    1
    68    27    64    1
    69    27    65    1
    70    28    66    1
    71    28    67    1
    72    29    68    1
    73    29    69    1
    74    29    70    1
    75    30    71    1
    76    31    72    1
    77    31    73    1
    78    35    74    1
    79    35    75    1
    80    35    76    1
    81    37    77    1
    82    37    78    1
    83    38    79    1
    84    38    80    1
    85    40    81    1
    86    41    82    1
    87    41    83    1
    88    41    84    1
