@<TRIPOS>MOLECULE
NuBBE_277
 19 19 0 0 0
SMALL
GASTEIGER

@<TRIPOS>ATOM
      1 O          -2.9894    0.9920   -1.8288 O.2     1  LIG1       -0.2506
      2 C          -2.2717    0.1529   -1.3056 C.2     1  LIG1        0.3092
      3 O          -1.8446   -0.9508   -1.9662 O.3     1  LIG1       -0.4804
      4 C          -1.8207    0.2139    0.1341 C.3     1  LIG1        0.0733
      5 C          -0.3211    0.2641    0.2884 C.ar    1  LIG1        0.0047
      6 C           0.3337    1.4998    0.3759 C.ar    1  LIG1       -0.0546
      7 C           1.7210    1.5568    0.5196 C.ar    1  LIG1       -0.0613
      8 C           2.4675    0.3808    0.5810 C.ar    1  LIG1       -0.0583
      9 C           1.8325   -0.8560    0.4755 C.ar    1  LIG1       -0.0199
     10 C           0.4497   -0.9032    0.3125 C.ar    1  LIG1        0.1205
     11 O          -0.1850   -2.1004    0.1161 O.3     1  LIG1       -0.5065
     12 H          -1.2724   -1.5139   -1.3992 H       1  LIG1        0.2951
     13 H          -2.2455   -0.6437    0.6698 H       1  LIG1        0.0427
     14 H          -2.2711    1.0989    0.6004 H       1  LIG1        0.0427
     15 H          -0.2327    2.4282    0.3251 H       1  LIG1        0.0622
     16 H           2.2194    2.5214    0.5807 H       1  LIG1        0.0618
     17 H           3.5476    0.4313    0.6952 H       1  LIG1        0.0619
     18 H           2.4320   -1.7607    0.5034 H       1  LIG1        0.0654
     19 H           0.4510   -2.8114    0.3221 H       1  LIG1        0.2921
@<TRIPOS>BOND
     1     1     2    2
     2     2     3    1
     3     2     4    1
     4     4     5    1
     5     5     6   ar
     6     6     7   ar
     7     7     8   ar
     8     8     9   ar
     9     9    10   ar
    10     5    10   ar
    11    10    11    1
    12     3    12    1
    13     4    13    1
    14     4    14    1
    15     6    15    1
    16     7    16    1
    17     8    17    1
    18     9    18    1
    19    11    19    1
