REMARK  Name = NuBBE_2108
REMARK  12 active torsions:
REMARK  status: ('A' for Active; 'I' for Inactive)
REMARK    1  A    between atoms: C_1  and  C_2
REMARK    2  A    between atoms: C_2  and  C_3
REMARK    3  A    between atoms: C_3  and  C_4
REMARK    4  A    between atoms: C_4  and  C_5
REMARK    5  A    between atoms: C_5  and  C_6
REMARK    6  A    between atoms: C_6  and  C_7
REMARK    7  A    between atoms: C_7  and  C_8
REMARK    8  A    between atoms: C_8  and  C_9
REMARK    9  A    between atoms: C_9  and  C_10
REMARK   10  A    between atoms: C_10  and  C_11
REMARK   11  A    between atoms: C_11  and  C_12
REMARK   12  A    between atoms: C_12  and  C_13
REMARK                            x       y       z     vdW  Elec       q    Type
REMARK                         _______ _______ _______ _____ _____    ______ ____
ROOT
ATOM      1  C   LIG A   1      -0.853  -0.054  -0.866  0.00  0.00    -0.000 C 
ENDROOT
BRANCH   1   2
ATOM      2  C   LIG A   1      -0.100   1.182  -0.381  0.00  0.00    -0.000 C 
BRANCH   2   3
ATOM      3  C   LIG A   1      -1.025   2.393  -0.325  0.00  0.00    -0.000 C 
BRANCH   3   4
ATOM      4  C   LIG A   1      -0.281   3.625   0.190  0.00  0.00    -0.000 C 
BRANCH   4   5
ATOM      5  C   LIG A   1      -1.177   4.864   0.261  0.00  0.00    -0.000 C 
BRANCH   5   7
ATOM      6  C   LIG A   1      -1.970   4.412   2.638  0.00  0.00    +0.004 C 
ATOM      7  C   LIG A   1      -2.377   4.728   1.208  0.00  0.00    -0.003 C 
ENDBRANCH   5   7
ENDBRANCH   4   5
ENDBRANCH   3   4
ENDBRANCH   2   3
ENDBRANCH   1   2
BRANCH   1   8
ATOM      8  C   LIG A   1       0.037  -1.287  -1.000  0.00  0.00    -0.000 C 
BRANCH   8   9
ATOM      9  C   LIG A   1       0.666  -1.745   0.320  0.00  0.00    -0.000 C 
BRANCH   9  10
ATOM     10  C   LIG A   1       1.562  -2.976   0.146  0.00  0.00    -0.000 C 
BRANCH  10  11
ATOM     11  C   LIG A   1       0.803  -4.203  -0.363  0.00  0.00    -0.000 C 
BRANCH  11  12
ATOM     12  C   LIG A   1       1.687  -5.434  -0.554  0.00  0.00    -0.003 C 
ATOM     13  C   LIG A   1       2.776  -5.234  -1.598  0.00  0.00    +0.004 C 
ENDBRANCH  11  12
ENDBRANCH  10  11
ENDBRANCH   9  10
ENDBRANCH   8   9
ENDBRANCH   1   8
TORSDOF 10
