@<TRIPOS>MOLECULE
NuBBE_207
 79 82 0 0 0
SMALL
GASTEIGER

@<TRIPOS>ATOM
      1 C           0.0505   -5.5022    1.2194 C.3     1  LIG1        0.0790
      2 O          -0.7852   -4.3474    1.1830 O.3     1  LIG1       -0.4913
      3 C          -0.1639   -3.1281    1.0526 C.ar    1  LIG1        0.1653
      4 C           0.9496   -2.8762    0.2450 C.ar    1  LIG1        0.2013
      5 C           1.4925   -1.5880    0.1038 C.ar    1  LIG1        0.1690
      6 O           2.5691   -1.2775   -0.6860 O.3     1  LIG1       -0.4910
      7 C           3.5605   -2.2900   -0.8455 C.3     1  LIG1        0.0790
      8 C           0.8314   -0.5166    0.7171 C.ar    1  LIG1        0.0091
      9 C           1.2296    0.9507    0.4578 C.3     1  LIG1        0.0185
     10 H           1.9225    0.9839   -0.3930 H       1  LIG1        0.0402
     11 C          -0.0539    1.7343    0.0269 C.3     1  LIG1       -0.0013
     12 H           0.1604    2.8056   -0.0134 H       1  LIG1        0.0335
     13 C          -1.2903    1.4997    0.9599 C.3     1  LIG1       -0.0081
     14 H          -2.1137    1.1019    0.3502 H       1  LIG1        0.0330
     15 C          -1.0349    0.4639    2.0769 C.3     1  LIG1       -0.0219
     16 C          -0.3164   -0.7394    1.5135 C.ar    1  LIG1       -0.0361
     17 C          -0.7915   -2.0531    1.7027 C.ar    1  LIG1       -0.0126
     18 C          -1.8174    2.8247    1.5378 C.3     1  LIG1        0.0477
     19 O          -0.8281    3.4828    2.3091 O.3     1  LIG1       -0.3947
     20 C          -0.4126    1.4144   -1.4415 C.3     1  LIG1        0.0548
     21 O          -0.7923    0.0543   -1.5918 O.3     1  LIG1       -0.3484
     22 C          -1.1773   -0.2721   -2.9218 C.3     1  LIG1        0.1879
     23 H          -0.3492   -0.0252   -3.5973 H       1  LIG1        0.0937
     24 C          -1.4415   -1.8005   -3.0012 C.3     1  LIG1        0.1341
     25 H          -0.7620   -2.3316   -2.3254 H       1  LIG1        0.0671
     26 C          -2.8955   -2.1432   -2.6461 C.3     1  LIG1        0.1141
     27 H          -3.0709   -3.1995   -2.8851 H       1  LIG1        0.0648
     28 C          -3.9100   -1.2636   -3.4145 C.3     1  LIG1        0.1119
     29 H          -4.6572   -0.8793   -2.7089 H       1  LIG1        0.0647
     30 C          -3.2286   -0.0857   -4.1345 C.3     1  LIG1        0.1130
     31 H          -2.7305   -0.4330   -5.0478 H       1  LIG1        0.0647
     32 O          -2.2856    0.5456   -3.2826 O.3     1  LIG1       -0.3405
     33 C          -4.2413    0.9914   -4.5573 C.3     1  LIG1        0.0730
     34 O          -5.2078    0.5405   -5.4962 O.3     1  LIG1       -0.3924
     35 O          -4.6175   -2.0471   -4.3879 O.3     1  LIG1       -0.3865
     36 O          -3.0935   -2.0173   -1.2334 O.3     1  LIG1       -0.3864
     37 O          -1.1782   -2.2979   -4.3284 O.3     1  LIG1       -0.3841
     38 C           2.0246    1.5889    1.6049 C.ar    1  LIG1       -0.0324
     39 C           2.0993    2.9780    1.7774 C.ar    1  LIG1       -0.0123
     40 C           2.8134    3.5601    2.8298 C.ar    1  LIG1        0.1653
     41 O           2.8702    4.9146    3.0630 O.3     1  LIG1       -0.4913
     42 C           1.9946    5.7242    2.2685 C.3     1  LIG1        0.0790
     43 C           3.5338    2.7206    3.6912 C.ar    1  LIG1        0.2010
     44 C           3.5265    1.3344    3.5203 C.ar    1  LIG1        0.1653
     45 O           4.2976    0.5837    4.3727 O.3     1  LIG1       -0.4913
     46 C           4.2856   -0.8233    4.1501 C.3     1  LIG1        0.0790
     47 C           2.7754    0.7894    2.4750 C.ar    1  LIG1       -0.0123
     48 O           4.3053    3.2505    4.6954 O.3     1  LIG1       -0.5009
     49 O           1.4073   -3.8481   -0.5974 O.3     1  LIG1       -0.5009
     50 H          -0.5961   -6.3736    1.3798 H       1  LIG1        0.0660
     51 H           0.7710   -5.4502    2.0424 H       1  LIG1        0.0660
     52 H           0.5559   -5.7050    0.2762 H       1  LIG1        0.0660
     53 H           3.2529   -3.0444   -1.5739 H       1  LIG1        0.0660
     54 H           3.8420   -2.7419    0.1122 H       1  LIG1        0.0660
     55 H           4.4513   -1.8161   -1.2691 H       1  LIG1        0.0660
     56 H          -1.9921    0.1709    2.5189 H       1  LIG1        0.0317
     57 H          -0.4349    0.8874    2.8906 H       1  LIG1        0.0317
     58 H          -1.6818   -2.2297    2.2912 H       1  LIG1        0.0658
     59 H          -2.1130    3.4991    0.7267 H       1  LIG1        0.0560
     60 H          -2.6897    2.6510    2.1757 H       1  LIG1        0.0560
     61 H          -1.2283    4.2852    2.6851 H       1  LIG1        0.2094
     62 H          -1.2404    2.0680   -1.7410 H       1  LIG1        0.0564
     63 H           0.4426    1.6313   -2.0929 H       1  LIG1        0.0564
     64 H          -4.7653    1.3943   -3.6825 H       1  LIG1        0.0584
     65 H          -3.7067    1.8362   -5.0064 H       1  LIG1        0.0584
     66 H          -4.9009   -0.3130   -5.8568 H       1  LIG1        0.2095
     67 H          -5.0912   -2.7515   -3.9117 H       1  LIG1        0.2100
     68 H          -3.9671   -2.3767   -1.0079 H       1  LIG1        0.2100
     69 H          -0.2254   -2.1807   -4.4961 H       1  LIG1        0.2101
     70 H           1.5741    3.6179    1.0825 H       1  LIG1        0.0658
     71 H           2.0761    6.7609    2.6110 H       1  LIG1        0.0660
     72 H           0.9487    5.4283    2.3831 H       1  LIG1        0.0660
     73 H           2.2946    5.7030    1.2155 H       1  LIG1        0.0660
     74 H           4.9655   -1.2936    4.8566 H       1  LIG1        0.0660
     75 H           4.6413   -1.0637    3.1393 H       1  LIG1        0.0660
     76 H           3.2813   -1.2318    4.3183 H       1  LIG1        0.0660
     77 H           2.7703   -0.2804    2.3159 H       1  LIG1        0.0658
     78 H           4.7234    4.0379    4.3070 H       1  LIG1        0.2924
     79 H           0.5892   -4.1713   -1.0566 H       1  LIG1        0.2924
@<TRIPOS>BOND
     1     1     2    1
     2     2     3    1
     3     3     4   ar
     4     4     5   ar
     5     5     6    1
     6     6     7    1
     7     5     8   ar
     8     8     9    1
     9     9    10    1
    10     9    11    1
    11    11    13    1
    12    13    15    1
    13    15    16    1
    14     8    16   ar
    15    16    17   ar
    16     3    17   ar
    17    18    19    1
    18    20    21    1
    19    21    22    1
    20    22    23    1
    21    22    24    1
    22    24    26    1
    23    26    28    1
    24    28    29    1
    25    28    30    1
    26    30    32    1
    27    22    32    1
    28    33    34    1
    29    28    35    1
    30     9    38    1
    31    38    39   ar
    32    39    40   ar
    33    40    41    1
    34    41    42    1
    35    40    43   ar
    36    43    44   ar
    37    44    45    1
    38    45    46    1
    39    44    47   ar
    40    38    47   ar
    41    43    48    1
    42     4    49    1
    43    11    20    1
    44    11    12    1
    45    13    18    1
    46    13    14    1
    47    24    37    1
    48    24    25    1
    49    26    36    1
    50    26    27    1
    51    30    33    1
    52    30    31    1
    53     1    50    1
    54     1    51    1
    55     1    52    1
    56     7    53    1
    57     7    54    1
    58     7    55    1
    59    15    56    1
    60    15    57    1
    61    17    58    1
    62    18    59    1
    63    18    60    1
    64    19    61    1
    65    20    62    1
    66    20    63    1
    67    33    64    1
    68    33    65    1
    69    34    66    1
    70    35    67    1
    71    36    68    1
    72    37    69    1
    73    39    70    1
    74    42    71    1
    75    42    72    1
    76    42    73    1
    77    46    74    1
    78    46    75    1
    79    46    76    1
    80    47    77    1
    81    48    78    1
    82    49    79    1
