REMARK  Name = NuBBE_1977
REMARK  1 active torsions:
REMARK  status: ('A' for Active; 'I' for Inactive)
REMARK    1  A    between atoms: C_1  and  C_3
REMARK                            x       y       z     vdW  Elec       q    Type
REMARK                         _______ _______ _______ _____ _____    ______ ____
ROOT
ATOM      1  C   LIG A   1      -0.012   0.165   0.878  0.00  0.00    +0.084 C 
ATOM      2  C   LIG A   1       0.687  -1.021   0.179  0.00  0.00    +0.046 C 
ATOM      3  C   LIG A   1       1.448  -0.790  -1.107  0.00  0.00    -0.018 C 
ATOM      4  C   LIG A   1       1.697   0.367  -1.739  0.00  0.00    +0.048 C 
ATOM      5  S   LIG A   1       1.119   1.923  -1.266  0.00  0.00    -0.065 S 
ATOM      6  S   LIG A   1       1.022   1.662   0.768  0.00  0.00    -0.081 S 
ENDROOT
BRANCH   1   7
ATOM      7  C   LIG A   1      -1.407   0.423   0.360  0.00  0.00    -0.019 C 
ATOM      8  C   LIG A   1      -2.507   0.451   1.126  0.00  0.00    +0.005 C 
ENDBRANCH   1   7
TORSDOF 1
