@<TRIPOS>MOLECULE
NuBBE_2457
 53 55 0 0 0
SMALL
GASTEIGER

@<TRIPOS>ATOM
      1 C          -0.9023   -1.4951   -5.3325 C.3     1  LIG1        0.0790
      2 O          -0.9039   -2.1356   -4.0639 O.3     1  LIG1       -0.4914
      3 C          -0.3837   -1.4219   -3.0125 C.ar    1  LIG1        0.1618
      4 C           0.0459   -2.1635   -1.9020 C.ar    1  LIG1        0.1618
      5 O          -0.0602   -3.5295   -1.9998 O.3     1  LIG1       -0.4914
      6 C           0.0676   -4.2790   -0.8002 C.3     1  LIG1        0.0790
      7 C           0.5789   -1.4920   -0.8011 C.ar    1  LIG1       -0.0123
      8 C           0.6513   -0.0838   -0.7544 C.ar    1  LIG1       -0.0328
      9 C           1.2201    0.5850    0.4972 C.3     1  LIG1        0.0149
     10 H           2.2287    0.1453    0.5592 H       1  LIG1        0.0401
     11 C           0.5645    0.1458    1.8152 C.ar    1  LIG1       -0.0359
     12 C           1.3467    0.1015    2.9831 C.ar    1  LIG1       -0.0543
     13 C           0.8341   -0.4242    4.1711 C.ar    1  LIG1       -0.0162
     14 C          -0.4686   -0.9174    4.2018 C.ar    1  LIG1        0.1585
     15 O          -0.9556   -1.4859    5.3486 O.3     1  LIG1       -0.5033
     16 C          -1.2791   -0.8686    3.0631 C.ar    1  LIG1        0.1615
     17 O          -2.5503   -1.3685    3.1820 O.3     1  LIG1       -0.4914
     18 C          -3.1311   -1.8837    1.9892 C.3     1  LIG1        0.0790
     19 C          -0.7661   -0.3074    1.8868 C.ar    1  LIG1       -0.0125
     20 C           1.4145    2.1285    0.3921 C.3     1  LIG1       -0.0018
     21 H           1.3124    2.5892    1.3837 H       1  LIG1        0.0335
     22 C           2.8727    2.4036   -0.0448 C.3     1  LIG1        0.0482
     23 O           3.1455    3.7947   -0.1389 O.3     1  LIG1       -0.3947
     24 C           0.4113    2.8325   -0.5628 C.3     1  LIG1       -0.0081
     25 H           0.7656    3.8595   -0.7270 H       1  LIG1        0.0330
     26 C          -0.9958    2.9905    0.0247 C.3     1  LIG1        0.0477
     27 O          -0.9313    3.8046    1.1889 O.3     1  LIG1       -0.3947
     28 C           0.3605    2.1493   -1.9314 C.3     1  LIG1       -0.0220
     29 C           0.2119    0.6537   -1.8620 C.ar    1  LIG1       -0.0396
     30 C          -0.2970   -0.0250   -2.9839 C.ar    1  LIG1       -0.0128
     31 H          -1.1724   -2.2429   -6.0844 H       1  LIG1        0.0660
     32 H           0.0921   -1.1110   -5.5849 H       1  LIG1        0.0660
     33 H          -1.6545   -0.7010   -5.3726 H       1  LIG1        0.0660
     34 H          -0.1424   -5.3268   -1.0367 H       1  LIG1        0.0660
     35 H          -0.6639   -3.9542   -0.0498 H       1  LIG1        0.0660
     36 H           1.0868   -4.2293   -0.4060 H       1  LIG1        0.0660
     37 H           0.9506   -2.0516    0.0534 H       1  LIG1        0.0658
     38 H           2.3769    0.4520    2.9673 H       1  LIG1        0.0622
     39 H           1.4684   -0.4605    5.0511 H       1  LIG1        0.0655
     40 H          -0.2590   -1.4886    6.0226 H       1  LIG1        0.2923
     41 H          -4.0621   -2.3895    2.2616 H       1  LIG1        0.0660
     42 H          -2.4757   -2.6211    1.5124 H       1  LIG1        0.0660
     43 H          -3.3889   -1.0786    1.2944 H       1  LIG1        0.0660
     44 H          -1.3899   -0.2476    1.0021 H       1  LIG1        0.0658
     45 H           3.5763    1.9808    0.6813 H       1  LIG1        0.0560
     46 H           3.0941    1.9519   -1.0171 H       1  LIG1        0.0560
     47 H           2.9138    4.1992    0.7165 H       1  LIG1        0.2094
     48 H          -1.6489    3.4971   -0.6958 H       1  LIG1        0.0560
     49 H          -1.4545    2.0346    0.2848 H       1  LIG1        0.0560
     50 H          -1.8479    3.9752    1.4681 H       1  LIG1        0.2094
     51 H           1.2843    2.3655   -2.4829 H       1  LIG1        0.0317
     52 H          -0.4590    2.5780   -2.5226 H       1  LIG1        0.0317
     53 H          -0.6319    0.5658   -3.8322 H       1  LIG1        0.0658
@<TRIPOS>BOND
     1     1     2    1
     2     2     3    1
     3     3     4   ar
     4     4     5    1
     5     5     6    1
     6     4     7   ar
     7     7     8   ar
     8     8     9    1
     9     9    10    1
    10     9    11    1
    11    11    12   ar
    12    12    13   ar
    13    13    14   ar
    14    14    15    1
    15    14    16   ar
    16    16    17    1
    17    17    18    1
    18    16    19   ar
    19    11    19   ar
    20     9    20    1
    21    22    23    1
    22    20    24    1
    23    26    27    1
    24    24    28    1
    25     8    29   ar
    26    28    29    1
    27    29    30   ar
    28     3    30   ar
    29    20    22    1
    30    20    21    1
    31    24    26    1
    32    24    25    1
    33     1    31    1
    34     1    32    1
    35     1    33    1
    36     6    34    1
    37     6    35    1
    38     6    36    1
    39     7    37    1
    40    12    38    1
    41    13    39    1
    42    15    40    1
    43    18    41    1
    44    18    42    1
    45    18    43    1
    46    19    44    1
    47    22    45    1
    48    22    46    1
    49    23    47    1
    50    26    48    1
    51    26    49    1
    52    27    50    1
    53    28    51    1
    54    28    52    1
    55    30    53    1
