@<TRIPOS>MOLECULE
NuBBE_41
 33 33 0 0 0
SMALL
GASTEIGER

@<TRIPOS>ATOM
      1 N          -4.1720    1.8642    1.1136 N.pl3   1  LIG1       -0.2517
      2 C          -2.8401    1.9852    0.9373 C.cat   1  LIG1        0.3629
      3 N          -2.3141    3.1424    0.7513 N.2     1  LIG1       -0.1173
      4 C          -0.8633    3.1345    0.5568 C.3     1  LIG1        0.1079
      5 C          -0.2011    2.0863    1.4410 C.3     1  LIG1        0.0195
      6 C          -0.7725    0.6887    1.1401 C.3     1  LIG1        0.0987
      7 C          -0.2463    0.1556   -0.1820 C.2     1  LIG1       -0.0467
      8 C           0.7429   -0.7400   -0.3503 C.2     1  LIG1       -0.0624
      9 C           1.1760   -1.2029   -1.6504 C.2     1  LIG1       -0.0632
     10 C           2.1360   -2.1155   -1.9013 C.2     1  LIG1       -0.0757
     11 C           2.9670   -2.8410   -0.8762 C.3     1  LIG1       -0.0438
     12 C           2.4603   -2.5035   -3.3220 C.3     1  LIG1       -0.0438
     13 C          -0.4755   -0.2461    2.3294 C.3     1  LIG1       -0.0264
     14 N          -2.2199    0.7849    0.9891 N.pl3   1  LIG1       -0.2299
     15 H          -2.7465    0.0716    1.4824 H       1  LIG1        0.2452
     16 H          -4.6172    2.7635    0.9496 H       1  LIG1        0.2412
     17 H          -4.5802    1.1564    0.5144 H       1  LIG1        0.2412
     18 H          -0.4740    4.1235    0.8248 H       1  LIG1        0.0694
     19 H          -0.6308    2.9809   -0.5037 H       1  LIG1        0.0694
     20 H          -0.3943    2.3528    2.4900 H       1  LIG1        0.0335
     21 H           0.8866    2.1072    1.3060 H       1  LIG1        0.0335
     22 H          -0.7392    0.5607   -1.0657 H       1  LIG1        0.0607
     23 H           1.2556   -1.1396    0.5166 H       1  LIG1        0.0616
     24 H           0.6512   -0.7612   -2.4983 H       1  LIG1        0.0617
     25 H           2.7797   -2.5253    0.1518 H       1  LIG1        0.0274
     26 H           4.0320   -2.6765   -1.0725 H       1  LIG1        0.0274
     27 H           2.7707   -3.9171   -0.9295 H       1  LIG1        0.0274
     28 H           1.8663   -1.9465   -4.0539 H       1  LIG1        0.0274
     29 H           2.2646   -3.5699   -3.4757 H       1  LIG1        0.0274
     30 H           3.5165   -2.3093   -3.5361 H       1  LIG1        0.0274
     31 H           0.5983   -0.3195    2.5332 H       1  LIG1        0.0267
     32 H          -0.8584   -1.2579    2.1447 H       1  LIG1        0.0267
     33 H          -0.9584    0.1134    3.2459 H       1  LIG1        0.0267
@<TRIPOS>BOND
     1     1     2    1
     2     2     3    2
     3     3     4    1
     4     4     5    1
     5     5     6    1
     6     6     7    1
     7     7     8    2
     8     8     9    1
     9     9    10    2
    10    10    11    1
    11    10    12    1
    12     6    13    1
    13     6    14    1
    14     2    14    1
    15    14    15    1
    16     1    16    1
    17     1    17    1
    18     4    18    1
    19     4    19    1
    20     5    20    1
    21     5    21    1
    22     7    22    1
    23     8    23    1
    24     9    24    1
    25    11    25    1
    26    11    26    1
    27    11    27    1
    28    12    28    1
    29    12    29    1
    30    12    30    1
    31    13    31    1
    32    13    32    1
    33    13    33    1
