REMARK  Name = NuBBE_2334
REMARK  5 active torsions:
REMARK  status: ('A' for Active; 'I' for Inactive)
REMARK    1  A    between atoms: C_1  and  C_2
REMARK    2  A    between atoms: C_6  and  C_7
REMARK    3  A    between atoms: C_6  and  O_8
REMARK    4  A    between atoms: C_12  and  C_14
REMARK    5  A    between atoms: C_14  and  C_15
REMARK                            x       y       z     vdW  Elec       q    Type
REMARK                         _______ _______ _______ _____ _____    ______ ____
ROOT
ATOM      1  C   LIG A   1       0.523  -1.062  -1.913  0.00  0.00    +0.011 C 
ATOM      2  C   LIG A   1       0.974  -0.949  -0.438  0.00  0.00    -0.027 C 
ATOM      3  C   LIG A   1       1.516  -2.325   0.024  0.00  0.00    +0.007 C 
ATOM      4  C   LIG A   1       0.416  -3.368   0.231  0.00  0.00    +0.003 C 
ATOM      5  C   LIG A   1      -0.649  -2.881   1.205  0.00  0.00    +0.035 C 
ATOM      6  C   LIG A   1      -1.265  -1.520   0.828  0.00  0.00    +0.067 C 
ATOM      7  C   LIG A   1      -2.318  -1.663  -0.275  0.00  0.00    +0.041 C 
ATOM      8  C   LIG A   1      -0.139  -0.485   0.551  0.00  0.00    +0.027 C 
ATOM      9  C   LIG A   1      -0.652   0.935   0.225  0.00  0.00    +0.014 C 
ATOM     10  C   LIG A   1       0.497   1.965   0.233  0.00  0.00    +0.015 C 
ATOM     11  C   LIG A   1       1.650   1.516  -0.689  0.00  0.00    +0.008 C 
ATOM     12  C   LIG A   1       2.123   0.094  -0.368  0.00  0.00    +0.007 C 
ENDROOT
BRANCH  10  13
ATOM     13  C   LIG A   1      -0.033   3.373  -0.038  0.00  0.00    -0.077 C 
ATOM     14  C   LIG A   1      -0.690   4.052   1.139  0.00  0.00    +0.038 C 
ATOM     15  C   LIG A   1       0.070   4.020  -1.212  0.00  0.00    +0.007 C 
ENDBRANCH  10  13
BRANCH   6  16
ATOM     16  O   LIG A   1      -1.978  -1.054   1.991  0.00  0.00    -0.389 OA
ATOM     17  H   LIG A   1      -2.643  -1.724   2.225  0.00  0.00    +0.210 HD
ENDBRANCH   6  16
TORSDOF 2
