REMARK  Name = NuBBE_319
REMARK  18 active torsions:
REMARK  status: ('A' for Active; 'I' for Inactive)
REMARK    1  A    between atoms: C_1  and  O_2
REMARK    2  A    between atoms: O_2  and  C_3
REMARK    3  A    between atoms: C_6  and  C_7
REMARK    4  A    between atoms: C_11  and  O_30
REMARK    5  A    between atoms: C_13  and  O_14
REMARK    6  A    between atoms: O_14  and  C_15
REMARK    7  A    between atoms: C_17  and  O_29
REMARK    8  A    between atoms: C_19  and  O_28
REMARK    9  A    between atoms: C_21  and  O_27
REMARK   10  A    between atoms: C_23  and  C_26
REMARK   11  A    between atoms: O_30  and  C_31
REMARK   12  A    between atoms: C_31  and  C_32
REMARK   13  A    between atoms: C_37  and  O_38
REMARK   14  A    between atoms: O_38  and  C_39
REMARK   15  A    between atoms: C_41  and  O_53
REMARK   16  A    between atoms: C_43  and  O_52
REMARK   17  A    between atoms: C_45  and  O_51
REMARK   18  A    between atoms: C_47  and  C_50
REMARK                            x       y       z     vdW  Elec       q    Type
REMARK                         _______ _______ _______ _____ _____    ______ ____
ROOT
ATOM      1  C   LIG A   1      -1.429  -0.569   0.948  0.00  0.00    +0.181 A 
ATOM      2  O   LIG A   1      -0.667   0.509   1.417  0.00  0.00    -0.451 OA
ATOM      3  C   LIG A   1       0.374   0.984   0.636  0.00  0.00    +0.147 A 
ATOM      4  C   LIG A   1       1.028   2.094   1.173  0.00  0.00    +0.093 A 
ATOM      5  C   LIG A   1       1.703   2.876   0.274  0.00  0.00    +0.139 A 
ATOM      6  C   LIG A   1       1.835   2.398  -1.017  0.00  0.00    +0.093 A 
ATOM      7  C   LIG A   1       1.440   1.210  -1.571  0.00  0.00    +0.142 A 
ATOM      8  C   LIG A   1       0.560   0.555  -0.711  0.00  0.00    +0.110 A 
ATOM      9  C   LIG A   1      -0.663  -0.122  -1.159  0.00  0.00    +0.238 A 
ATOM     10  O   LIG A   1      -1.405   0.523  -1.907  0.00  0.00    -0.283 OA
ATOM     11  C   LIG A   1      -1.099  -1.242  -0.196  0.00  0.00    +0.214 A 
ENDROOT
BRANCH   1  15
ATOM     12  C   LIG A   1      -4.785  -1.763   3.433  0.00  0.00    +0.120 A 
ATOM     13  C   LIG A   1      -4.706  -0.467   2.918  0.00  0.00    +0.046 A 
ATOM     14  C   LIG A   1      -3.569   0.012   2.208  0.00  0.00    +0.015 A 
ATOM     15  C   LIG A   1      -2.564  -0.856   1.851  0.00  0.00    +0.021 A 
ATOM     16  C   LIG A   1      -2.857  -2.142   2.177  0.00  0.00    +0.015 A 
ATOM     17  C   LIG A   1      -3.786  -2.606   3.097  0.00  0.00    +0.046 A 
BRANCH  12  19
ATOM     18  C   LIG A   1      -5.863  -3.301   4.893  0.00  0.00    +0.277 C 
ATOM     19  O   LIG A   1      -5.959  -2.257   3.917  0.00  0.00    -0.495 OA
ENDBRANCH  12  19
ENDBRANCH   1  15
BRANCH   7  20
ATOM     20  O   LIG A   1       1.838   0.776  -2.808  0.00  0.00    -0.460 OA
BRANCH  20  21
ATOM     21  C   LIG A   1       2.495   1.492  -3.954  0.00  0.00    +0.339 C 
ATOM     22  C   LIG A   1       1.462   2.248  -4.804  0.00  0.00    +0.214 C 
ATOM     23  C   LIG A   1       0.999   3.420  -3.989  0.00  0.00    +0.180 C 
ATOM     24  C   LIG A   1       2.199   4.314  -3.473  0.00  0.00    +0.174 C 
ATOM     25  C   LIG A   1       3.632   3.493  -3.141  0.00  0.00    +0.150 C 
ATOM     26  O   LIG A   1       3.726   2.260  -3.859  0.00  0.00    -0.334 OA
ATOM     27  C   LIG A   1       4.984   4.289  -3.056  0.00  0.00    +0.040 C 
BRANCH  24  28
ATOM     28  O   LIG A   1       1.575   4.935  -2.312  0.00  0.00    -0.387 OA
ATOM     29  H   LIG A   1       1.571   5.902  -2.384  0.00  0.00    +0.210 HD
ENDBRANCH  24  28
BRANCH  23  30
ATOM     30  O   LIG A   1       0.049   4.183  -4.768  0.00  0.00    -0.386 OA
ATOM     31  H   LIG A   1      -0.825   3.769  -4.603  0.00  0.00    +0.210 HD
ENDBRANCH  23  30
BRANCH  22  32
ATOM     32  O   LIG A   1       1.947   2.773  -6.050  0.00  0.00    -0.383 OA
ATOM     33  H   LIG A   1       1.301   3.476  -6.286  0.00  0.00    +0.210 HD
ENDBRANCH  22  32
ENDBRANCH  20  21
ENDBRANCH   7  20
BRANCH   5  34
ATOM     34  O   LIG A   1       2.056   4.202   0.565  0.00  0.00    -0.426 OA
BRANCH  34  35
ATOM     35  C   LIG A   1       3.212   4.718   0.004  0.00  0.00    +0.309 C 
ATOM     36  C   LIG A   1       3.057   6.242  -0.182  0.00  0.00    +0.136 C 
ATOM     37  O   LIG A   1       4.160   4.119  -0.236  0.00  0.00    -0.251 OA
ENDBRANCH  34  35
ENDBRANCH   5  34
BRANCH  11  38
ATOM     38  O   LIG A   1      -1.502  -2.500  -0.645  0.00  0.00    -0.453 OA
BRANCH  38  39
ATOM     39  C   LIG A   1      -1.046  -3.892  -0.205  0.00  0.00    +0.340 C 
ATOM     40  C   LIG A   1       0.420  -4.296   0.253  0.00  0.00    +0.214 C 
ATOM     41  C   LIG A   1       0.671  -3.650   1.586  0.00  0.00    +0.180 C 
ATOM     42  C   LIG A   1      -0.368  -4.125   2.597  0.00  0.00    +0.174 C 
ATOM     43  C   LIG A   1      -1.627  -4.888   2.001  0.00  0.00    +0.150 C 
ATOM     44  O   LIG A   1      -1.992  -4.646   0.621  0.00  0.00    -0.334 OA
ATOM     45  C   LIG A   1      -2.015  -6.289   2.525  0.00  0.00    +0.040 C 
BRANCH  42  46
ATOM     46  O   LIG A   1      -0.624  -2.841   3.183  0.00  0.00    -0.387 OA
ATOM     47  H   LIG A   1      -1.439  -2.912   3.692  0.00  0.00    +0.210 HD
ENDBRANCH  42  46
BRANCH  41  48
ATOM     48  O   LIG A   1       1.954  -3.850   2.188  0.00  0.00    -0.386 OA
ATOM     49  H   LIG A   1       1.975  -3.168   2.900  0.00  0.00    +0.210 HD
ENDBRANCH  41  48
BRANCH  40  50
ATOM     50  O   LIG A   1       0.544  -5.730   0.485  0.00  0.00    -0.383 OA
ATOM     51  H   LIG A   1       1.085  -5.851   1.296  0.00  0.00    +0.210 HD
ENDBRANCH  40  50
ENDBRANCH  38  39
ENDBRANCH  11  38
TORSDOF 14
