@<TRIPOS>MOLECULE
NuBBE_1893
 42 45 0 0 0
SMALL
GASTEIGER

@<TRIPOS>ATOM
      1 C          -0.3157   -3.1827    2.8180 C.3     1  LIG1        0.0788
      2 O          -0.4237   -2.3515    1.6629 O.3     1  LIG1       -0.4944
      3 C          -0.3976   -2.9880    0.4440 C.ar    1  LIG1        0.1317
      4 C          -0.4998   -2.1584   -0.7095 C.ar    1  LIG1        0.0341
      5 C          -0.6116   -0.6906   -0.5973 C.ar    1  LIG1        0.0679
      6 C          -1.8017   -0.0860   -0.5028 C.ar    1  LIG1        0.1040
      7 O          -2.0214    1.2687   -0.3819 O.2     1  LIG1       -0.4620
      8 C          -0.9264    2.0757   -0.1898 C.ar    1  LIG1        0.1421
      9 C          -1.1616    3.4196    0.1074 C.ar    1  LIG1        0.0267
     10 C          -0.0851    4.2833    0.3571 C.ar    1  LIG1        0.1650
     11 O          -0.2093    5.6143    0.6713 O.3     1  LIG1       -0.4913
     12 C          -1.5195    6.1567    0.7591 C.3     1  LIG1        0.0790
     13 C           1.2321    3.7804    0.3070 C.ar    1  LIG1        0.1624
     14 O           2.2494    4.6682    0.5671 O.3     1  LIG1       -0.4914
     15 C           3.4201    4.1110    1.1599 C.3     1  LIG1        0.0790
     16 C           1.4601    2.4448   -0.0378 C.ar    1  LIG1       -0.0019
     17 C           0.3766    1.5951   -0.2734 C.ar    1  LIG1        0.0682
     18 C           0.5970    0.1750   -0.6020 C.ar    1  LIG1        0.2004
     19 O           1.7185   -0.2475   -0.8597 O.2     1  LIG1       -0.2864
     20 C          -0.4931   -2.7349   -1.9927 C.ar    1  LIG1       -0.0047
     21 C          -0.3838   -4.1057   -2.0905 C.ar    1  LIG1        0.1670
     22 C          -0.2787   -4.9006   -0.9774 C.ar    1  LIG1        0.1697
     23 O          -0.1793   -6.2221   -1.2844 O.3     1  LIG1       -0.4525
     24 C          -0.2397   -6.1693   -2.7237 C.3     1  LIG1        0.2332
     25 O          -0.3671   -4.8278   -3.2422 O.3     1  LIG1       -0.4526
     26 C          -0.2817   -4.3781    0.2968 C.ar    1  LIG1        0.0262
     27 H          -0.3312   -2.5390    3.7020 H       1  LIG1        0.0660
     28 H           0.6317   -3.7321    2.8251 H       1  LIG1        0.0660
     29 H          -1.1687   -3.8661    2.8896 H       1  LIG1        0.0660
     30 H          -2.7465   -0.6130   -0.5051 H       1  LIG1        0.1037
     31 H          -2.1886    3.7647    0.1501 H       1  LIG1        0.0692
     32 H          -2.0756    5.7050    1.5874 H       1  LIG1        0.0660
     33 H          -2.0604    6.0499   -0.1863 H       1  LIG1        0.0660
     34 H          -1.4250    7.2276    0.9652 H       1  LIG1        0.0660
     35 H           4.0656    4.9381    1.4718 H       1  LIG1        0.0660
     36 H           3.9842    3.5126    0.4381 H       1  LIG1        0.0660
     37 H           3.1742    3.5233    2.0514 H       1  LIG1        0.0660
     38 H           2.4651    2.0451   -0.1314 H       1  LIG1        0.0663
     39 H          -0.5593   -2.1266   -2.8892 H       1  LIG1        0.0663
     40 H          -1.1019   -6.7586   -3.0565 H       1  LIG1        0.1166
     41 H           0.6726   -6.6209   -3.1301 H       1  LIG1        0.1166
     42 H          -0.1936   -5.0598    1.1326 H       1  LIG1        0.0692
@<TRIPOS>BOND
     1     1     2    1
     2     2     3    1
     3     3     4   ar
     4     4     5    1
     5     5     6   ar
     6     6     7   ar
     7     7     8   ar
     8     8     9   ar
     9     9    10   ar
    10    10    11    1
    11    11    12    1
    12    10    13   ar
    13    13    14    1
    14    14    15    1
    15    13    16   ar
    16     8    17   ar
    17    16    17   ar
    18    17    18   ar
    19     5    18   ar
    20    18    19    2
    21     4    20   ar
    22    20    21   ar
    23    21    22   ar
    24    22    23    1
    25    23    24    1
    26    24    25    1
    27    21    25    1
    28    22    26   ar
    29     3    26   ar
    30     1    27    1
    31     1    28    1
    32     1    29    1
    33     6    30    1
    34     9    31    1
    35    12    32    1
    36    12    33    1
    37    12    34    1
    38    15    35    1
    39    15    36    1
    40    15    37    1
    41    16    38    1
    42    20    39    1
    43    24    40    1
    44    24    41    1
    45    26    42    1
