REMARK  Name = NuBBE_355
REMARK  3 active torsions:
REMARK  status: ('A' for Active; 'I' for Inactive)
REMARK    1  A    between atoms: O_1  and  C_2
REMARK    2  A    between atoms: C_4  and  O_5
REMARK    3  A    between atoms: C_9  and  C_11
REMARK                            x       y       z     vdW  Elec       q    Type
REMARK                         _______ _______ _______ _____ _____    ______ ____
ROOT
ATOM      1  C   LIG A   1      -3.446  -1.841   0.322  0.00  0.00    +0.124 A 
ATOM      2  C   LIG A   1      -2.823  -3.078   0.450  0.00  0.00    +0.091 A 
ATOM      3  C   LIG A   1      -1.429  -3.154   0.366  0.00  0.00    +0.134 A 
ATOM      4  C   LIG A   1      -0.662  -1.997   0.162  0.00  0.00    +0.101 A 
ATOM      5  C   LIG A   1       0.818  -2.014   0.007  0.00  0.00    +0.174 C 
ATOM      6  C   LIG A   1       1.456  -0.713  -0.393  0.00  0.00    +0.129 C 
ATOM      7  C   LIG A   1       0.705   0.410   0.299  0.00  0.00    +0.211 C 
ATOM      8  O   LIG A   1      -0.664   0.434  -0.130  0.00  0.00    -0.483 OA
ATOM      9  O   LIG A   1       1.497  -3.026   0.140  0.00  0.00    -0.292 OA
ATOM     10  C   LIG A   1      -1.311  -0.760   0.060  0.00  0.00    +0.139 A 
ATOM     11  C   LIG A   1      -2.703  -0.684   0.123  0.00  0.00    +0.092 A 
ENDROOT
BRANCH   7  12
ATOM     12  C   LIG A   1       1.346   1.750  -0.012  0.00  0.00    -0.007 A 
ATOM     13  C   LIG A   1       1.047   2.449  -1.193  0.00  0.00    +0.007 A 
ATOM     14  C   LIG A   1       1.668   3.667  -1.476  0.00  0.00    +0.000 A 
ATOM     15  C   LIG A   1       2.599   4.199  -0.587  0.00  0.00    +0.000 A 
ATOM     16  C   LIG A   1       2.911   3.514   0.585  0.00  0.00    +0.000 A 
ATOM     17  C   LIG A   1       2.291   2.296   0.871  0.00  0.00    +0.007 A 
ENDBRANCH   7  12
BRANCH   1  18
ATOM     18  O   LIG A   1      -4.803  -1.716   0.386  0.00  0.00    -0.506 OA
ATOM     19  H   LIG A   1      -5.203  -2.591   0.520  0.00  0.00    +0.292 HD
ENDBRANCH   1  18
BRANCH   3  20
ATOM     20  O   LIG A   1      -0.831  -4.377   0.476  0.00  0.00    -0.506 OA
ATOM     21  H   LIG A   1      -1.491  -5.076   0.604  0.00  0.00    +0.292 HD
ENDBRANCH   3  20
TORSDOF 3
