REMARK  Name = NuBBE_1808
REMARK  15 active torsions:
REMARK  status: ('A' for Active; 'I' for Inactive)
REMARK    1  A    between atoms: C_1  and  C_2
REMARK    2  A    between atoms: C_2  and  C_3
REMARK    3  A    between atoms: C_3  and  C_4
REMARK    4  A    between atoms: C_4  and  C_5
REMARK    5  A    between atoms: C_4  and  C_6
REMARK    6  A    between atoms: C_6  and  C_7
REMARK    7  A    between atoms: C_7  and  C_8
REMARK    8  A    between atoms: C_8  and  C_9
REMARK    9  A    between atoms: C_9  and  C_10
REMARK   10  A    between atoms: C_10  and  C_11
REMARK   11  A    between atoms: C_11  and  C_12
REMARK   12  A    between atoms: C_12  and  C_13
REMARK   13  A    between atoms: C_13  and  C_14
REMARK   14  A    between atoms: C_14  and  C_15
REMARK   15  A    between atoms: C_15  and  C_16
REMARK                            x       y       z     vdW  Elec       q    Type
REMARK                         _______ _______ _______ _____ _____    ______ ____
ROOT
ATOM      1  C   LIG A   1       2.059  -2.811  -0.777  0.00  0.00    -0.000 C 
ENDROOT
BRANCH   1   2
ATOM      2  C   LIG A   1       0.929  -3.229   0.231  0.00  0.00    +0.000 C 
BRANCH   2   3
ATOM      3  C   LIG A   1      -0.207  -2.259   0.487  0.00  0.00    +0.000 C 
BRANCH   3   4
ATOM      4  C   LIG A   1       0.396  -1.248   1.377  0.00  0.00    +0.003 C 
BRANCH   4   5
ATOM      5  C   LIG A   1      -0.349   0.057   1.316  0.00  0.00    -0.014 C 
ATOM      6  C   LIG A   1      -1.419  -0.122   2.626  0.00  0.00    +0.007 C 
BRANCH   5   7
ATOM      7  C   LIG A   1      -0.726   0.658  -0.502  0.00  0.00    +0.003 C 
BRANCH   7   9
ATOM      8  C   LIG A   1       0.414   0.677  -2.639  0.00  0.00    +0.004 C 
ATOM      9  C   LIG A   1      -0.481   1.535  -1.881  0.00  0.00    -0.003 C 
ENDBRANCH   7   9
ENDBRANCH   5   7
ENDBRANCH   4   5
ENDBRANCH   3   4
ENDBRANCH   2   3
ENDBRANCH   1   2
BRANCH   1  10
ATOM     10  C   LIG A   1       3.125  -1.657  -0.482  0.00  0.00    -0.000 C 
BRANCH  10  11
ATOM     11  C   LIG A   1       2.827  -0.136  -0.759  0.00  0.00    -0.000 C 
BRANCH  11  12
ATOM     12  C   LIG A   1       1.850   0.579   0.200  0.00  0.00    +0.000 C 
BRANCH  12  13
ATOM     13  C   LIG A   1       1.071   2.042   0.378  0.00  0.00    +0.000 C 
BRANCH  13  14
ATOM     14  C   LIG A   1      -0.684   2.347   1.154  0.00  0.00    +0.004 C 
BRANCH  14  15
ATOM     15  C   LIG A   1      -2.396   1.417   0.848  0.00  0.00    +0.026 C 
BRANCH  15  16
ATOM     16  C   LIG A   1      -3.003   0.979  -0.509  0.00  0.00    -0.035 C 
ATOM     17  C   LIG A   1      -4.337   1.434  -0.804  0.00  0.00    +0.004 C 
ENDBRANCH  15  16
ENDBRANCH  14  15
ENDBRANCH  13  14
ENDBRANCH  12  13
ENDBRANCH  11  12
ENDBRANCH  10  11
ENDBRANCH   1  10
TORSDOF 13
