REMARK  Name = NuBBE_304
REMARK  16 active torsions:
REMARK  status: ('A' for Active; 'I' for Inactive)
REMARK    1  A    between atoms: C_3  and  C_5
REMARK    2  A    between atoms: C_6  and  O_8
REMARK    3  A    between atoms: C_11  and  C_13
REMARK    4  A    between atoms: C_13  and  C_14
REMARK    5  A    between atoms: C_14  and  C_15
REMARK    6  A    between atoms: C_15  and  C_16
REMARK    7  A    between atoms: C_16  and  C_17
REMARK    8  A    between atoms: C_17  and  C_18
REMARK    9  A    between atoms: C_18  and  C_19
REMARK   10  A    between atoms: C_19  and  C_20
REMARK   11  A    between atoms: C_20  and  C_21
REMARK   12  A    between atoms: C_21  and  C_22
REMARK   13  A    between atoms: C_22  and  C_23
REMARK   14  A    between atoms: C_23  and  C_24
REMARK   15  A    between atoms: C_24  and  C_25
REMARK   16  A    between atoms: C_25  and  C_26
REMARK                            x       y       z     vdW  Elec       q    Type
REMARK                         _______ _______ _______ _____ _____    ______ ____
ROOT
ATOM      1  C   LIG A   1       0.454   1.744  -3.592  0.00  0.00    +0.000 C 
ENDROOT
BRANCH   1   2
ATOM      2  C   LIG A   1       0.040   2.288  -2.209  0.00  0.00    +0.002 C 
BRANCH   2   3
ATOM      3  C   LIG A   1      -1.081   3.351  -2.269  0.00  0.00    +0.019 C 
BRANCH   3  11
ATOM      4  H   LIG A   1      -2.883   4.964  -2.027  0.00  0.00    +0.122 HD
ATOM      5  N   LIG A   1      -2.425   5.046  -1.121  0.00  0.00    -0.308 NA
ATOM      6  C   LIG A   1      -3.410   5.362  -0.084  0.00  0.00    +0.079 C 
ATOM      7  C   LIG A   1      -2.776   6.153   1.065  0.00  0.00    +0.026 C 
ATOM      8  C   LIG A   1      -4.202   4.124   0.373  0.00  0.00    +0.131 C 
ATOM      9  C   LIG A   1      -3.280   3.047   0.916  0.00  0.00    +0.034 C 
ATOM     10  C   LIG A   1      -2.098   2.746  -0.001  0.00  0.00    +0.021 C 
ATOM     11  C   LIG A   1      -1.538   3.897  -0.872  0.00  0.00    +0.054 C 
BRANCH   8  12
ATOM     12  O   LIG A   1      -5.161   4.448   1.379  0.00  0.00    -0.390 OA
ATOM     13  H   LIG A   1      -5.785   5.088   0.994  0.00  0.00    +0.210 HD
ENDBRANCH   8  12
ENDBRANCH   3  11
ENDBRANCH   2   3
ENDBRANCH   1   2
BRANCH   1  14
ATOM     14  C   LIG A   1       1.613   0.715  -3.576  0.00  0.00    -0.000 C 
BRANCH  14  15
ATOM     15  C   LIG A   1       1.360  -0.583  -2.788  0.00  0.00    -0.000 C 
BRANCH  15  16
ATOM     16  C   LIG A   1       2.603  -1.504  -2.744  0.00  0.00    -0.000 C 
BRANCH  16  17
ATOM     17  C   LIG A   1       2.389  -2.831  -1.974  0.00  0.00    -0.000 C 
BRANCH  17  18
ATOM     18  C   LIG A   1       2.096  -2.558  -0.497  0.00  0.00    -0.000 C 
BRANCH  18  19
ATOM     19  C   LIG A   1       1.898  -3.773   0.416  0.00  0.00    +0.000 C 
BRANCH  19  20
ATOM     20  C   LIG A   1       1.842  -3.276   1.874  0.00  0.00    +0.000 C 
BRANCH  20  21
ATOM     21  C   LIG A   1       1.314  -4.285   2.897  0.00  0.00    +0.007 C 
BRANCH  21  22
ATOM     22  C   LIG A   1       2.098  -5.592   2.930  0.00  0.00    +0.074 C 
BRANCH  22  23
ATOM     23  C   LIG A   1       1.568  -6.561   3.953  0.00  0.00    +0.130 C 
ATOM     24  C   LIG A   1       2.005  -6.388   5.381  0.00  0.00    +0.086 C 
ATOM     25  O   LIG A   1       0.759  -7.464   3.633  0.00  0.00    -0.298 OA
ENDBRANCH  22  23
ENDBRANCH  21  22
ENDBRANCH  20  21
ENDBRANCH  19  20
ENDBRANCH  18  19
ENDBRANCH  17  18
ENDBRANCH  16  17
ENDBRANCH  15  16
ENDBRANCH  14  15
ENDBRANCH   1  14
TORSDOF 14
