@<TRIPOS>MOLECULE
NuBBE_1217
 47 49 0 0 0
SMALL
GASTEIGER

@<TRIPOS>ATOM
      1 O          -3.6494    0.2307    0.4215 O.2     1  LIG1       -0.2869
      2 C          -2.4181    0.2489    0.4507 C.ar    1  LIG1        0.1967
      3 C          -1.6954   -1.0326    0.4908 C.ar    1  LIG1        0.0288
      4 C          -0.3632   -1.0324    0.3712 C.ar    1  LIG1        0.1393
      5 O           0.4000    0.1047    0.2332 O.2     1  LIG1       -0.4543
      6 C          -0.2238    1.3208    0.2700 C.ar    1  LIG1        0.1465
      7 C          -1.6010    1.4787    0.3965 C.ar    1  LIG1        0.1093
      8 C          -2.1237    2.7748    0.4732 C.ar    1  LIG1        0.1795
      9 O          -3.4454    2.9688    0.7941 O.3     1  LIG1       -0.4905
     10 C          -4.2635    3.1676   -0.3570 C.3     1  LIG1        0.0790
     11 C          -1.2684    3.9026    0.3880 C.ar    1  LIG1        0.2045
     12 O          -1.8980    5.1192    0.5232 O.3     1  LIG1       -0.4885
     13 C          -1.3313    6.2255   -0.1682 C.3     1  LIG1        0.0791
     14 C           0.1239    3.7178    0.2532 C.ar    1  LIG1        0.1687
     15 O           0.9414    4.8156    0.2630 O.3     1  LIG1       -0.4912
     16 C           2.2889    4.6476   -0.1631 C.3     1  LIG1        0.0790
     17 C           0.6305    2.4195    0.2021 C.ar    1  LIG1        0.0270
     18 C           0.4306   -2.2657    0.3626 C.ar    1  LIG1        0.0211
     19 C           1.6637   -2.2847    1.0147 C.ar    1  LIG1       -0.0474
     20 C           2.4636   -3.4193    0.9743 C.ar    1  LIG1       -0.0156
     21 C           2.0565   -4.5657    0.2810 C.ar    1  LIG1        0.1615
     22 C           0.8181   -4.5546   -0.3947 C.ar    1  LIG1        0.1622
     23 O           0.4260   -5.6911   -1.0634 O.3     1  LIG1       -0.4914
     24 C          -0.5037   -5.5003   -2.1322 C.3     1  LIG1        0.0790
     25 C           0.0168   -3.4048   -0.3389 C.ar    1  LIG1       -0.0056
     26 O           2.8327   -5.7008    0.2171 O.3     1  LIG1       -0.4915
     27 C           4.0624   -5.6470    0.9442 C.3     1  LIG1        0.0790
     28 H          -2.2949   -1.9277    0.5988 H       1  LIG1        0.0693
     29 H          -4.8704    2.2733   -0.5290 H       1  LIG1        0.0660
     30 H          -3.7006    3.4042   -1.2666 H       1  LIG1        0.0660
     31 H          -4.9466    3.9956   -0.1442 H       1  LIG1        0.0660
     32 H          -2.0713    7.0314   -0.1654 H       1  LIG1        0.0660
     33 H          -1.1082    5.9799   -1.2124 H       1  LIG1        0.0660
     34 H          -0.4532    6.6176    0.3514 H       1  LIG1        0.0660
     35 H           2.7443    5.6401   -0.2256 H       1  LIG1        0.0660
     36 H           2.3348    4.1945   -1.1593 H       1  LIG1        0.0660
     37 H           2.8648    4.0661    0.5643 H       1  LIG1        0.0660
     38 H           1.6964    2.2214    0.1464 H       1  LIG1        0.0692
     39 H           2.0227   -1.4181    1.5654 H       1  LIG1        0.0626
     40 H           3.4103   -3.3638    1.4992 H       1  LIG1        0.0655
     41 H          -0.5737   -6.4352   -2.6961 H       1  LIG1        0.0660
     42 H          -0.1596   -4.7206   -2.8216 H       1  LIG1        0.0660
     43 H          -1.5100   -5.2711   -1.7612 H       1  LIG1        0.0660
     44 H          -0.9403   -3.3757   -0.8486 H       1  LIG1        0.0662
     45 H           4.5835   -6.6019    0.8422 H       1  LIG1        0.0660
     46 H           3.8785   -5.4852    2.0137 H       1  LIG1        0.0660
     47 H           4.7231   -4.8687    0.5417 H       1  LIG1        0.0660
@<TRIPOS>BOND
     1     1     2    2
     2     2     3   ar
     3     3     4   ar
     4     4     5   ar
     5     5     6   ar
     6     6     7   ar
     7     2     7   ar
     8     7     8   ar
     9     8     9    1
    10     9    10    1
    11     8    11   ar
    12    11    12    1
    13    12    13    1
    14    11    14   ar
    15    14    15    1
    16    15    16    1
    17    14    17   ar
    18     6    17   ar
    19     4    18    1
    20    18    19   ar
    21    19    20   ar
    22    20    21   ar
    23    21    22   ar
    24    22    23    1
    25    23    24    1
    26    22    25   ar
    27    18    25   ar
    28    21    26    1
    29    26    27    1
    30     3    28    1
    31    10    29    1
    32    10    30    1
    33    10    31    1
    34    13    32    1
    35    13    33    1
    36    13    34    1
    37    16    35    1
    38    16    36    1
    39    16    37    1
    40    17    38    1
    41    19    39    1
    42    20    40    1
    43    24    41    1
    44    24    42    1
    45    24    43    1
    46    25    44    1
    47    27    45    1
    48    27    46    1
    49    27    47    1
