@<TRIPOS>MOLECULE
NuBBE_1559
 34 36 0 0 0
SMALL
GASTEIGER

@<TRIPOS>ATOM
      1 O          -1.2647    1.2946    0.2632 O.2     1  LIG1       -0.2863
      2 C          -0.0440    1.2367    0.1463 C.ar    1  LIG1        0.2038
      3 C           0.6949   -0.0528    0.0059 C.ar    1  LIG1        0.0679
      4 C           2.0285    0.0605   -0.1248 C.ar    1  LIG1        0.1040
      5 O           2.7759    1.2144   -0.1129 O.2     1  LIG1       -0.4618
      6 C           2.1129    2.4067    0.0066 C.ar    1  LIG1        0.1454
      7 C           0.7294    2.4857    0.1225 C.ar    1  LIG1        0.1060
      8 C           0.1080    3.7382    0.2098 C.ar    1  LIG1        0.1347
      9 O          -1.2476    3.8986    0.3142 O.3     1  LIG1       -0.5058
     10 C           0.8685    4.9047    0.1886 C.ar    1  LIG1        0.0223
     11 C           2.2526    4.8085    0.0863 C.ar    1  LIG1        0.1239
     12 C           2.8818    3.5700   -0.0025 C.ar    1  LIG1        0.0231
     13 O           3.0388    5.9219    0.0641 O.3     1  LIG1       -0.5065
     14 C           0.0207   -1.3814    0.0145 C.ar    1  LIG1        0.0304
     15 C          -1.2586   -1.6222   -0.5167 C.ar    1  LIG1        0.1282
     16 O          -2.0213   -0.6722   -1.1423 O.3     1  LIG1       -0.5060
     17 C          -1.8575   -2.8846   -0.4691 C.ar    1  LIG1        0.0221
     18 C          -1.1921   -3.9612    0.1046 C.ar    1  LIG1        0.1236
     19 C           0.0828   -3.7601    0.6258 C.ar    1  LIG1       -0.0191
     20 C           0.6755   -2.4895    0.5917 C.ar    1  LIG1       -0.0469
     21 O          -1.6813   -5.2338    0.2111 O.3     1  LIG1       -0.4950
     22 C          -2.9989   -5.4384   -0.2908 C.3     1  LIG1        0.0788
     23 H           2.7034   -0.7775   -0.2564 H       1  LIG1        0.1037
     24 H          -1.6619    3.0075    0.3343 H       1  LIG1        0.2922
     25 H           0.3677    5.8656    0.2530 H       1  LIG1        0.0691
     26 H           3.9637    3.5150   -0.0836 H       1  LIG1        0.0691
     27 H           2.4693    6.7089    0.1102 H       1  LIG1        0.2921
     28 H          -1.9432    0.1567   -0.6254 H       1  LIG1        0.2922
     29 H          -2.8542   -2.9813   -0.8858 H       1  LIG1        0.0691
     30 H           0.6216   -4.5945    1.0697 H       1  LIG1        0.0654
     31 H           1.6635   -2.3907    1.0369 H       1  LIG1        0.0626
     32 H          -3.2583   -6.4910   -0.1480 H       1  LIG1        0.0660
     33 H          -3.0482   -5.2264   -1.3645 H       1  LIG1        0.0660
     34 H          -3.7277   -4.8365    0.2637 H       1  LIG1        0.0660
@<TRIPOS>BOND
     1     1     2    2
     2     2     3   ar
     3     3     4   ar
     4     4     5   ar
     5     5     6   ar
     6     6     7   ar
     7     2     7   ar
     8     7     8   ar
     9     8     9    1
    10     8    10   ar
    11    10    11   ar
    12    11    12   ar
    13     6    12   ar
    14    11    13    1
    15     3    14    1
    16    14    15   ar
    17    15    16    1
    18    15    17   ar
    19    17    18   ar
    20    18    19   ar
    21    19    20   ar
    22    14    20   ar
    23    18    21    1
    24    21    22    1
    25     4    23    1
    26     9    24    1
    27    10    25    1
    28    12    26    1
    29    13    27    1
    30    16    28    1
    31    17    29    1
    32    19    30    1
    33    20    31    1
    34    22    32    1
    35    22    33    1
    36    22    34    1
