@<TRIPOS>MOLECULE
NuBBE_1040
 79 82 0 0 0
SMALL
GASTEIGER

@<TRIPOS>ATOM
      1 O          -4.9452   -4.5281    3.0779 O.2     1  LIG1       -0.2968
      2 C          -4.1325   -3.6263    3.2959 C.2     1  LIG1        0.1392
      3 C          -4.5808   -2.1821    3.1995 C.3     1  LIG1        0.0069
      4 C          -3.4310   -1.2073    2.9716 C.3     1  LIG1       -0.0401
      5 C          -2.2638   -1.8297    2.1743 C.3     1  LIG1       -0.0212
      6 C          -2.8166   -2.3476    0.8107 C.3     1  LIG1       -0.0587
      7 C          -1.6473   -2.9945    3.0224 C.3     1  LIG1       -0.0198
      8 C          -0.5461   -3.7082    2.2000 C.3     1  LIG1       -0.0302
      9 C           0.3512   -2.7640    1.4346 C.2     1  LIG1       -0.0836
     10 C           0.1360   -1.4389    1.2976 C.2     1  LIG1       -0.0634
     11 C          -1.0909   -0.7794    1.9611 C.3     1  LIG1       -0.0136
     12 H          -0.7323   -0.4862    2.9612 H       1  LIG1        0.0351
     13 C          -1.5939    0.5518    1.3376 C.3     1  LIG1       -0.0455
     14 C          -0.5540    1.3751    0.5745 C.3     1  LIG1       -0.0460
     15 C           0.2577    0.4763   -0.3716 C.3     1  LIG1       -0.0199
     16 C          -0.7024   -0.2706   -1.3484 C.3     1  LIG1       -0.0585
     17 C           1.0847   -0.5127    0.5322 C.3     1  LIG1       -0.0051
     18 C           2.0348   -1.1177   -0.5191 C.3     1  LIG1       -0.0431
     19 C           2.4006    0.0559   -1.4485 C.3     1  LIG1       -0.0486
     20 C           1.3608    1.1918   -1.2144 C.3     1  LIG1       -0.0322
     21 C           0.9340    1.8804   -2.5503 C.3     1  LIG1       -0.0402
     22 H           0.4742    1.1217   -3.1962 H       1  LIG1        0.0301
     23 C          -0.1116    2.9848   -2.3600 C.3     1  LIG1       -0.0621
     24 C           2.1217    2.4298   -3.3760 C.3     1  LIG1       -0.0466
     25 C           2.8849    3.5894   -2.7296 C.3     1  LIG1       -0.0311
     26 C           4.0305    4.0030   -3.6082 C.2     1  LIG1       -0.0460
     27 C           3.9955    4.9654   -4.5399 C.2     1  LIG1        0.1016
     28 C           5.1768    5.3204   -5.3958 C.3     1  LIG1       -0.0066
     29 O           2.8552    5.7716   -4.7379 O.3     1  LIG1       -0.4331
     30 C           2.2280    5.5561   -5.9183 C.2     1  LIG1        0.2992
     31 O           2.4352    4.6979   -6.7582 O.2     1  LIG1       -0.2542
     32 H           1.8257    1.9596   -0.5840 H       1  LIG1        0.0309
     33 C           1.9874    0.1617    1.6086 C.3     1  LIG1       -0.0553
     34 H          -1.0899   -2.5058    3.8383 H       1  LIG1        0.0318
     35 C          -2.6958   -3.9143    3.7551 C.3     1  LIG1        0.0270
     36 C          -2.6836   -3.6163    5.2732 C.3     1  LIG1       -0.0528
     37 C          -2.4064   -5.4181    3.5903 C.3     1  LIG1       -0.0528
     38 H          -5.1306   -1.9177    4.1078 H       1  LIG1        0.0342
     39 H          -5.2792   -2.1147    2.3556 H       1  LIG1        0.0342
     40 H          -3.0623   -0.8431    3.9382 H       1  LIG1        0.0275
     41 H          -3.8381   -0.3277    2.4590 H       1  LIG1        0.0275
     42 H          -3.5282   -3.1693    0.9222 H       1  LIG1        0.0235
     43 H          -2.0370   -2.7384    0.1529 H       1  LIG1        0.0235
     44 H          -3.3398   -1.5556    0.2657 H       1  LIG1        0.0235
     45 H          -0.9848   -4.4054    1.4779 H       1  LIG1        0.0311
     46 H           0.0862   -4.2949    2.8768 H       1  LIG1        0.0311
     47 H           1.2231   -3.2262    0.9771 H       1  LIG1        0.0572
     48 H          -2.0034    1.1819    2.1387 H       1  LIG1        0.0271
     49 H          -2.4342    0.3702    0.6609 H       1  LIG1        0.0271
     50 H           0.0979    1.8987    1.2828 H       1  LIG1        0.0271
     51 H          -1.0788    2.1711    0.0438 H       1  LIG1        0.0271
     52 H          -1.2860   -1.0430   -0.8587 H       1  LIG1        0.0235
     53 H          -0.1706   -0.7746   -2.1613 H       1  LIG1        0.0235
     54 H          -1.4247    0.4151   -1.8015 H       1  LIG1        0.0235
     55 H           1.5391   -1.9040   -1.1016 H       1  LIG1        0.0274
     56 H           2.9343   -1.5694   -0.0857 H       1  LIG1        0.0274
     57 H           2.4118   -0.3021   -2.4838 H       1  LIG1        0.0268
     58 H           3.4066    0.4274   -1.2213 H       1  LIG1        0.0268
     59 H          -0.3636    3.4436   -3.3235 H       1  LIG1        0.0233
     60 H           0.2420    3.7708   -1.6851 H       1  LIG1        0.0233
     61 H          -1.0497    2.5953   -1.9611 H       1  LIG1        0.0233
     62 H           1.7292    2.7604   -4.3488 H       1  LIG1        0.0271
     63 H           2.8185    1.6170   -3.6148 H       1  LIG1        0.0271
     64 H           3.2918    3.2866   -1.7586 H       1  LIG1        0.0309
     65 H           2.2241    4.4412   -2.5410 H       1  LIG1        0.0309
     66 H           4.9493    3.4373   -3.4622 H       1  LIG1        0.0605
     67 H           6.0746    4.7639   -5.1075 H       1  LIG1        0.0308
     68 H           5.3889    6.3889   -5.2935 H       1  LIG1        0.0308
     69 H           4.9774    5.1058   -6.4502 H       1  LIG1        0.0308
     70 H           1.4412    6.3509   -6.0087 H       1  LIG1        0.1516
     71 H           2.6248    0.9504    1.1974 H       1  LIG1        0.0238
     72 H           2.6590   -0.5788    2.0625 H       1  LIG1        0.0238
     73 H           1.4146    0.6020    2.4313 H       1  LIG1        0.0238
     74 H          -2.8775   -2.5595    5.4853 H       1  LIG1        0.0239
     75 H          -1.7166   -3.8725    5.7189 H       1  LIG1        0.0239
     76 H          -3.4592   -4.1897    5.7950 H       1  LIG1        0.0239
     77 H          -1.4115   -5.6809    3.9648 H       1  LIG1        0.0239
     78 H          -2.4823   -5.7300    2.5431 H       1  LIG1        0.0239
     79 H          -3.1272   -6.0260    4.1509 H       1  LIG1        0.0239
@<TRIPOS>BOND
     1     1     2    2
     2     2     3    1
     3     3     4    1
     4     4     5    1
     5     5     6    1
     6     5     7    1
     7     7     8    1
     8     8     9    1
     9     9    10    2
    10    10    11    1
    11    11    12    1
    12     5    11    1
    13    11    13    1
    14    13    14    1
    15    14    15    1
    16    15    16    1
    17    15    17    1
    18    17    18    1
    19    18    19    1
    20    19    20    1
    21    21    22    1
    22    21    23    1
    23    21    24    1
    24    24    25    1
    25    25    26    1
    26    26    27    2
    27    27    28    1
    28    27    29    1
    29    29    30    1
    30    30    31    2
    31    15    20    1
    32    10    17    1
    33    17    33    1
    34     7    34    1
    35     7    35    1
    36    35    36    1
    37     2    35    1
    38    35    37    1
    39    20    32    1
    40    20    21    1
    41     3    38    1
    42     3    39    1
    43     4    40    1
    44     4    41    1
    45     6    42    1
    46     6    43    1
    47     6    44    1
    48     8    45    1
    49     8    46    1
    50     9    47    1
    51    13    48    1
    52    13    49    1
    53    14    50    1
    54    14    51    1
    55    16    52    1
    56    16    53    1
    57    16    54    1
    58    18    55    1
    59    18    56    1
    60    19    57    1
    61    19    58    1
    62    23    59    1
    63    23    60    1
    64    23    61    1
    65    24    62    1
    66    24    63    1
    67    25    64    1
    68    25    65    1
    69    26    66    1
    70    28    67    1
    71    28    68    1
    72    28    69    1
    73    30    70    1
    74    33    71    1
    75    33    72    1
    76    33    73    1
    77    36    74    1
    78    36    75    1
    79    36    76    1
    80    37    77    1
    81    37    78    1
    82    37    79    1
