@<TRIPOS>MOLECULE
NuBBE_1545
 39 40 0 0 0
SMALL
GASTEIGER

@<TRIPOS>ATOM
      1 C           1.8684   -0.7091    1.5690 C.3     1  LIG1       -0.0590
      2 C           0.9613    0.3999    0.9731 C.3     1  LIG1       -0.0253
      3 C          -0.4114   -0.1397    0.4559 C.3     1  LIG1       -0.0142
      4 H          -0.9610    0.7079    0.0171 H       1  LIG1        0.0351
      5 C          -0.1918   -1.1480   -0.6906 C.3     1  LIG1       -0.0395
      6 C           0.5482   -0.5150   -1.8952 C.3     1  LIG1       -0.0198
      7 H           0.8603   -1.3441   -2.5476 H       1  LIG1        0.0346
      8 C           1.8575    0.1601   -1.4280 C.3     1  LIG1       -0.0460
      9 C           1.7020    1.0735   -0.2048 C.3     1  LIG1       -0.0465
     10 C          -0.3816    0.3414   -2.7685 C.2     1  LIG1       -0.0766
     11 C          -0.2177    1.6490   -3.0368 C.2     1  LIG1       -0.0994
     12 C          -1.5265   -0.3958   -3.4248 C.3     1  LIG1       -0.0438
     13 C          -1.3107   -0.6152    1.5949 C.2     1  LIG1       -0.0729
     14 C          -1.1582   -0.1352    2.8450 C.2     1  LIG1       -0.0847
     15 C          -0.1166    0.8688    3.2488 C.3     1  LIG1       -0.0340
     16 C           0.6721    1.4515    2.0717 C.3     1  LIG1       -0.0436
     17 C          -2.4314   -1.5651    1.2758 C.3     1  LIG1       -0.0435
     18 H           2.1863   -1.4425    0.8235 H       1  LIG1        0.0235
     19 H           1.3770   -1.2721    2.3679 H       1  LIG1        0.0235
     20 H           2.7800   -0.2710    1.9926 H       1  LIG1        0.0235
     21 H          -1.1463   -1.5659   -1.0254 H       1  LIG1        0.0277
     22 H           0.3805   -2.0111   -0.3290 H       1  LIG1        0.0277
     23 H           2.3202    0.7212   -2.2490 H       1  LIG1        0.0271
     24 H           2.5811   -0.6286   -1.1864 H       1  LIG1        0.0271
     25 H           1.1645    1.9832   -0.4955 H       1  LIG1        0.0271
     26 H           2.6972    1.4061    0.1173 H       1  LIG1        0.0271
     27 H          -0.9084    2.1826   -3.6844 H       1  LIG1        0.0534
     28 H           0.5978    2.2396   -2.6386 H       1  LIG1        0.0534
     29 H          -2.0109    0.2041   -4.2032 H       1  LIG1        0.0274
     30 H          -2.2939   -0.6574   -2.6904 H       1  LIG1        0.0274
     31 H          -1.1668   -1.3131   -3.9025 H       1  LIG1        0.0274
     32 H          -1.8200   -0.4715    3.6406 H       1  LIG1        0.0572
     33 H           0.5726    0.3860    3.9518 H       1  LIG1        0.0308
     34 H          -0.5969    1.6881    3.7961 H       1  LIG1        0.0308
     35 H           1.6048    1.8944    2.4431 H       1  LIG1        0.0274
     36 H           0.0930    2.2794    1.6396 H       1  LIG1        0.0274
     37 H          -2.0358   -2.5393    0.9724 H       1  LIG1        0.0274
     38 H          -3.0516   -1.1643    0.4675 H       1  LIG1        0.0274
     39 H          -3.0873   -1.7328    2.1370 H       1  LIG1        0.0274
@<TRIPOS>BOND
     1     1     2    1
     2     2     3    1
     3     3     4    1
     4     3     5    1
     5     5     6    1
     6     6     8    1
     7     8     9    1
     8     2     9    1
     9    10    11    2
    10    10    12    1
    11     3    13    1
    12    13    14    2
    13    14    15    1
    14    15    16    1
    15     2    16    1
    16    13    17    1
    17     6    10    1
    18     6     7    1
    19     1    18    1
    20     1    19    1
    21     1    20    1
    22     5    21    1
    23     5    22    1
    24     8    23    1
    25     8    24    1
    26     9    25    1
    27     9    26    1
    28    11    27    1
    29    11    28    1
    30    12    29    1
    31    12    30    1
    32    12    31    1
    33    14    32    1
    34    15    33    1
    35    15    34    1
    36    16    35    1
    37    16    36    1
    38    17    37    1
    39    17    38    1
    40    17    39    1
