REMARK  Name = NuBBE_2030
REMARK  7 active torsions:
REMARK  status: ('A' for Active; 'I' for Inactive)
REMARK    1  A    between atoms: C_1  and  C_2
REMARK    2  A    between atoms: C_4  and  O_5
REMARK    3  A    between atoms: O_5  and  C_6
REMARK    4  A    between atoms: C_6  and  C_7
REMARK    5  A    between atoms: C_9  and  C_10
REMARK    6  A    between atoms: C_10  and  C_11
REMARK    7  A    between atoms: C_10  and  C_12
REMARK                            x       y       z     vdW  Elec       q    Type
REMARK                         _______ _______ _______ _____ _____    ______ ____
ROOT
ATOM      1  C   LIG A   1      -3.951  -0.838   0.212  0.00  0.00    +0.044 C 
ATOM      2  C   LIG A   1      -2.461  -0.780   0.054  0.00  0.00    -0.047 A 
ATOM      3  C   LIG A   1      -1.753   0.369   0.421  0.00  0.00    +0.050 A 
ATOM      4  C   LIG A   1      -0.362   0.419   0.272  0.00  0.00    +0.135 A 
ATOM      5  C   LIG A   1       0.362  -0.690  -0.201  0.00  0.00    -0.002 A 
ATOM      6  C   LIG A   1      -0.363  -1.847  -0.538  0.00  0.00    +0.008 A 
ATOM      7  C   LIG A   1      -1.755  -1.892  -0.410  0.00  0.00    +0.004 A 
ENDROOT
BRANCH   5   8
ATOM      8  C   LIG A   1       1.876  -0.662  -0.352  0.00  0.00    +0.017 C 
ATOM      9  C   LIG A   1       2.554  -1.720   0.524  0.00  0.00    +0.012 C 
ATOM     10  C   LIG A   1       2.294  -0.823  -1.817  0.00  0.00    +0.012 C 
ENDBRANCH   5   8
BRANCH   4  11
ATOM     11  O   LIG A   1       0.374   1.554   0.690  0.00  0.00    -0.426 OA
BRANCH  11  12
ATOM     12  C   LIG A   1      -0.114   2.852   0.540  0.00  0.00    +0.309 C 
ATOM     13  C   LIG A   1       0.873   3.814   1.133  0.00  0.00    +0.136 C 
ATOM     14  O   LIG A   1      -1.147   3.193  -0.020  0.00  0.00    -0.251 OA
ENDBRANCH  11  12
ENDBRANCH   4  11
TORSDOF 3
