REMARK  Name = NuBBE_1170
REMARK  15 active torsions:
REMARK  status: ('A' for Active; 'I' for Inactive)
REMARK    1  A    between atoms: O_1  and  C_2
REMARK    2  A    between atoms: C_3  and  C_35
REMARK    3  A    between atoms: C_6  and  O_21
REMARK    4  A    between atoms: C_7  and  C_8
REMARK    5  A    between atoms: C_10  and  O_12
REMARK    6  A    between atoms: C_13  and  O_15
REMARK    7  A    between atoms: C_16  and  O_20
REMARK    8  A    between atoms: C_25  and  C_27
REMARK    9  A    between atoms: C_29  and  O_30
REMARK   10  A    between atoms: C_31  and  O_34
REMARK   11  A    between atoms: C_38  and  C_40
REMARK   12  A    between atoms: C_40  and  O_41
REMARK   13  A    between atoms: C_42  and  O_50
REMARK   14  A    between atoms: C_44  and  O_49
REMARK   15  A    between atoms: C_46  and  O_48
REMARK                            x       y       z     vdW  Elec       q    Type
REMARK                         _______ _______ _______ _____ _____    ______ ____
ROOT
ATOM      1  C   LIG A   1      -0.751  -0.557  -1.054  0.00  0.00    +0.135 A 
ATOM      2  C   LIG A   1      -0.111  -0.132   0.141  0.00  0.00    +0.069 A 
ATOM      3  C   LIG A   1       0.570  -1.104   0.899  0.00  0.00    +0.152 A 
ATOM      4  C   LIG A   1       0.619  -2.428   0.450  0.00  0.00    +0.106 A 
ATOM      5  C   LIG A   1      -0.001  -2.808  -0.762  0.00  0.00    +0.140 A 
ATOM      6  C   LIG A   1      -0.731  -1.887  -1.526  0.00  0.00    +0.068 A 
ATOM      7  C   LIG A   1       1.322  -3.412   1.280  0.00  0.00    +0.197 A 
ATOM      8  O   LIG A   1       1.379  -4.602   0.955  0.00  0.00    -0.287 OA
ATOM      9  C   LIG A   1       1.950  -2.943   2.513  0.00  0.00    +0.098 A 
ATOM     10  C   LIG A   1       1.877  -1.645   2.830  0.00  0.00    +0.139 A 
ATOM     11  O   LIG A   1       1.186  -0.708   2.070  0.00  0.00    -0.454 OA
ENDROOT
BRANCH   6  12
ATOM     12  C   LIG A   1      -1.480  -2.337  -2.793  0.00  0.00    +0.186 C 
ATOM     13  C   LIG A   1      -0.666  -2.175  -4.112  0.00  0.00    +0.179 C 
ATOM     14  C   LIG A   1      -1.507  -2.635  -5.320  0.00  0.00    +0.176 C 
ATOM     15  C   LIG A   1      -2.864  -1.918  -5.328  0.00  0.00    +0.171 C 
ATOM     16  C   LIG A   1      -3.550  -2.105  -3.974  0.00  0.00    +0.194 C 
ATOM     17  O   LIG A   1      -2.737  -1.627  -2.901  0.00  0.00    -0.366 OA
BRANCH  13  18
ATOM     18  O   LIG A   1      -0.291  -0.806  -4.362  0.00  0.00    -0.386 OA
ATOM     19  H   LIG A   1      -0.590  -0.281  -3.591  0.00  0.00    +0.210 HD
ENDBRANCH  13  18
BRANCH  14  20
ATOM     20  O   LIG A   1      -1.714  -4.055  -5.294  0.00  0.00    -0.387 OA
ATOM     21  H   LIG A   1      -2.436  -4.233  -5.930  0.00  0.00    +0.210 HD
ENDBRANCH  14  20
BRANCH  15  22
ATOM     22  O   LIG A   1      -3.681  -2.447  -6.381  0.00  0.00    -0.387 OA
ATOM     23  H   LIG A   1      -3.365  -2.043  -7.211  0.00  0.00    +0.210 HD
ENDBRANCH  15  22
ENDBRANCH   6  12
BRANCH  10  24
ATOM     24  C   LIG A   1       2.508  -1.127   4.069  0.00  0.00    +0.021 A 
ATOM     25  C   LIG A   1       1.951  -0.029   4.747  0.00  0.00    +0.060 A 
ATOM     26  C   LIG A   1       2.534   0.429   5.928  0.00  0.00    +0.159 A 
ATOM     27  C   LIG A   1       3.670  -0.185   6.444  0.00  0.00    +0.158 A 
ATOM     28  C   LIG A   1       4.251  -1.256   5.789  0.00  0.00    +0.050 A 
ATOM     29  C   LIG A   1       3.676  -1.718   4.601  0.00  0.00    +0.015 A 
BRANCH  26  30
ATOM     30  O   LIG A   1       2.015   1.484   6.628  0.00  0.00    -0.503 OA
ATOM     31  H   LIG A   1       1.229   1.806   6.155  0.00  0.00    +0.292 HD
ENDBRANCH  26  30
BRANCH  27  32
ATOM     32  O   LIG A   1       4.227   0.265   7.605  0.00  0.00    -0.503 OA
ATOM     33  H   LIG A   1       3.661   1.014   7.875  0.00  0.00    +0.292 HD
ENDBRANCH  27  32
ENDBRANCH  10  24
BRANCH   2  34
ATOM     34  C   LIG A   1      -0.085   1.343   0.563  0.00  0.00    +0.187 C 
ATOM     35  O   LIG A   1      -1.330   1.948   0.139  0.00  0.00    -0.361 OA
ATOM     36  C   LIG A   1      -1.436   3.345   0.444  0.00  0.00    +0.175 C 
ATOM     37  C   LIG A   1      -0.315   4.147  -0.236  0.00  0.00    +0.176 C 
ATOM     38  C   LIG A   1       1.032   3.585   0.206  0.00  0.00    +0.177 C 
ATOM     39  C   LIG A   1       1.133   2.079  -0.047  0.00  0.00    +0.179 C 
BRANCH  39  40
ATOM     40  O   LIG A   1       2.365   1.624   0.530  0.00  0.00    -0.386 OA
ATOM     41  H   LIG A   1       3.045   2.254   0.211  0.00  0.00    +0.210 HD
ENDBRANCH  39  40
BRANCH  38  42
ATOM     42  O   LIG A   1       2.098   4.253  -0.489  0.00  0.00    -0.387 OA
ATOM     43  H   LIG A   1       1.874   5.206  -0.437  0.00  0.00    +0.210 HD
ENDBRANCH  38  42
BRANCH  37  44
ATOM     44  O   LIG A   1      -0.336   5.537   0.114  0.00  0.00    -0.387 OA
ATOM     45  H   LIG A   1      -1.279   5.814   0.123  0.00  0.00    +0.210 HD
ENDBRANCH  37  44
BRANCH  36  46
ATOM     46  C   LIG A   1      -2.821   3.825  -0.017  0.00  0.00    +0.190 C 
BRANCH  46  47
ATOM     47  O   LIG A   1      -3.000   5.208   0.270  0.00  0.00    -0.392 OA
ATOM     48  H   LIG A   1      -3.938   5.413   0.093  0.00  0.00    +0.209 HD
ENDBRANCH  46  47
ENDBRANCH  36  46
ENDBRANCH   2  34
BRANCH   1  49
ATOM     49  O   LIG A   1      -1.406   0.377  -1.821  0.00  0.00    -0.506 OA
ATOM     50  H   LIG A   1      -1.775   1.025  -1.184  0.00  0.00    +0.292 HD
ENDBRANCH   1  49
BRANCH   5  51
ATOM     51  O   LIG A   1       0.101  -4.096  -1.231  0.00  0.00    -0.505 OA
ATOM     52  H   LIG A   1       0.605  -4.634  -0.577  0.00  0.00    +0.292 HD
ENDBRANCH   5  51
TORSDOF 15
