REMARK  Name = NuBBE_308
REMARK  15 active torsions:
REMARK  status: ('A' for Active; 'I' for Inactive)
REMARK    1  A    between atoms: C_3  and  C_4
REMARK    2  A    between atoms: C_5  and  O_6
REMARK    3  A    between atoms: C_9  and  C_10
REMARK    4  A    between atoms: C_10  and  C_11
REMARK    5  A    between atoms: C_11  and  C_12
REMARK    6  A    between atoms: C_12  and  C_13
REMARK    7  A    between atoms: C_13  and  C_14
REMARK    8  A    between atoms: C_14  and  C_15
REMARK    9  A    between atoms: C_15  and  C_16
REMARK   10  A    between atoms: C_16  and  C_17
REMARK   11  A    between atoms: C_17  and  C_18
REMARK   12  A    between atoms: C_18  and  C_19
REMARK   13  A    between atoms: C_19  and  C_20
REMARK   14  A    between atoms: C_20  and  O_21
REMARK   15  A    between atoms: C_20  and  C_22
REMARK                            x       y       z     vdW  Elec       q    Type
REMARK                         _______ _______ _______ _____ _____    ______ ____
ROOT
ATOM      1  C   LIG A   1       1.400  -2.013  -2.481  0.00  0.00    +0.002 C 
ENDROOT
BRANCH   1   2
ATOM      2  C   LIG A   1       2.589  -2.825  -1.889  0.00  0.00    +0.019 C 
BRANCH   2  10
ATOM      3  H   LIG A   1       2.753  -4.571   1.035  0.00  0.00    +0.122 HD
ATOM      4  N   LIG A   1       2.222  -4.240   0.230  0.00  0.00    -0.308 NA
ATOM      5  C   LIG A   1       0.860  -3.909   0.646  0.00  0.00    +0.079 C 
ATOM      6  C   LIG A   1       0.071  -5.147   1.073  0.00  0.00    +0.026 C 
ATOM      7  C   LIG A   1       0.753  -2.660   1.575  0.00  0.00    +0.131 C 
ATOM      8  C   LIG A   1       1.534  -1.468   0.991  0.00  0.00    +0.034 C 
ATOM      9  C   LIG A   1       2.929  -1.883   0.558  0.00  0.00    +0.021 C 
ATOM     10  C   LIG A   1       2.917  -3.094  -0.383  0.00  0.00    +0.054 C 
BRANCH   7  11
ATOM     11  O   LIG A   1      -0.617  -2.244   1.731  0.00  0.00    -0.390 OA
ATOM     12  H   LIG A   1      -0.927  -1.899   0.906  0.00  0.00    +0.210 HD
ENDBRANCH   7  11
ENDBRANCH   2  10
ENDBRANCH   1   2
BRANCH   1  13
ATOM     13  C   LIG A   1      -0.050  -2.462  -2.269  0.00  0.00    +0.000 C 
BRANCH  13  14
ATOM     14  C   LIG A   1      -1.132  -1.609  -2.956  0.00  0.00    -0.000 C 
BRANCH  14  15
ATOM     15  C   LIG A   1      -1.775  -0.485  -2.087  0.00  0.00    -0.000 C 
BRANCH  15  16
ATOM     16  C   LIG A   1      -0.876   0.700  -1.673  0.00  0.00    -0.000 C 
BRANCH  16  17
ATOM     17  C   LIG A   1      -1.590   1.786  -0.791  0.00  0.00    -0.000 C 
BRANCH  17  18
ATOM     18  C   LIG A   1      -0.601   2.880  -0.301  0.00  0.00    +0.000 C 
BRANCH  18  19
ATOM     19  C   LIG A   1      -1.128   4.197   0.353  0.00  0.00    +0.002 C 
BRANCH  19  20
ATOM     20  C   LIG A   1      -1.691   4.190   1.788  0.00  0.00    +0.031 C 
BRANCH  20  21
ATOM     21  C   LIG A   1      -2.083   5.598   2.340  0.00  0.00    +0.111 C 
ATOM     22  C   LIG A   1      -1.004   6.682   2.450  0.00  0.00    +0.037 C 
BRANCH  21  23
ATOM     23  O   LIG A   1      -2.649   5.426   3.646  0.00  0.00    -0.392 OA
ATOM     24  H   LIG A   1      -1.936   5.504   4.303  0.00  0.00    +0.210 HD
ENDBRANCH  21  23
ENDBRANCH  20  21
ENDBRANCH  19  20
ENDBRANCH  18  19
ENDBRANCH  17  18
ENDBRANCH  16  17
ENDBRANCH  15  16
ENDBRANCH  14  15
ENDBRANCH  13  14
ENDBRANCH   1  13
TORSDOF 13
