@<TRIPOS>MOLECULE
NuBBE_2259
 38 39 0 0 0
SMALL
GASTEIGER

@<TRIPOS>ATOM
      1 C          -2.3991   -2.5679    0.0202 C.3     1  LIG1       -0.0394
      2 C          -0.8938   -2.5022   -0.0142 C.ar    1  LIG1       -0.0466
      3 C          -0.1932   -1.2735   -0.1065 C.ar    1  LIG1       -0.0332
      4 C           1.2178   -1.2801   -0.1753 C.ar    1  LIG1        0.0264
      5 C           1.9332    0.0224   -0.3433 C.2     1  LIG1        0.1922
      6 O           3.1638    0.0920   -0.3742 O.2     1  LIG1       -0.2893
      7 C           1.1183    1.3017   -0.5209 C.3     1  LIG1        0.1232
      8 H           0.9689    1.4614   -1.5946 H       1  LIG1        0.0680
      9 C          -0.2061    1.2792    0.2429 C.3     1  LIG1        0.0246
     10 H           0.0208    1.2009    1.3164 H       1  LIG1        0.0361
     11 C          -0.9750    0.0188   -0.1948 C.3     1  LIG1       -0.0185
     12 C          -1.0801    2.5649    0.0365 C.3     1  LIG1        0.0664
     13 C          -2.3839    2.4967    0.8519 C.3     1  LIG1       -0.0360
     14 C          -0.3636    3.8718    0.4049 C.3     1  LIG1       -0.0360
     15 O          -1.4524    2.6416   -1.3461 O.3     1  LIG1       -0.3887
     16 O           1.9615    2.3533   -0.0289 O.3     1  LIG1       -0.3835
     17 C           1.9293   -2.5018   -0.0935 C.ar    1  LIG1       -0.0396
     18 C           1.2123   -3.6996    0.0371 C.ar    1  LIG1       -0.0579
     19 C          -0.1776   -3.7002    0.0729 C.ar    1  LIG1       -0.0583
     20 C           3.4321   -2.5952   -0.1431 C.3     1  LIG1       -0.0390
     21 H          -2.8307   -1.9789   -0.7953 H       1  LIG1        0.0278
     22 H          -2.7711   -2.1970    0.9804 H       1  LIG1        0.0278
     23 H          -2.7587   -3.5951   -0.1052 H       1  LIG1        0.0278
     24 H          -1.3265    0.1191   -1.2292 H       1  LIG1        0.0318
     25 H          -1.8538   -0.0739    0.4503 H       1  LIG1        0.0318
     26 H          -2.1838    2.3240    1.9141 H       1  LIG1        0.0257
     27 H          -3.0566    1.7164    0.4818 H       1  LIG1        0.0257
     28 H          -2.9528    3.4297    0.7587 H       1  LIG1        0.0257
     29 H           0.0887    3.8173    1.4000 H       1  LIG1        0.0257
     30 H          -1.0635    4.7165    0.4006 H       1  LIG1        0.0257
     31 H           0.3979    4.1388   -0.3343 H       1  LIG1        0.0257
     32 H          -1.8959    3.4968   -1.4890 H       1  LIG1        0.2101
     33 H           2.8741    2.1013   -0.2843 H       1  LIG1        0.2104
     34 H           1.7364   -4.6515    0.1037 H       1  LIG1        0.0620
     35 H          -0.6995   -4.6510    0.1642 H       1  LIG1        0.0620
     36 H           3.8102   -2.2134   -1.0965 H       1  LIG1        0.0278
     37 H           3.7730   -3.6335   -0.0612 H       1  LIG1        0.0278
     38 H           3.8792   -2.0499    0.6939 H       1  LIG1        0.0278
@<TRIPOS>BOND
     1     1     2    1
     2     2     3   ar
     3     3     4   ar
     4     4     5    1
     5     5     6    2
     6     5     7    1
     7     7     8    1
     8     7     9    1
     9     9    10    1
    10     9    11    1
    11     3    11    1
    12     9    12    1
    13    12    13    1
    14    12    14    1
    15    12    15    1
    16     7    16    1
    17     4    17   ar
    18    17    18   ar
    19    18    19   ar
    20     2    19   ar
    21    17    20    1
    22     1    21    1
    23     1    22    1
    24     1    23    1
    25    11    24    1
    26    11    25    1
    27    13    26    1
    28    13    27    1
    29    13    28    1
    30    14    29    1
    31    14    30    1
    32    14    31    1
    33    15    32    1
    34    16    33    1
    35    18    34    1
    36    19    35    1
    37    20    36    1
    38    20    37    1
    39    20    38    1
