REMARK  Name = NuBBE_1323
REMARK  6 active torsions:
REMARK  status: ('A' for Active; 'I' for Inactive)
REMARK    1  A    between atoms: C_2  and  C_3
REMARK    2  A    between atoms: C_2  and  C_14
REMARK    3  A    between atoms: C_3  and  C_4
REMARK    4  A    between atoms: C_4  and  C_5
REMARK    5  A    between atoms: C_15  and  O_23
REMARK    6  A    between atoms: O_23  and  C_24
REMARK                            x       y       z     vdW  Elec       q    Type
REMARK                         _______ _______ _______ _____ _____    ______ ____
ROOT
ATOM      1  O   LIG A   1      -0.113   0.721   3.369  0.00  0.00    -0.292 OA
ATOM      2  C   LIG A   1       0.125   0.136   2.316  0.00  0.00    +0.167 C 
ENDROOT
BRANCH   2   3
ATOM      3  C   LIG A   1       0.488  -1.322   2.355  0.00  0.00    +0.060 A 
ATOM      4  C   LIG A   1       1.327  -1.923   1.386  0.00  0.00    +0.141 A 
ATOM      5  C   LIG A   1       1.565  -3.319   1.468  0.00  0.00    +0.062 A 
ATOM      6  C   LIG A   1       0.955  -4.031   2.499  0.00  0.00    +0.138 A 
ATOM      7  C   LIG A   1       0.144  -3.467   3.479  0.00  0.00    +0.048 A 
ATOM      8  C   LIG A   1      -0.074  -2.088   3.393  0.00  0.00    +0.019 A 
ATOM      9  O   LIG A   1       1.268  -5.353   2.425  0.00  0.00    -0.463 OA
ATOM     10  C   LIG A   1       2.092  -5.508   1.361  0.00  0.00    +0.196 A 
ATOM     11  C   LIG A   1       2.322  -4.296   0.754  0.00  0.00    +0.053 A 
BRANCH   4  12
ATOM     12  O   LIG A   1       1.955  -1.075   0.491  0.00  0.00    -0.494 OA
ATOM     13  C   LIG A   1       2.184  -1.587  -0.814  0.00  0.00    +0.277 C 
ENDBRANCH   4  12
ENDBRANCH   2   3
BRANCH   2  14
ATOM     14  C   LIG A   1       0.019   0.821   0.956  0.00  0.00    +0.084 C 
BRANCH  14  15
ATOM     15  C   LIG A   1      -1.016   1.942   0.953  0.00  0.00    +0.043 C 
BRANCH  15  16
ATOM     16  C   LIG A   1      -1.145   2.588  -0.410  0.00  0.00    -0.043 A 
ATOM     17  C   LIG A   1      -0.324   3.686  -0.758  0.00  0.00    +0.007 A 
ATOM     18  C   LIG A   1      -0.427   4.297  -2.014  0.00  0.00    +0.050 A 
ATOM     19  C   LIG A   1      -1.346   3.785  -2.903  0.00  0.00    +0.166 A 
ATOM     20  O   LIG A   1      -1.576   4.245  -4.162  0.00  0.00    -0.453 OA
ATOM     21  C   LIG A   1      -2.586   3.316  -4.608  0.00  0.00    +0.466 C 
ATOM     22  O   LIG A   1      -2.981   2.368  -3.594  0.00  0.00    -0.453 OA
ATOM     23  C   LIG A   1      -2.145   2.715  -2.579  0.00  0.00    +0.167 A 
ATOM     24  C   LIG A   1      -2.069   2.096  -1.347  0.00  0.00    +0.053 A 
ENDBRANCH  15  16
ENDBRANCH  14  15
ENDBRANCH   2  14
TORSDOF 5
