REMARK  Name = NuBBE_1365
REMARK  13 active torsions:
REMARK  status: ('A' for Active; 'I' for Inactive)
REMARK    1  A    between atoms: O_1  and  C_2
REMARK    2  A    between atoms: C_8  and  C_20
REMARK    3  A    between atoms: C_9  and  C_11
REMARK    4  A    between atoms: C_22  and  O_46
REMARK    5  A    between atoms: C_23  and  O_24
REMARK    6  A    between atoms: O_24  and  O_25
REMARK    7  A    between atoms: O_25  and  C_26
REMARK    8  A    between atoms: C_26  and  C_27
REMARK    9  A    between atoms: C_29  and  O_31
REMARK   10  A    between atoms: O_31  and  C_32
REMARK   11  A    between atoms: C_32  and  C_33
REMARK   12  A    between atoms: C_35  and  C_36
REMARK   13  A    between atoms: C_35  and  C_37
REMARK                            x       y       z     vdW  Elec       q    Type
REMARK                         _______ _______ _______ _____ _____    ______ ____
ROOT
ATOM      1  C   LIG A   1       1.103  -2.816  -0.918  0.00  0.00    +0.114 C 
ATOM      2  C   LIG A   1       0.390  -1.108  -0.350  0.00  0.00    +0.109 C 
ATOM      3  C   LIG A   1       1.584   0.268   0.208  0.00  0.00    +0.039 C 
ATOM      4  C   LIG A   1       3.115  -0.324   1.159  0.00  0.00    +0.008 C 
ATOM      5  C   LIG A   1       3.827  -2.060   0.971  0.00  0.00    +0.014 C 
ATOM      6  C   LIG A   1       2.537  -3.283   0.304  0.00  0.00    +0.041 C 
ATOM      7  C   LIG A   1       1.653  -2.688   1.227  0.00  0.00    +0.218 C 
ATOM      8  O   LIG A   1       2.304  -1.622  -0.128  0.00  0.00    -0.456 OA
ATOM      9  C   LIG A   1       2.774  -1.668  -1.474  0.00  0.00    +0.311 C 
ATOM     10  C   LIG A   1       1.889  -2.579  -2.177  0.00  0.00    +0.159 C 
ATOM     11  O   LIG A   1       3.672  -1.013  -1.933  0.00  0.00    -0.251 OA
ATOM     12  C   LIG A   1       3.055  -4.691   0.407  0.00  0.00    +0.018 C 
ATOM     13  C   LIG A   1       0.605   1.260   1.063  0.00  0.00    +0.071 C 
ATOM     14  C   LIG A   1      -0.589   0.354   0.966  0.00  0.00    +0.215 C 
ATOM     15  C   LIG A   1      -1.133   0.599  -0.529  0.00  0.00    +0.209 C 
ATOM     16  C   LIG A   1      -2.279   1.577  -0.385  0.00  0.00    +0.224 C 
ATOM     17  C   LIG A   1      -1.578   2.939   0.124  0.00  0.00    +0.009 C 
ATOM     18  C   LIG A   1      -1.671   3.985  -1.017  0.00  0.00    +0.015 C 
ATOM     19  C   LIG A   1      -2.411   3.606   1.272  0.00  0.00    +0.015 C 
ATOM     20  C   LIG A   1      -0.031   2.729   0.695  0.00  0.00    +0.024 C 
ATOM     21  C   LIG A   1       1.067   3.667   0.236  0.00  0.00    +0.125 C 
ATOM     22  C   LIG A   1       2.296   3.577   1.126  0.00  0.00    +0.307 C 
ATOM     23  O   LIG A   1       2.361   2.596   2.073  0.00  0.00    -0.464 OA
ATOM     24  C   LIG A   1       1.279   1.657   2.369  0.00  0.00    +0.245 C 
ATOM     25  O   LIG A   1       3.216   4.382   0.994  0.00  0.00    -0.251 OA
ATOM     26  C   LIG A   1      -0.911  -0.773  -1.111  0.00  0.00    +0.087 C 
ATOM     27  O   LIG A   1      -0.198  -1.021   0.978  0.00  0.00    -0.336 OA
ENDROOT
BRANCH   7  28
ATOM     28  C   LIG A   1       0.374  -3.538   1.499  0.00  0.00    +0.031 A 
ATOM     29  C   LIG A   1       0.009  -4.810   1.058  0.00  0.00    +0.202 A 
ATOM     30  O   LIG A   1      -1.205  -5.204   1.505  0.00  0.00    -0.471 OA
ATOM     31  C   LIG A   1      -1.628  -4.245   2.350  0.00  0.00    +0.195 A 
ATOM     32  C   LIG A   1      -0.670  -3.262   2.461  0.00  0.00    +0.048 A 
ENDBRANCH   7  28
BRANCH   1  33
ATOM     33  O   LIG A   1       0.163  -3.804  -1.285  0.00  0.00    -0.385 OA
ATOM     34  H   LIG A   1      -0.504  -3.414  -1.875  0.00  0.00    +0.210 HD
ENDBRANCH   1  33
BRANCH  14  35
ATOM     35  O   LIG A   1      -1.438   0.536   2.064  0.00  0.00    -0.362 OA
ATOM     36  H   LIG A   1      -1.356  -0.305   2.547  0.00  0.00    +0.213 HD
ENDBRANCH  14  35
BRANCH  15  37
ATOM     37  O   LIG A   1      -0.195   1.313  -1.444  0.00  0.00    -0.167 OA
BRANCH  37  38
ATOM     38  O   LIG A   1      -0.863   1.474  -2.750  0.00  0.00    -0.297 OA
BRANCH  38  39
ATOM     39  C   LIG A   1       0.023   2.126  -3.570  0.00  0.00    +0.340 C 
ATOM     40  C   LIG A   1      -0.713   2.731  -4.727  0.00  0.00    +0.139 C 
ATOM     41  O   LIG A   1       1.213   2.293  -3.348  0.00  0.00    -0.248 OA
ENDBRANCH  38  39
ENDBRANCH  37  38
ENDBRANCH  15  37
BRANCH  16  42
ATOM     42  O   LIG A   1      -3.391   1.285   0.481  0.00  0.00    -0.458 OA
BRANCH  42  43
ATOM     43  C   LIG A   1      -4.121   0.168   0.274  0.00  0.00    +0.304 C 
ATOM     44  C   LIG A   1      -5.573   0.522   0.294  0.00  0.00    +0.136 C 
ATOM     45  O   LIG A   1      -3.683  -0.928  -0.025  0.00  0.00    -0.251 OA
ENDBRANCH  42  43
ENDBRANCH  16  42
TORSDOF 8
