@<TRIPOS>MOLECULE
NuBBE_1440
 64 70 0 0 0
SMALL
GASTEIGER

@<TRIPOS>ATOM
      1 O           3.8796   -0.5503    4.1360 O.2     1  LIG1       -0.2930
      2 C           3.3563   -0.7654    3.0406 C.2     1  LIG1        0.1818
      3 C           3.2737    0.3468    2.0075 C.3     1  LIG1        0.0369
      4 C           1.8550    0.3082    1.4985 C.3     1  LIG1        0.0745
      5 H           1.2526    0.4350    2.4035 H       1  LIG1        0.0607
      6 C           1.5028   -0.9862    0.7356 C.3     1  LIG1        0.0383
      7 C           2.5392   -1.2292   -0.3856 C.3     1  LIG1       -0.0539
      8 C           1.5544   -2.1769    1.7622 C.3     1  LIG1        0.1562
      9 C           2.8422   -2.1820    2.6507 C.3     1  LIG1        0.1998
     10 O           2.4529   -2.9000    3.8399 O.3     1  LIG1       -0.4457
     11 C           1.1152   -2.8312    4.0278 C.2     1  LIG1        0.3401
     12 C           0.4232   -2.2545    2.8165 C.3     1  LIG1        0.1852
     13 H          -0.3560   -2.9551    2.4954 H       1  LIG1        0.0742
     14 O          -0.1872   -1.0295    3.1809 O.3     1  LIG1       -0.3780
     15 O           0.5404   -3.1731    5.0511 O.2     1  LIG1       -0.2478
     16 C           4.0484   -2.9759    2.1298 C.3     1  LIG1       -0.0148
     17 O           1.4863   -3.3977    0.9902 O.3     1  LIG1       -0.3803
     18 C           0.0908   -0.5810    0.1385 C.3     1  LIG1        0.0273
     19 C          -0.3956   -0.9335   -1.3104 C.3     1  LIG1        0.1009
     20 C           0.5683   -0.5650   -2.4600 C.3     1  LIG1       -0.0329
     21 C          -1.7496   -0.2510   -1.5656 C.3     1  LIG1        0.1304
     22 O          -2.9061   -1.0711   -1.8032 O.3     1  LIG1       -0.3612
     23 C          -2.0811    1.0942   -0.9282 C.3     1  LIG1        0.0115
     24 C          -0.7431    1.7993   -0.6036 C.3     1  LIG1       -0.0174
     25 C           0.0413    0.9526    0.3994 C.3     1  LIG1        0.0659
     26 H          -0.4587    1.1161    1.3658 H       1  LIG1        0.0600
     27 O           1.4118    1.3501    0.6195 O.3     1  LIG1       -0.3719
     28 C          -2.9225    0.9061    0.3634 C.3     1  LIG1       -0.0561
     29 C          -2.3793   -0.3562   -2.9235 C.3     1  LIG1        0.0924
     30 H          -1.9847   -0.9390   -3.7398 H       1  LIG1        0.0626
     31 C          -2.9151    0.9837   -3.2919 C.3     1  LIG1       -0.0162
     32 C          -3.0200    1.7916   -1.9833 C.3     1  LIG1       -0.0022
     33 H          -4.0625    1.6413   -1.6610 H       1  LIG1        0.0357
     34 C          -2.8516    3.2715   -2.1365 C.ar    1  LIG1       -0.0059
     35 C          -3.6426    4.2421   -1.5498 C.ar    1  LIG1        0.0951
     36 O          -3.2202    5.4854   -1.8853 O.2     1  LIG1       -0.4708
     37 C          -2.1462    5.3296   -2.6973 C.ar    1  LIG1        0.0919
     38 C          -1.8785    3.9942   -2.8865 C.ar    1  LIG1       -0.0205
     39 O          -0.5747   -2.3535   -1.3680 O.3     1  LIG1       -0.3855
     40 H           4.0401    0.2290    1.2396 H       1  LIG1        0.0368
     41 H           3.4659    1.3095    2.4945 H       1  LIG1        0.0368
     42 H           3.5410   -1.4248   -0.0127 H       1  LIG1        0.0237
     43 H           2.6589   -0.3536   -1.0283 H       1  LIG1        0.0237
     44 H           2.2810   -2.1047   -0.9869 H       1  LIG1        0.0237
     45 H          -0.7717   -1.2220    3.9429 H       1  LIG1        0.2106
     46 H           4.5597   -2.5048    1.2909 H       1  LIG1        0.0273
     47 H           3.7753   -3.9985    1.8497 H       1  LIG1        0.0273
     48 H           4.7979   -3.0816    2.9256 H       1  LIG1        0.0273
     49 H           1.5517   -4.1777    1.5707 H       1  LIG1        0.2105
     50 H          -0.6690   -1.0405    0.7812 H       1  LIG1        0.0362
     51 H           1.0568    0.4000   -2.3098 H       1  LIG1        0.0258
     52 H           0.0663   -0.4964   -3.4288 H       1  LIG1        0.0258
     53 H           1.3242   -1.3346   -2.6319 H       1  LIG1        0.0258
     54 H          -0.9128    2.7898   -0.1634 H       1  LIG1        0.0297
     55 H          -0.1483    1.9792   -1.5043 H       1  LIG1        0.0297
     56 H          -2.4512    0.2427    1.0923 H       1  LIG1        0.0236
     57 H          -3.8967    0.4511    0.1484 H       1  LIG1        0.0236
     58 H          -3.1068    1.8706    0.8490 H       1  LIG1        0.0236
     59 H          -3.8900    0.8984   -3.7838 H       1  LIG1        0.0297
     60 H          -2.2284    1.4520   -4.0055 H       1  LIG1        0.0297
     61 H          -4.5038    4.2071   -0.8960 H       1  LIG1        0.1032
     62 H          -1.6906    6.2442   -3.0501 H       1  LIG1        0.1029
     63 H          -1.0726    3.5959   -3.4870 H       1  LIG1        0.0652
     64 H          -1.5362   -2.5210   -1.3698 H       1  LIG1        0.2103
@<TRIPOS>BOND
     1     2     3    1
     2     3     4    1
     3     4     6    1
     4     6     8    1
     5     8     9    1
     6     2     9    1
     7     9    10    1
     8    10    11    1
     9    11    12    1
    10     8    12    1
    11     6    18    1
    12    18    19    1
    13    19    21    1
    14    21    22    1
    15    21    23    1
    16    23    24    1
    17    24    25    1
    18    18    25    1
    19    25    27    1
    20     4    27    1
    21    21    29    1
    22    22    29    1
    23    29    31    1
    24    31    32    1
    25    23    32    1
    26    34    35   ar
    27    35    36   ar
    28    36    37   ar
    29    37    38   ar
    30    34    38   ar
    31     1     2    2
    32     4     5    1
    33     6     7    1
    34     8    17    1
    35     9    16    1
    36    11    15    2
    37    12    13    1
    38    12    14    1
    39    23    28    1
    40    25    26    1
    41    29    30    1
    42    32    33    1
    43    32    34    1
    44    19    39    1
    45    19    20    1
    46     3    40    1
    47     3    41    1
    48     7    42    1
    49     7    43    1
    50     7    44    1
    51    14    45    1
    52    16    46    1
    53    16    47    1
    54    16    48    1
    55    17    49    1
    56    18    50    1
    57    20    51    1
    58    20    52    1
    59    20    53    1
    60    24    54    1
    61    24    55    1
    62    28    56    1
    63    28    57    1
    64    28    58    1
    65    31    59    1
    66    31    60    1
    67    35    61    1
    68    37    62    1
    69    38    63    1
    70    39    64    1
