REMARK  Name = NuBBE_974
REMARK  12 active torsions:
REMARK  status: ('A' for Active; 'I' for Inactive)
REMARK    1  A    between atoms: C_2  and  C_22
REMARK    2  A    between atoms: N_3  and  C_4
REMARK    3  A    between atoms: C_4  and  C_5
REMARK    4  A    between atoms: C_5  and  C_6
REMARK    5  A    between atoms: C_9  and  O_10
REMARK    6  A    between atoms: O_10  and  C_11
REMARK    7  A    between atoms: C_11  and  C_12
REMARK    8  A    between atoms: C_12  and  O_13
REMARK    9  A    between atoms: C_12  and  C_14
REMARK   10  A    between atoms: C_14  and  C_15
REMARK   11  A    between atoms: C_14  and  O_17
REMARK   12  A    between atoms: C_14  and  C_18
REMARK                            x       y       z     vdW  Elec       q    Type
REMARK                         _______ _______ _______ _____ _____    ______ ____
ROOT
ATOM      1  C   LIG A   1      -2.492  -1.669   0.446  0.00  0.00    -0.046 A 
ATOM      2  C   LIG A   1      -1.734  -2.522  -0.362  0.00  0.00    +0.007 A 
ATOM      3  C   LIG A   1      -0.389  -2.764  -0.065  0.00  0.00    +0.046 A 
ATOM      4  C   LIG A   1       0.227  -2.158   1.034  0.00  0.00    +0.121 A 
ATOM      5  C   LIG A   1      -0.550  -1.401   1.906  0.00  0.00    +0.046 A 
ATOM      6  C   LIG A   1      -1.903  -1.163   1.615  0.00  0.00    +0.007 A 
ENDROOT
BRANCH   1   7
ATOM      7  C   LIG A   1      -3.908  -1.280   0.068  0.00  0.00    +0.054 C 
BRANCH   7   8
ATOM      8  C   LIG A   1      -4.017  -0.548  -1.276  0.00  0.00    +0.109 C 
BRANCH   8  11
ATOM      9  O   LIG A   1      -5.025   2.104  -1.740  0.00  0.00    -0.270 OA
ATOM     10  C   LIG A   1      -3.811   1.919  -1.533  0.00  0.00    +0.244 C 
ATOM     11  N   LIG A   1      -3.258   0.689  -1.288  0.00  0.00    -0.311 N 
ATOM     12  H   LIG A   1      -2.239   0.596  -1.265  0.00  0.00    +0.149 HD
BRANCH  10  13
ATOM     13  C   LIG A   1      -2.874   3.067  -1.580  0.00  0.00    +0.037 A 
ATOM     14  C   LIG A   1      -1.690   3.083  -0.808  0.00  0.00    +0.013 A 
ATOM     15  C   LIG A   1      -0.819   4.166  -0.890  0.00  0.00    +0.001 A 
ATOM     16  C   LIG A   1      -1.113   5.242  -1.726  0.00  0.00    +0.000 A 
ATOM     17  C   LIG A   1      -2.288   5.242  -2.478  0.00  0.00    +0.001 A 
ATOM     18  C   LIG A   1      -3.166   4.162  -2.401  0.00  0.00    +0.013 A 
ENDBRANCH  10  13
ENDBRANCH   8  11
ENDBRANCH   7   8
ENDBRANCH   1   7
BRANCH   4  19
ATOM     19  O   LIG A   1       1.579  -2.348   1.096  0.00  0.00    -0.489 OA
BRANCH  19  20
ATOM     20  C   LIG A   1       2.296  -1.839   2.220  0.00  0.00    +0.263 C 
BRANCH  20  21
ATOM     21  C   LIG A   1       3.814  -2.071   2.054  0.00  0.00    +0.190 C 
BRANCH  21  22
ATOM     22  O   LIG A   1       4.039  -3.491   1.924  0.00  0.00    -0.385 OA
ATOM     23  H   LIG A   1       5.009  -3.592   1.793  0.00  0.00    +0.210 HD
ENDBRANCH  21  22
BRANCH  21  24
ATOM     24  C   LIG A   1       4.548  -1.320   0.913  0.00  0.00    +0.146 C 
ATOM     25  C   LIG A   1       4.072  -1.637  -0.499  0.00  0.00    +0.052 C 
BRANCH  24  26
ATOM     26  C   LIG A   1       4.530   0.200   1.067  0.00  0.00    +0.260 C 
ATOM     27  O   LIG A   1       5.523   0.893   0.831  0.00  0.00    -0.298 OA
ENDBRANCH  24  26
BRANCH  24  28
ATOM     28  O   LIG A   1       5.939  -1.724   0.997  0.00  0.00    -0.379 OA
ATOM     29  H   LIG A   1       6.468  -0.968   0.662  0.00  0.00    +0.211 HD
ENDBRANCH  24  28
ENDBRANCH  21  24
ENDBRANCH  20  21
ENDBRANCH  19  20
ENDBRANCH   4  19
TORSDOF 11
