@<TRIPOS>MOLECULE
NuBBE_1475
 31 33 0 0 0
SMALL
GASTEIGER

@<TRIPOS>ATOM
      1 O          -4.2332    0.9970   -0.2298 O.3     1  LIG1       -0.5032
      2 C          -2.8756    1.1369   -0.1488 C.ar    1  LIG1        0.1641
      3 C          -2.3139    2.4099   -0.0679 C.ar    1  LIG1        0.0258
      4 C          -0.9232    2.5530   -0.0101 C.ar    1  LIG1        0.1334
      5 O          -0.4021    3.8134    0.0714 O.3     1  LIG1       -0.5059
      6 C          -2.0562    0.0043   -0.1627 C.ar    1  LIG1        0.1855
      7 C          -0.6571    0.1436   -0.1486 C.ar    1  LIG1        0.1001
      8 C          -0.0854    1.4271   -0.0458 C.ar    1  LIG1        0.0907
      9 C           1.4102    1.5211    0.0147 C.ar    1  LIG1        0.2008
     10 C           2.2180    0.2766   -0.0944 C.ar    1  LIG1        0.0493
     11 C           3.6175    0.3325   -0.0936 C.ar    1  LIG1       -0.0487
     12 C           4.3616   -0.8446   -0.1956 C.ar    1  LIG1       -0.0575
     13 C           3.7125   -2.0765   -0.2957 C.ar    1  LIG1       -0.0181
     14 C           2.3186   -2.1214   -0.2938 C.ar    1  LIG1        0.1408
     15 O           1.6585   -3.3190   -0.3876 O.3     1  LIG1       -0.5047
     16 C           1.5570   -0.9503   -0.2045 C.ar    1  LIG1        0.0926
     17 N           0.1612   -0.9980   -0.1471 N.ar    1  LIG1       -0.3481
     18 O           2.0019    2.5868    0.1507 O.2     1  LIG1       -0.2864
     19 O          -2.5521   -1.2749   -0.2695 O.3     1  LIG1       -0.4895
     20 C          -3.3730   -1.6214    0.8452 C.3     1  LIG1        0.0791
     21 H          -4.6439    1.8691   -0.3445 H       1  LIG1        0.2923
     22 H          -2.9521    3.2871   -0.0507 H       1  LIG1        0.0692
     23 H          -1.1040    4.4792    0.1209 H       1  LIG1        0.2922
     24 H           4.1249    1.2916   -0.0115 H       1  LIG1        0.0625
     25 H           5.4480   -0.7978   -0.1940 H       1  LIG1        0.0619
     26 H           4.3055   -2.9828   -0.3711 H       1  LIG1        0.0655
     27 H           2.3163   -4.0327   -0.4244 H       1  LIG1        0.2922
     28 H          -0.2730   -1.8791   -0.4094 H       1  LIG1        0.1661
     29 H          -4.4127   -1.3355    0.6631 H       1  LIG1        0.0660
     30 H          -3.0105   -1.1851    1.7835 H       1  LIG1        0.0660
     31 H          -3.3435   -2.7103    0.9513 H       1  LIG1        0.0660
@<TRIPOS>BOND
     1     1     2    1
     2     2     3   ar
     3     3     4   ar
     4     4     5    1
     5     2     6   ar
     6     6     7   ar
     7     7     8   ar
     8     4     8   ar
     9     8     9   ar
    10     9    10   ar
    11    10    11   ar
    12    11    12   ar
    13    12    13   ar
    14    13    14   ar
    15    14    15    1
    16    14    16   ar
    17    10    16   ar
    18    16    17   ar
    19     7    17   ar
    20     9    18    2
    21     6    19    1
    22    19    20    1
    23     1    21    1
    24     3    22    1
    25     5    23    1
    26    11    24    1
    27    12    25    1
    28    13    26    1
    29    15    27    1
    30    17    28    1
    31    20    29    1
    32    20    30    1
    33    20    31    1
