REMARK  Name = NuBBE_1631
REMARK  12 active torsions:
REMARK  status: ('A' for Active; 'I' for Inactive)
REMARK    1  A    between atoms: C_1  and  C_2
REMARK    2  A    between atoms: C_1  and  C_16
REMARK    3  A    between atoms: C_3  and  C_4
REMARK    4  A    between atoms: C_3  and  C_15
REMARK    5  A    between atoms: C_4  and  C_5
REMARK    6  A    between atoms: C_5  and  C_6
REMARK    7  A    between atoms: C_7  and  C_8
REMARK    8  A    between atoms: C_7  and  C_14
REMARK    9  A    between atoms: C_8  and  C_9
REMARK   10  A    between atoms: C_9  and  C_10
REMARK   11  A    between atoms: C_11  and  C_12
REMARK   12  A    between atoms: C_11  and  C_13
REMARK                            x       y       z     vdW  Elec       q    Type
REMARK                         _______ _______ _______ _____ _____    ______ ____
ROOT
ATOM      1  C   LIG A   1      -0.922   1.835   1.754  0.00  0.00    -0.027 C 
ATOM      2  C   LIG A   1      -1.749   1.492   0.745  0.00  0.00    -0.076 C 
ATOM      3  C   LIG A   1      -3.221   1.219   0.891  0.00  0.00    +0.038 C 
ENDROOT
BRANCH   1   4
ATOM      4  C   LIG A   1      -1.253   1.947   3.211  0.00  0.00    +0.042 C 
BRANCH   4   5
ATOM      5  C   LIG A   1      -0.992   0.645   4.014  0.00  0.00    +0.050 C 
ATOM      6  C   LIG A   1       0.475   0.214   3.935  0.00  0.00    +0.064 C 
ATOM      7  C   LIG A   1       0.627  -1.034   4.793  0.00  0.00    +0.201 C 
ATOM      8  O   LIG A   1      -0.200  -2.110   4.325  0.00  0.00    -0.457 OA
ATOM      9  C   LIG A   1      -1.497  -1.900   3.985  0.00  0.00    +0.309 C 
ATOM     10  O   LIG A   1      -2.285  -2.809   3.929  0.00  0.00    -0.251 OA
ATOM     11  C   LIG A   1      -1.862  -0.507   3.503  0.00  0.00    +0.135 C 
ATOM     12  C   LIG A   1       0.240  -0.762   6.218  0.00  0.00    +0.020 C 
ATOM     13  C   LIG A   1      -0.668   0.164   6.550  0.00  0.00    +0.046 C 
ATOM     14  C   LIG A   1      -1.367   0.926   5.481  0.00  0.00    +0.163 C 
ATOM     15  O   LIG A   1      -2.254   1.708   5.806  0.00  0.00    -0.292 OA
ENDBRANCH   4   5
ENDBRANCH   1   4
BRANCH   2  16
ATOM     16  C   LIG A   1      -1.245   1.303  -0.661  0.00  0.00    +0.034 C 
BRANCH  16  17
ATOM     17  C   LIG A   1       0.216   0.888  -0.744  0.00  0.00    +0.031 C 
BRANCH  17  18
ATOM     18  C   LIG A   1       0.607   0.658  -2.152  0.00  0.00    -0.027 C 
ATOM     19  C   LIG A   1       0.775   1.520  -3.172  0.00  0.00    -0.076 C 
ATOM     20  C   LIG A   1       0.448   2.986  -3.046  0.00  0.00    +0.038 C 
BRANCH  19  21
ATOM     21  C   LIG A   1       1.267   1.099  -4.558  0.00  0.00    +0.034 C 
BRANCH  21  22
ATOM     22  C   LIG A   1       1.005  -0.358  -4.998  0.00  0.00    +0.031 C 
BRANCH  22  23
ATOM     23  C   LIG A   1       1.742  -1.385  -4.177  0.00  0.00    -0.028 C 
ATOM     24  C   LIG A   1       2.082  -2.647  -4.455  0.00  0.00    -0.080 C 
ATOM     25  C   LIG A   1       1.961  -3.268  -5.801  0.00  0.00    +0.038 C 
ATOM     26  C   LIG A   1       2.650  -3.509  -3.356  0.00  0.00    +0.038 C 
ENDBRANCH  22  23
ENDBRANCH  21  22
ENDBRANCH  19  21
ENDBRANCH  17  18
ENDBRANCH  16  17
ENDBRANCH   2  16
TORSDOF 8
