REMARK  Name = NuBBE_294
REMARK  3 active torsions:
REMARK  status: ('A' for Active; 'I' for Inactive)
REMARK    1  A    between atoms: C_1  and  O_2
REMARK    2  A    between atoms: O_2  and  C_3
REMARK    3  A    between atoms: C_9  and  C_10
REMARK                            x       y       z     vdW  Elec       q    Type
REMARK                         _______ _______ _______ _____ _____    ______ ____
ROOT
ATOM      1  C   LIG A   1      -1.400   0.620   0.869  0.00  0.00    +0.134 A 
ATOM      2  C   LIG A   1      -1.627   1.992   0.718  0.00  0.00    +0.046 A 
ATOM      3  C   LIG A   1      -0.856   2.737  -0.172  0.00  0.00    +0.007 A 
ATOM      4  C   LIG A   1       0.131   2.107  -0.928  0.00  0.00    +0.047 A 
ATOM      5  C   LIG A   1       0.341   0.731  -0.796  0.00  0.00    +0.142 A 
ATOM      6  O   LIG A   1       1.319   0.193  -1.597  0.00  0.00    -0.460 OA
ATOM      7  C   LIG A   1       1.540  -1.171  -1.546  0.00  0.00    +0.106 A 
ATOM      8  C   LIG A   1       2.597  -1.645  -2.492  0.00  0.00    +0.086 C 
ATOM      9  C   LIG A   1       0.881  -2.002  -0.728  0.00  0.00    +0.093 A 
ATOM     10  C   LIG A   1      -0.421  -0.023   0.100  0.00  0.00    +0.105 A 
ATOM     11  C   LIG A   1      -0.144  -1.473   0.190  0.00  0.00    +0.196 A 
ATOM     12  O   LIG A   1      -0.689  -2.233   0.978  0.00  0.00    -0.287 OA
ENDROOT
BRANCH   1  14
ATOM     13  C   LIG A   1      -1.693  -0.083   3.037  0.00  0.00    +0.277 C 
ATOM     14  O   LIG A   1      -2.235  -0.059   1.716  0.00  0.00    -0.494 OA
ENDBRANCH   1  14
TORSDOF 1
