REMARK  Name = NuBBE_907
REMARK  4 active torsions:
REMARK  status: ('A' for Active; 'I' for Inactive)
REMARK    1  A    between atoms: O_1  and  C_2
REMARK    2  A    between atoms: O_1  and  C_3
REMARK    3  A    between atoms: C_7  and  O_9
REMARK    4  A    between atoms: O_9  and  C_10
REMARK                            x       y       z     vdW  Elec       q    Type
REMARK                         _______ _______ _______ _____ _____    ______ ____
ROOT
ATOM      1  C   LIG A   1      -1.183   0.032   0.252  0.00  0.00    +0.134 A 
ATOM      2  C   LIG A   1      -0.371  -1.113   0.188  0.00  0.00    +0.059 A 
ATOM      3  C   LIG A   1       1.005  -0.951   0.012  0.00  0.00    +0.146 A 
ATOM      4  C   LIG A   1       1.599   0.306  -0.100  0.00  0.00    +0.092 A 
ATOM      5  C   LIG A   1       0.793   1.436  -0.030  0.00  0.00    +0.127 A 
ATOM      6  C   LIG A   1      -0.587   1.296   0.161  0.00  0.00    +0.092 A 
ATOM      7  O   LIG A   1       1.869  -2.066  -0.062  0.00  0.00    -0.422 OA
ATOM      8  C   LIG A   1       1.388  -3.363   0.032  0.00  0.00    +0.337 A 
ATOM      9  O   LIG A   1       2.122  -4.345  -0.051  0.00  0.00    -0.245 OA
ATOM     10  C   LIG A   1      -0.059  -3.519   0.240  0.00  0.00    +0.093 A 
ATOM     11  C   LIG A   1      -0.889  -2.472   0.310  0.00  0.00    +0.022 A 
ENDROOT
BRANCH   1  12
ATOM     12  O   LIG A   1      -2.533  -0.176   0.394  0.00  0.00    -0.494 OA
ATOM     13  C   LIG A   1      -3.366   0.978   0.448  0.00  0.00    +0.277 C 
ENDBRANCH   1  12
BRANCH   5  14
ATOM     14  O   LIG A   1       1.233   2.730  -0.097  0.00  0.00    -0.495 OA
ATOM     15  C   LIG A   1       2.434   2.938  -0.831  0.00  0.00    +0.277 C 
ENDBRANCH   5  14
TORSDOF 2
