REMARK  Name = NuBBE_1303
REMARK  12 active torsions:
REMARK  status: ('A' for Active; 'I' for Inactive)
REMARK    1  A    between atoms: C_2  and  C_3
REMARK    2  A    between atoms: C_2  and  C_15
REMARK    3  A    between atoms: C_4  and  C_5
REMARK    4  A    between atoms: C_8  and  O_13
REMARK    5  A    between atoms: C_9  and  O_10
REMARK    6  A    between atoms: O_10  and  C_11
REMARK    7  A    between atoms: O_13  and  C_14
REMARK    8  A    between atoms: C_18  and  C_19
REMARK    9  A    between atoms: C_18  and  C_29
REMARK   10  A    between atoms: C_23  and  O_27
REMARK   11  A    between atoms: C_25  and  O_26
REMARK   12  A    between atoms: O_27  and  C_28
REMARK                            x       y       z     vdW  Elec       q    Type
REMARK                         _______ _______ _______ _____ _____    ______ ____
ROOT
ATOM      1  C   LIG A   1       0.345   1.758   0.017  0.00  0.00    +0.105 A 
ATOM      2  C   LIG A   1       0.305   2.978   0.731  0.00  0.00    +0.147 A 
ATOM      3  O   LIG A   1      -0.619   3.126   1.737  0.00  0.00    -0.481 OA
ATOM      4  C   LIG A   1      -1.060   4.469   2.029  0.00  0.00    +0.123 C 
ATOM      5  C   LIG A   1      -2.170   4.858   1.043  0.00  0.00    +0.060 C 
ATOM      6  C   LIG A   1       0.065   5.472   1.969  0.00  0.00    +0.020 C 
ATOM      7  C   LIG A   1       1.162   5.248   1.237  0.00  0.00    +0.015 C 
ATOM      8  C   LIG A   1       1.235   4.007   0.459  0.00  0.00    +0.059 A 
ATOM      9  C   LIG A   1       2.213   3.825  -0.536  0.00  0.00    +0.134 A 
ATOM     10  C   LIG A   1       2.234   2.632  -1.259  0.00  0.00    +0.092 A 
ATOM     11  C   LIG A   1       1.301   1.626  -0.996  0.00  0.00    +0.135 A 
ATOM     12  C   LIG A   1      -1.630   4.415   3.451  0.00  0.00    +0.060 C 
ENDROOT
BRANCH   1  14
ATOM     13  O   LIG A   1      -1.790   0.906   0.701  0.00  0.00    -0.287 OA
ATOM     14  C   LIG A   1      -0.628   0.666   0.349  0.00  0.00    +0.193 C 
BRANCH  14  15
ATOM     15  C   LIG A   1      -0.147  -0.743   0.223  0.00  0.00    +0.052 C 
ATOM     16  C   LIG A   1      -0.947  -1.797   0.424  0.00  0.00    +0.012 C 
BRANCH  16  17
ATOM     17  C   LIG A   1      -0.504  -3.182   0.184  0.00  0.00    -0.021 A 
ATOM     18  C   LIG A   1       0.819  -3.604   0.340  0.00  0.00    +0.012 A 
ATOM     19  C   LIG A   1       1.175  -4.933   0.088  0.00  0.00    +0.050 A 
ATOM     20  C   LIG A   1       0.221  -5.865  -0.339  0.00  0.00    +0.162 A 
ATOM     21  C   LIG A   1      -1.112  -5.454  -0.497  0.00  0.00    +0.162 A 
ATOM     22  C   LIG A   1      -1.460  -4.124  -0.212  0.00  0.00    +0.057 A 
BRANCH  21  23
ATOM     23  O   LIG A   1      -2.056  -6.381  -0.852  0.00  0.00    -0.491 OA
ATOM     24  C   LIG A   1      -3.169  -5.896  -1.595  0.00  0.00    +0.277 C 
ENDBRANCH  21  23
BRANCH  20  25
ATOM     25  O   LIG A   1       0.733  -7.125  -0.520  0.00  0.00    -0.491 OA
ATOM     26  C   LIG A   1       0.086  -7.949  -1.483  0.00  0.00    +0.277 C 
ENDBRANCH  20  25
ENDBRANCH  16  17
ENDBRANCH  14  15
ENDBRANCH   1  14
BRANCH  11  27
ATOM     27  O   LIG A   1       1.330   0.515  -1.799  0.00  0.00    -0.506 OA
ATOM     28  H   LIG A   1       2.062   0.573  -2.436  0.00  0.00    +0.292 HD
ENDBRANCH  11  27
BRANCH   9  29
ATOM     29  O   LIG A   1       3.084   4.864  -0.749  0.00  0.00    -0.494 OA
ATOM     30  C   LIG A   1       4.079   4.694  -1.752  0.00  0.00    +0.277 C 
ENDBRANCH   9  29
TORSDOF 7
