REMARK  Name = NuBBE_216
REMARK  0 active torsions:
REMARK  status: ('A' for Active; 'I' for Inactive)
REMARK                            x       y       z     vdW  Elec       q    Type
REMARK                         _______ _______ _______ _____ _____    ______ ____
ROOT
ATOM      1  O   LIG A   1      -3.708  -0.542  -0.001  0.00  0.00    -0.285 OA
ATOM      2  C   LIG A   1      -2.482  -0.462   0.009  0.00  0.00    +0.212 C 
ATOM      3  C   LIG A   1      -1.618  -1.674   0.000  0.00  0.00    +0.032 A 
ATOM      4  C   LIG A   1      -0.157  -1.620   0.004  0.00  0.00    -0.003 A 
ATOM      5  C   LIG A   1       0.417  -2.904   0.001  0.00  0.00    +0.009 A 
ATOM      6  C   LIG A   1      -0.384  -4.102   0.000  0.00  0.00    +0.001 A 
ATOM      7  C   LIG A   1      -1.778  -4.081  -0.001  0.00  0.00    +0.001 A 
ATOM      8  C   LIG A   1      -2.398  -2.857  -0.002  0.00  0.00    +0.012 A 
ATOM      9  C   LIG A   1       0.580  -0.231   0.015  0.00  0.00    +0.038 A 
ATOM     10  C   LIG A   1      -0.450   0.856   0.022  0.00  0.00    +0.023 A 
ATOM     11  C   LIG A   1      -1.853   0.832   0.015  0.00  0.00    +0.119 A 
ATOM     12  N   LIG A   1      -2.727   1.909  -0.002  0.00  0.00    -0.251 NA
ATOM     13  C   LIG A   1      -2.155   3.147  -0.004  0.00  0.00    +0.112 A 
ATOM     14  C   LIG A   1      -0.879   3.328  -0.003  0.00  0.00    +0.028 A 
ATOM     15  C   LIG A   1      -0.092   2.222   0.043  0.00  0.00    -0.010 A 
ATOM     16  C   LIG A   1       1.191   2.563   0.010  0.00  0.00    +0.058 A 
ATOM     17  C   LIG A   1       2.147   1.637   0.012  0.00  0.00    +0.167 A 
ATOM     18  C   LIG A   1       1.972   0.271  -0.001  0.00  0.00    +0.175 A 
ATOM     19  O   LIG A   1       3.308  -0.161  -0.054  0.00  0.00    -0.452 OA
ATOM     20  C   LIG A   1       4.152   1.116  -0.022  0.00  0.00    +0.466 C 
ATOM     21  O   LIG A   1       3.344   2.246  -0.011  0.00  0.00    -0.453 OA
ENDROOT
TORSDOF 0
