REMARK  Name = NuBBE_827
REMARK  12 active torsions:
REMARK  status: ('A' for Active; 'I' for Inactive)
REMARK    1  A    between atoms: C_1  and  C_2
REMARK    2  A    between atoms: C_6  and  C_36
REMARK    3  A    between atoms: C_7  and  O_32
REMARK    4  A    between atoms: C_9  and  O_23
REMARK    5  A    between atoms: O_23  and  C_24
REMARK    6  A    between atoms: C_24  and  C_25
REMARK    7  A    between atoms: C_25  and  C_26
REMARK    8  A    between atoms: C_27  and  C_30
REMARK    9  A    between atoms: O_32  and  C_33
REMARK   10  A    between atoms: C_33  and  C_34
REMARK   11  A    between atoms: C_36  and  O_37
REMARK   12  A    between atoms: O_37  and  C_38
REMARK                            x       y       z     vdW  Elec       q    Type
REMARK                         _______ _______ _______ _____ _____    ______ ____
ROOT
ATOM      1  C   LIG A   1       3.356   1.257   3.748  0.00  0.00    +0.044 C 
ATOM      2  C   LIG A   1       3.332   1.221   2.242  0.00  0.00    +0.097 C 
ATOM      3  C   LIG A   1       3.486   2.566   1.572  0.00  0.00    +0.041 C 
ATOM      4  C   LIG A   1       2.157   3.337   1.544  0.00  0.00    +0.030 C 
ATOM      5  C   LIG A   1       1.289   2.701   0.508  0.00  0.00    -0.013 C 
ATOM      6  C   LIG A   1       0.287   1.812   0.652  0.00  0.00    +0.076 C 
ATOM      7  C   LIG A   1      -0.181   1.085  -0.588  0.00  0.00    +0.254 C 
ATOM      8  C   LIG A   1      -0.061  -0.462  -0.455  0.00  0.00    +0.233 C 
ATOM      9  C   LIG A   1       1.401  -0.986  -0.564  0.00  0.00    +0.113 C 
ATOM     10  C   LIG A   1       2.657  -0.293  -0.009  0.00  0.00    +0.219 C 
ATOM     11  C   LIG A   1       2.817  -0.048   1.487  0.00  0.00    +0.192 C 
ATOM     12  O   LIG A   1       4.216   0.220   1.766  0.00  0.00    -0.361 OA
ATOM     13  O   LIG A   1       3.680  -1.269  -0.373  0.00  0.00    -0.455 OA
ATOM     14  C   LIG A   1       3.174  -2.522  -0.220  0.00  0.00    +0.336 C 
ATOM     15  O   LIG A   1       3.809  -3.571  -0.218  0.00  0.00    -0.245 OA
ATOM     16  C   LIG A   1       1.701  -2.379  -0.099  0.00  0.00    +0.040 C 
ATOM     17  C   LIG A   1       0.934  -3.349   0.419  0.00  0.00    +0.020 C 
ENDROOT
BRANCH   6  18
ATOM     18  C   LIG A   1      -0.297   1.408   1.972  0.00  0.00    +0.338 C 
ATOM     19  O   LIG A   1       0.276   1.475   3.044  0.00  0.00    -0.245 OA
BRANCH  18  20
ATOM     20  O   LIG A   1      -1.537   0.899   1.780  0.00  0.00    -0.465 OA
ATOM     21  C   LIG A   1      -2.206   0.370   2.928  0.00  0.00    +0.280 C 
ENDBRANCH  18  20
ENDBRANCH   6  18
BRANCH   8  22
ATOM     22  O   LIG A   1      -0.757  -1.060  -1.609  0.00  0.00    -0.454 OA
BRANCH  22  23
ATOM     23  C   LIG A   1      -2.113  -1.199  -1.570  0.00  0.00    +0.342 C 
ATOM     24  O   LIG A   1      -2.840  -0.882  -0.639  0.00  0.00    -0.247 OA
BRANCH  23  25
ATOM     25  C   LIG A   1      -2.668  -1.823  -2.808  0.00  0.00    +0.189 C 
ATOM     26  C   LIG A   1      -3.512  -1.008  -3.747  0.00  0.00    +0.056 C 
ATOM     27  C   LIG A   1      -2.881  -3.331  -2.843  0.00  0.00    +0.159 C 
ATOM     28  O   LIG A   1      -1.761  -2.725  -3.486  0.00  0.00    -0.353 OA
ATOM     29  C   LIG A   1      -2.554  -4.209  -1.690  0.00  0.00    +0.041 C 
ENDBRANCH  23  25
ENDBRANCH  22  23
ENDBRANCH   8  22
BRANCH   7  30
ATOM     30  O   LIG A   1      -1.528   1.500  -0.866  0.00  0.00    -0.453 OA
BRANCH  30  31
ATOM     31  C   LIG A   1      -1.672   2.658  -1.560  0.00  0.00    +0.305 C 
ATOM     32  C   LIG A   1      -3.124   2.997  -1.679  0.00  0.00    +0.136 C 
ATOM     33  O   LIG A   1      -0.763   3.314  -2.046  0.00  0.00    -0.251 OA
ENDBRANCH  30  31
ENDBRANCH   7  30
TORSDOF 7
