REMARK  Name = NuBBE_2266
REMARK  7 active torsions:
REMARK  status: ('A' for Active; 'I' for Inactive)
REMARK    1  A    between atoms: C_2  and  C_4
REMARK    2  A    between atoms: C_4  and  C_5
REMARK    3  A    between atoms: C_4  and  C_6
REMARK    4  A    between atoms: C_4  and  O_7
REMARK    5  A    between atoms: C_8  and  O_18
REMARK    6  A    between atoms: C_12  and  C_17
REMARK    7  A    between atoms: C_15  and  C_16
REMARK                            x       y       z     vdW  Elec       q    Type
REMARK                         _______ _______ _______ _____ _____    ______ ____
ROOT
ATOM      1  C   LIG A   1      -0.016   1.105   0.083  0.00  0.00    +0.044 C 
ATOM      2  C   LIG A   1      -1.287   0.296  -0.265  0.00  0.00    +0.053 C 
ATOM      3  C   LIG A   1      -1.214  -1.048   0.475  0.00  0.00    +0.125 C 
ATOM      4  C   LIG A   1       0.014  -1.851   0.028  0.00  0.00    +0.067 C 
ATOM      5  C   LIG A   1       1.306  -1.072  -0.026  0.00  0.00    -0.039 A 
ATOM      6  C   LIG A   1       1.291   0.342  -0.024  0.00  0.00    -0.041 A 
ATOM      7  C   LIG A   1       2.513   1.055  -0.058  0.00  0.00    -0.047 A 
ATOM      8  C   LIG A   1       3.720   0.352  -0.149  0.00  0.00    +0.004 A 
ATOM      9  C   LIG A   1       3.731  -1.038  -0.186  0.00  0.00    +0.004 A 
ATOM     10  C   LIG A   1       2.536  -1.763  -0.133  0.00  0.00    -0.047 A 
ATOM     11  C   LIG A   1       2.603  -3.267  -0.164  0.00  0.00    +0.044 C 
ATOM     12  C   LIG A   1       2.558   2.560  -0.022  0.00  0.00    +0.044 C 
ENDROOT
BRANCH   2  13
ATOM     13  C   LIG A   1      -2.585   1.134  -0.021  0.00  0.00    +0.066 C 
ATOM     14  C   LIG A   1      -3.827   0.531  -0.694  0.00  0.00    +0.041 C 
ATOM     15  C   LIG A   1      -2.889   1.385   1.460  0.00  0.00    +0.041 C 
BRANCH  13  16
ATOM     16  O   LIG A   1      -2.402   2.429  -0.622  0.00  0.00    -0.389 OA
ATOM     17  H   LIG A   1      -2.345   2.308  -1.585  0.00  0.00    +0.210 HD
ENDBRANCH  13  16
ENDBRANCH   2  13
BRANCH   3  18
ATOM     18  O   LIG A   1      -2.374  -1.845   0.244  0.00  0.00    -0.391 OA
ATOM     19  H   LIG A   1      -2.394  -2.090  -0.697  0.00  0.00    +0.210 HD
ENDBRANCH   3  18
TORSDOF 3
