REMARK  Name = NuBBE_269
REMARK  7 active torsions:
REMARK  status: ('A' for Active; 'I' for Inactive)
REMARK    1  A    between atoms: C_8  and  O_9
REMARK    2  A    between atoms: O_9  and  C_10
REMARK    3  A    between atoms: C_12  and  C_14
REMARK    4  A    between atoms: C_19  and  O_24
REMARK    5  A    between atoms: C_21  and  O_22
REMARK    6  A    between atoms: O_22  and  C_23
REMARK    7  A    between atoms: O_24  and  C_25
REMARK                            x       y       z     vdW  Elec       q    Type
REMARK                         _______ _______ _______ _____ _____    ______ ____
ROOT
ATOM      1 CL   LIG A   1      -3.400  -1.748  -0.306  0.00  0.00    -0.076 Cl
ATOM      2  C   LIG A   1      -1.680  -1.891  -0.339  0.00  0.00    +0.125 A 
ATOM      3  C   LIG A   1      -0.892  -0.751  -0.404  0.00  0.00    +0.159 A 
ATOM      4  O   LIG A   1      -1.387   0.530  -0.433  0.00  0.00    -0.467 OA
ATOM      5  C   LIG A   1       0.484  -0.852  -0.439  0.00  0.00    +0.107 A 
ATOM      6  C   LIG A   1       0.981   0.507  -0.481  0.00  0.00    +0.221 C 
ATOM      7  C   LIG A   1      -0.238   1.435  -0.415  0.00  0.00    +0.231 C 
ATOM      8  C   LIG A   1      -0.303   2.196   0.908  0.00  0.00    +0.152 C 
ATOM      9  C   LIG A   1      -0.845   3.425   0.989  0.00  0.00    +0.091 C 
ATOM     10  C   LIG A   1      -0.352   2.356  -1.655  0.00  0.00    +0.053 C 
ATOM     11  C   LIG A   1       0.910   3.181  -1.951  0.00  0.00    +0.013 C 
ATOM     12  C   LIG A   1      -1.556   3.293  -1.482  0.00  0.00    +0.087 C 
ATOM     13  C   LIG A   1      -1.471   4.071  -0.189  0.00  0.00    +0.160 C 
ATOM     14  O   LIG A   1      -1.958   5.192  -0.067  0.00  0.00    -0.293 OA
ATOM     15  O   LIG A   1       2.155   0.822  -0.528  0.00  0.00    -0.287 OA
ATOM     16  C   LIG A   1      -1.048  -3.146  -0.288  0.00  0.00    +0.145 A 
ATOM     17  C   LIG A   1       0.359  -3.225  -0.338  0.00  0.00    +0.093 A 
ATOM     18  C   LIG A   1       1.146  -2.069  -0.401  0.00  0.00    +0.138 A 
ENDROOT
BRANCH   8  19
ATOM     19  O   LIG A   1       0.218   1.494   1.983  0.00  0.00    -0.495 OA
ATOM     20  C   LIG A   1       0.220   2.124   3.260  0.00  0.00    +0.277 C 
ENDBRANCH   8  19
BRANCH  18  21
ATOM     21  O   LIG A   1       2.506  -2.070  -0.490  0.00  0.00    -0.494 OA
ATOM     22  C   LIG A   1       3.181  -3.146   0.153  0.00  0.00    +0.277 C 
ENDBRANCH  18  21
BRANCH  16  23
ATOM     23  O   LIG A   1      -1.852  -4.259  -0.257  0.00  0.00    -0.493 OA
ATOM     24  C   LIG A   1      -1.335  -5.386   0.444  0.00  0.00    +0.277 C 
ENDBRANCH  16  23
TORSDOF 3
