@<TRIPOS>MOLECULE
NuBBE_1278
 42 43 0 0 0
SMALL
GASTEIGER

@<TRIPOS>ATOM
      1 C          -0.8167    0.8178    3.1926 C.3     1  LIG1       -0.0435
      2 C           0.1552    1.3435    2.1727 C.2     1  LIG1       -0.0729
      3 C           1.1139    2.2199    2.5318 C.2     1  LIG1       -0.0847
      4 C           2.0939    2.8445    1.5804 C.3     1  LIG1       -0.0340
      5 C           1.8124    2.5333    0.1069 C.3     1  LIG1       -0.0436
      6 C           1.2953    1.0905   -0.1079 C.3     1  LIG1       -0.0253
      7 C           2.4034    0.0893    0.3095 C.3     1  LIG1       -0.0590
      8 C          -0.0184    0.9247    0.7150 C.3     1  LIG1       -0.0144
      9 H          -0.7553    1.6397    0.3139 H       1  LIG1        0.0351
     10 C          -0.6355   -0.4714    0.4883 C.3     1  LIG1       -0.0406
     11 C          -0.9412   -0.7435   -1.0076 C.3     1  LIG1       -0.0121
     12 H          -1.7052   -0.0142   -1.3153 H       1  LIG1        0.0328
     13 C          -1.5459   -2.1691   -1.2389 C.3     1  LIG1        0.0633
     14 C          -1.8233   -2.4522   -2.7226 C.3     1  LIG1       -0.0361
     15 O          -0.6411   -3.1686   -0.7607 O.3     1  LIG1       -0.3888
     16 C          -2.8552   -2.3621   -0.4598 C.3     1  LIG1       -0.0361
     17 C           0.3013   -0.4713   -1.8839 C.3     1  LIG1       -0.0471
     18 C           0.9578    0.8819   -1.5994 C.3     1  LIG1       -0.0467
     19 H          -0.6631    1.2686    4.1790 H       1  LIG1        0.0274
     20 H          -0.7061   -0.2649    3.3081 H       1  LIG1        0.0274
     21 H          -1.8447    1.0408    2.8893 H       1  LIG1        0.0274
     22 H           1.2143    2.5184    3.5734 H       1  LIG1        0.0572
     23 H           3.0997    2.4968    1.8449 H       1  LIG1        0.0308
     24 H           2.0927    3.9316    1.7217 H       1  LIG1        0.0308
     25 H           2.7204    2.7139   -0.4822 H       1  LIG1        0.0274
     26 H           1.0631    3.2470   -0.2628 H       1  LIG1        0.0274
     27 H           2.6638    0.1661    1.3693 H       1  LIG1        0.0235
     28 H           3.3195    0.2713   -0.2646 H       1  LIG1        0.0235
     29 H           2.1191   -0.9522    0.1370 H       1  LIG1        0.0235
     30 H          -1.5770   -0.5293    1.0445 H       1  LIG1        0.0275
     31 H           0.0159   -1.2506    0.8999 H       1  LIG1        0.0275
     32 H          -0.8980   -2.5065   -3.3055 H       1  LIG1        0.0257
     33 H          -2.4748   -1.6896   -3.1614 H       1  LIG1        0.0257
     34 H          -2.3041   -3.4296   -2.8488 H       1  LIG1        0.0257
     35 H           0.1415   -3.1765   -1.3363 H       1  LIG1        0.2101
     36 H          -3.5856   -1.5829   -0.7004 H       1  LIG1        0.0257
     37 H          -2.6867   -2.3710    0.6220 H       1  LIG1        0.0257
     38 H          -3.3049   -3.3355   -0.6903 H       1  LIG1        0.0257
     39 H           0.0170   -0.4801   -2.9425 H       1  LIG1        0.0269
     40 H           1.0409   -1.2690   -1.7606 H       1  LIG1        0.0269
     41 H           0.2772    1.6745   -1.9383 H       1  LIG1        0.0271
     42 H           1.8644    0.9758   -2.2105 H       1  LIG1        0.0271
@<TRIPOS>BOND
     1     1     2    1
     2     2     3    2
     3     3     4    1
     4     4     5    1
     5     5     6    1
     6     6     7    1
     7     6     8    1
     8     8     9    1
     9     2     8    1
    10     8    10    1
    11    10    11    1
    12    11    12    1
    13    11    13    1
    14    13    14    1
    15    13    15    1
    16    13    16    1
    17    11    17    1
    18    17    18    1
    19     6    18    1
    20     1    19    1
    21     1    20    1
    22     1    21    1
    23     3    22    1
    24     4    23    1
    25     4    24    1
    26     5    25    1
    27     5    26    1
    28     7    27    1
    29     7    28    1
    30     7    29    1
    31    10    30    1
    32    10    31    1
    33    14    32    1
    34    14    33    1
    35    14    34    1
    36    15    35    1
    37    16    36    1
    38    16    37    1
    39    16    38    1
    40    17    39    1
    41    17    40    1
    42    18    41    1
    43    18    42    1
