@<TRIPOS>MOLECULE
NuBBE_425
 67 66 0 0 0
SMALL
GASTEIGER

@<TRIPOS>ATOM
      1 N          -1.3949    0.0758   -2.3211 N.pl3   1  LIG1       -0.1294
      2 C          -0.8084   -0.7240   -1.4881 C.cat   1  LIG1        0.3832
      3 N          -1.3391   -0.9388   -0.2383 N.pl3   1  LIG1       -0.2616
      4 C          -2.7695   -1.0051   -0.0960 C.3     1  LIG1        0.0563
      5 C          -0.5777   -0.9341    1.0124 C.3     1  LIG1        0.0857
      6 C          -0.9798    0.0740    2.0913 C.2     1  LIG1       -0.0517
      7 C          -2.1073    0.4641    2.7506 C.2     1  LIG1       -0.0733
      8 C          -1.9629    1.4531    3.8778 C.3     1  LIG1       -0.0437
      9 C          -3.5496    0.0086    2.5354 C.3     1  LIG1       -0.0285
     10 C          -4.6807    0.4914    3.4406 C.3     1  LIG1       -0.0308
     11 C          -6.0785    0.0613    3.0524 C.2     1  LIG1       -0.0850
     12 C          -6.6621   -1.1553    3.0560 C.2     1  LIG1       -0.0796
     13 C          -5.9951   -2.4837    3.2794 C.3     1  LIG1       -0.0440
     14 C          -8.1612   -1.2552    2.8992 C.3     1  LIG1       -0.0440
     15 N           0.3166   -1.4068   -1.8774 N.pl3   1  LIG1       -0.2616
     16 C           0.8840   -2.5395   -1.1561 C.3     1  LIG1        0.0563
     17 C           1.0607   -0.9286   -3.0729 C.3     1  LIG1        0.0857
     18 C           2.4535   -0.7981   -2.6529 C.2     1  LIG1       -0.0517
     19 C           3.3008    0.3184   -2.4683 C.2     1  LIG1       -0.0733
     20 C           3.0962    1.7082   -2.9818 C.3     1  LIG1       -0.0285
     21 C           4.3573    2.5048   -3.4848 C.3     1  LIG1       -0.0308
     22 C           5.4401    2.7691   -2.4614 C.2     1  LIG1       -0.0850
     23 C           6.5829    2.0598   -2.2824 C.2     1  LIG1       -0.0796
     24 C           6.9917    0.8316   -3.1000 C.3     1  LIG1       -0.0440
     25 C           7.3675    2.2593   -1.0058 C.3     1  LIG1       -0.0440
     26 C           4.3886   -0.0698   -1.5613 C.3     1  LIG1       -0.0437
     27 H          -2.1803    0.5159   -1.8443 H       1  LIG1        0.3062
     28 H          -3.2797   -1.7674   -0.6939 H       1  LIG1        0.0620
     29 H          -3.2134   -0.0207   -0.2844 H       1  LIG1        0.0620
     30 H          -2.9618   -1.3546    0.9013 H       1  LIG1        0.0620
     31 H           0.4719   -0.7027    0.7870 H       1  LIG1        0.0702
     32 H          -0.5687   -1.9377    1.4609 H       1  LIG1        0.0702
     33 H          -0.0583    0.5416    2.4555 H       1  LIG1        0.0603
     34 H          -0.9572    1.8728    3.9556 H       1  LIG1        0.0274
     35 H          -2.1961    0.9538    4.8245 H       1  LIG1        0.0274
     36 H          -2.6495    2.2906    3.7313 H       1  LIG1        0.0274
     37 H          -3.5622   -1.0788    2.6032 H       1  LIG1        0.0313
     38 H          -3.8555    0.3782    1.5557 H       1  LIG1        0.0313
     39 H          -4.6914    1.5875    3.3911 H       1  LIG1        0.0310
     40 H          -4.4914    0.2137    4.4801 H       1  LIG1        0.0310
     41 H          -6.7264    0.9160    2.8466 H       1  LIG1        0.0572
     42 H          -4.9454   -2.4985    2.9901 H       1  LIG1        0.0274
     43 H          -6.4807   -3.2562    2.6687 H       1  LIG1        0.0274
     44 H          -6.0780   -2.7835    4.3272 H       1  LIG1        0.0274
     45 H          -8.6210   -0.2950    2.6434 H       1  LIG1        0.0274
     46 H          -8.5988   -1.5878    3.8476 H       1  LIG1        0.0274
     47 H          -8.4332   -1.9730    2.1195 H       1  LIG1        0.0274
     48 H           0.1198   -3.2366   -0.7880 H       1  LIG1        0.0620
     49 H           1.4777   -2.1791   -0.3093 H       1  LIG1        0.0620
     50 H           1.5582   -3.1418   -1.7753 H       1  LIG1        0.0620
     51 H           0.6606    0.0110   -3.4706 H       1  LIG1        0.0702
     52 H           0.9999   -1.6813   -3.8742 H       1  LIG1        0.0702
     53 H           2.8809   -1.6960   -2.2936 H       1  LIG1        0.0603
     54 H           2.5812    2.3028   -2.2251 H       1  LIG1        0.0313
     55 H           2.4217    1.6739   -3.8619 H       1  LIG1        0.0313
     56 H           4.0061    3.4968   -3.8184 H       1  LIG1        0.0310
     57 H           4.7832    2.0377   -4.3774 H       1  LIG1        0.0310
     58 H           5.2052    3.5696   -1.7576 H       1  LIG1        0.0572
     59 H           6.1492    0.2685   -3.5279 H       1  LIG1        0.0274
     60 H           7.5122    0.1091   -2.4531 H       1  LIG1        0.0274
     61 H           7.6304    1.0990   -3.9383 H       1  LIG1        0.0274
     62 H           7.2214    3.2571   -0.5811 H       1  LIG1        0.0274
     63 H           8.4344    2.1087   -1.1804 H       1  LIG1        0.0274
     64 H           7.0423    1.5324   -0.2457 H       1  LIG1        0.0274
     65 H           4.7594   -1.0941   -1.6567 H       1  LIG1        0.0274
     66 H           4.2309    0.2102   -0.5158 H       1  LIG1        0.0274
     67 H           5.2296    0.4971   -1.8627 H       1  LIG1        0.0274
@<TRIPOS>BOND
     1     1     2    2
     2     2     3    1
     3     3     4    1
     4     3     5    1
     5     5     6    1
     6     6     7    2
     7     7     8    1
     8     7     9    1
     9     9    10    1
    10    10    11    1
    11    11    12    2
    12    12    13    1
    13    12    14    1
    14     2    15    1
    15    15    16    1
    16    15    17    1
    17    17    18    1
    18    18    19    2
    19    19    20    1
    20    20    21    1
    21    21    22    1
    22    22    23    2
    23    23    24    1
    24    23    25    1
    25    19    26    1
    26     1    27    1
    27     4    28    1
    28     4    29    1
    29     4    30    1
    30     5    31    1
    31     5    32    1
    32     6    33    1
    33     8    34    1
    34     8    35    1
    35     8    36    1
    36     9    37    1
    37     9    38    1
    38    10    39    1
    39    10    40    1
    40    11    41    1
    41    13    42    1
    42    13    43    1
    43    13    44    1
    44    14    45    1
    45    14    46    1
    46    14    47    1
    47    16    48    1
    48    16    49    1
    49    16    50    1
    50    17    51    1
    51    17    52    1
    52    18    53    1
    53    20    54    1
    54    20    55    1
    55    21    56    1
    56    21    57    1
    57    22    58    1
    58    24    59    1
    59    24    60    1
    60    24    61    1
    61    25    62    1
    62    25    63    1
    63    25    64    1
    64    26    65    1
    65    26    66    1
    66    26    67    1
