@<TRIPOS>MOLECULE
NuBBE_543
 105 110 0 0 0
SMALL
GASTEIGER

@<TRIPOS>ATOM
      1 C          -3.8291   -4.0374    3.1797 C.3     1  LIG1       -0.0574
      2 C          -2.9179   -2.8048    3.3790 C.3     1  LIG1       -0.0083
      3 C          -3.7898   -1.5287    3.3319 C.3     1  LIG1       -0.0445
      4 C          -2.9926   -0.2204    3.2554 C.3     1  LIG1       -0.0360
      5 C          -1.9710   -0.1819    2.0900 C.3     1  LIG1        0.0767
      6 C          -1.0948    1.0775    2.2426 C.3     1  LIG1       -0.0358
      7 C          -0.1056    1.1755    1.0872 C.3     1  LIG1       -0.0424
      8 C           0.8483   -0.0439    0.9193 C.3     1  LIG1       -0.0050
      9 C           1.2749   -0.2456   -0.6255 C.3     1  LIG1       -0.0194
     10 C           1.5695    1.0984   -1.3559 C.3     1  LIG1       -0.0463
     11 C           3.0103    1.4338   -1.6464 C.3     1  LIG1       -0.0485
     12 C           3.7151    0.2295   -2.2727 C.3     1  LIG1       -0.0253
     13 H           3.0163   -0.1971   -3.0121 H       1  LIG1        0.0313
     14 C           4.9587    0.6349   -3.1411 C.3     1  LIG1        0.0227
     15 C           4.4420    1.3579   -4.4323 C.3     1  LIG1        0.0523
     16 O           5.5243    1.7118   -5.2922 O.3     1  LIG1       -0.3944
     17 C           5.7055   -0.6405   -3.6118 C.3     1  LIG1        0.0888
     18 H           5.1201   -1.1433   -4.3938 H       1  LIG1        0.0625
     19 C           5.9600   -1.6587   -2.4957 C.3     1  LIG1        0.0822
     20 H           6.6819   -1.2661   -1.7735 H       1  LIG1        0.0619
     21 C           4.6530   -2.0855   -1.8223 C.3     1  LIG1       -0.0184
     22 C           3.8748   -0.8970   -1.1863 C.3     1  LIG1       -0.0225
     23 C           2.3936   -1.3675   -0.7985 C.3     1  LIG1       -0.0257
     24 H           2.0930   -1.8968   -1.7180 H       1  LIG1        0.0315
     25 C           2.2745   -2.4915    0.2758 C.3     1  LIG1       -0.0306
     26 C           0.9912   -2.4961    1.0832 C.2     1  LIG1       -0.0836
     27 C           0.2694   -1.3899    1.3848 C.2     1  LIG1       -0.0604
     28 C          -1.0144   -1.4195    2.2376 C.3     1  LIG1        0.0229
     29 H          -0.5924   -1.3087    3.2490 H       1  LIG1        0.0382
     30 C          -1.7900   -2.7796    2.3020 C.3     1  LIG1        0.0678
     31 H          -1.0861   -3.5721    2.5745 H       1  LIG1        0.0605
     32 O          -2.2827   -3.1754    1.0244 O.3     1  LIG1       -0.3906
     33 C           4.6896   -0.4547    0.0500 C.3     1  LIG1       -0.0589
     34 O           6.5795   -2.8149   -3.0722 O.3     1  LIG1       -0.3892
     35 O           6.9672   -0.3284   -4.2213 O.3     1  LIG1       -0.3886
     36 C           5.9042    1.6216   -2.4185 C.3     1  LIG1       -0.0547
     37 C           0.0234   -0.8207   -1.4229 C.3     1  LIG1       -0.0585
     38 C           2.0274    0.2925    1.8703 C.3     1  LIG1       -0.0553
     39 C          -2.7733   -0.0871    0.7718 C.2     1  LIG1        0.3162
     40 O          -2.9250    1.1835    0.3264 O.3     1  LIG1       -0.4318
     41 C          -3.6294    1.4757   -0.9089 C.3     1  LIG1        0.2337
     42 H          -3.0181    1.1327   -1.7524 H       1  LIG1        0.1085
     43 O          -3.6636    2.9304   -1.0283 O.3     1  LIG1       -0.3312
     44 C          -4.8302    3.5586   -0.4539 C.3     1  LIG1        0.1140
     45 H          -5.6060    3.5931   -1.2298 H       1  LIG1        0.0647
     46 C          -5.3310    2.7373    0.7384 C.3     1  LIG1        0.1120
     47 H          -4.5136    2.4926    1.4257 H       1  LIG1        0.0647
     48 C          -5.9278    1.4429    0.1510 C.3     1  LIG1        0.1152
     49 H          -6.9312    1.6569   -0.2385 H       1  LIG1        0.0648
     50 O          -6.0843    0.4663    1.1868 O.3     1  LIG1       -0.3864
     51 O          -6.3163    3.3849    1.5380 O.3     1  LIG1       -0.3865
     52 C          -4.5248    5.0246   -0.1118 C.3     1  LIG1        0.0731
     53 O          -3.5021    5.1600    0.8724 O.3     1  LIG1       -0.3924
     54 C          -5.0483    0.8568   -0.9674 C.3     1  LIG1        0.1455
     55 H          -5.0070   -0.2287   -0.8766 H       1  LIG1        0.0683
     56 O          -5.6566    1.0982   -2.2469 O.3     1  LIG1       -0.3829
     57 O          -3.3048   -1.0618    0.2201 O.2     1  LIG1       -0.2501
     58 C          -2.2828   -2.9452    4.7826 C.3     1  LIG1       -0.0574
     59 H          -4.3303   -4.0247    2.2059 H       1  LIG1        0.0236
     60 H          -4.6113   -4.0792    3.9464 H       1  LIG1        0.0236
     61 H          -3.2503   -4.9662    3.2454 H       1  LIG1        0.0236
     62 H          -4.4301   -1.4886    4.2241 H       1  LIG1        0.0272
     63 H          -4.4803   -1.5784    2.4822 H       1  LIG1        0.0272
     64 H          -2.4667   -0.0755    4.2083 H       1  LIG1        0.0276
     65 H          -3.6983    0.6165    3.1738 H       1  LIG1        0.0276
     66 H          -0.5565    1.0607    3.1989 H       1  LIG1        0.0276
     67 H          -1.7068    1.9886    2.2687 H       1  LIG1        0.0276
     68 H           0.4766    2.0950    1.2408 H       1  LIG1        0.0274
     69 H          -0.6473    1.3608    0.1594 H       1  LIG1        0.0274
     70 H           1.1360    1.9608   -0.8471 H       1  LIG1        0.0271
     71 H           1.0634    1.0979   -2.3324 H       1  LIG1        0.0271
     72 H           3.5087    1.7923   -0.7432 H       1  LIG1        0.0268
     73 H           3.0009    2.2927   -2.3238 H       1  LIG1        0.0268
     74 H           3.7701    0.7053   -5.0023 H       1  LIG1        0.0563
     75 H           3.8958    2.2756   -4.1978 H       1  LIG1        0.0563
     76 H           5.1557    2.3092   -5.9698 H       1  LIG1        0.2094
     77 H           4.8697   -2.8557   -1.0703 H       1  LIG1        0.0296
     78 H           4.0289   -2.5910   -2.5719 H       1  LIG1        0.0296
     79 H           3.1089   -2.4898    0.9818 H       1  LIG1        0.0310
     80 H           2.3422   -3.4589   -0.2402 H       1  LIG1        0.0310
     81 H           0.6804   -3.4797    1.4241 H       1  LIG1        0.0572
     82 H          -2.9502   -2.5286    0.7179 H       1  LIG1        0.2098
     83 H           5.7188   -0.1930   -0.1937 H       1  LIG1        0.0235
     84 H           4.7725   -1.2556    0.7903 H       1  LIG1        0.0235
     85 H           4.2743    0.4136    0.5532 H       1  LIG1        0.0235
     86 H           7.2764   -2.4499   -3.6561 H       1  LIG1        0.2099
     87 H           6.7859    0.4218   -4.8309 H       1  LIG1        0.2099
     88 H           6.3545    1.1952   -1.5238 H       1  LIG1        0.0237
     89 H           5.3793    2.5371   -2.1245 H       1  LIG1        0.0237
     90 H           6.7323    1.9404   -3.0604 H       1  LIG1        0.0237
     91 H          -0.8505   -0.1723   -1.3447 H       1  LIG1        0.0235
     92 H          -0.2749   -1.8244   -1.1039 H       1  LIG1        0.0235
     93 H           0.2581   -0.9166   -2.4914 H       1  LIG1        0.0235
     94 H           2.5368    1.2100    1.5598 H       1  LIG1        0.0238
     95 H           2.7697   -0.5015    1.9545 H       1  LIG1        0.0238
     96 H           1.6711    0.4594    2.8950 H       1  LIG1        0.0238
     97 H          -6.2820    0.9525    2.0081 H       1  LIG1        0.2100
     98 H          -5.8533    4.0621    2.0698 H       1  LIG1        0.2100
     99 H          -4.2233    5.5720   -1.0124 H       1  LIG1        0.0584
    100 H          -5.4155    5.5193    0.2891 H       1  LIG1        0.0584
    101 H          -2.9798    4.3379    0.8749 H       1  LIG1        0.2095
    102 H          -6.4185    0.4897   -2.2977 H       1  LIG1        0.2102
    103 H          -1.6164   -2.1149    5.0297 H       1  LIG1        0.0236
    104 H          -1.6965   -3.8695    4.8531 H       1  LIG1        0.0236
    105 H          -3.0534   -2.9908    5.5606 H       1  LIG1        0.0236
@<TRIPOS>BOND
     1     2     3    1
     2     3     4    1
     3     4     5    1
     4     5     6    1
     5     6     7    1
     6     7     8    1
     7     8     9    1
     8     9    10    1
     9    10    11    1
    10    11    12    1
    11    12    14    1
    12    15    16    1
    13    14    17    1
    14    17    19    1
    15    19    21    1
    16    21    22    1
    17    22    23    1
    18    23    25    1
    19    25    26    1
    20    26    27    2
    21    27    28    1
    22    28    30    1
    23    12    22    1
    24    23     9    1
    25    27     8    1
    26    28     5    1
    27    39    40    1
    28    40    41    1
    29    41    42    1
    30    41    43    1
    31    43    44    1
    32    44    46    1
    33    46    47    1
    34    46    48    1
    35    46    51    1
    36    52    53    1
    37    41    54    1
    38    48    54    1
    39    39    57    2
    40    30     2    1
    41     1     2    1
    42     2    58    1
    43     5    39    1
    44     8    38    1
    45     9    37    1
    46    12    13    1
    47    14    15    1
    48    14    36    1
    49    17    18    1
    50    17    35    1
    51    22    33    1
    52    23    24    1
    53    28    29    1
    54    19    34    1
    55    19    20    1
    56    30    32    1
    57    30    31    1
    58    44    52    1
    59    44    45    1
    60    48    50    1
    61    48    49    1
    62    54    56    1
    63    54    55    1
    64     1    59    1
    65     1    60    1
    66     1    61    1
    67     3    62    1
    68     3    63    1
    69     4    64    1
    70     4    65    1
    71     6    66    1
    72     6    67    1
    73     7    68    1
    74     7    69    1
    75    10    70    1
    76    10    71    1
    77    11    72    1
    78    11    73    1
    79    15    74    1
    80    15    75    1
    81    16    76    1
    82    21    77    1
    83    21    78    1
    84    25    79    1
    85    25    80    1
    86    26    81    1
    87    32    82    1
    88    33    83    1
    89    33    84    1
    90    33    85    1
    91    34    86    1
    92    35    87    1
    93    36    88    1
    94    36    89    1
    95    36    90    1
    96    37    91    1
    97    37    92    1
    98    37    93    1
    99    38    94    1
   100    38    95    1
   101    38    96    1
   102    50    97    1
   103    51    98    1
   104    52    99    1
   105    52   100    1
   106    53   101    1
   107    56   102    1
   108    58   103    1
   109    58   104    1
   110    58   105    1
