@<TRIPOS>MOLECULE
NuBBE_565
 30 32 0 0 0
SMALL
GASTEIGER

@<TRIPOS>ATOM
      1 O          -4.9968    2.0593    0.0260 O.3     1  LIG1       -0.5066
      2 C          -3.6457    2.2406    0.0430 C.ar    1  LIG1        0.1204
      3 C          -3.0869    3.5171    0.0441 C.ar    1  LIG1       -0.0193
      4 C          -1.6977    3.6566    0.0607 C.ar    1  LIG1       -0.0439
      5 C          -0.8880    2.5157    0.0758 C.ar    1  LIG1        0.0642
      6 C           0.5770    2.6322    0.0900 C.ar    1  LIG1        0.1931
      7 C           1.3367    1.3718    0.1051 C.ar    1  LIG1        0.0287
      8 C           0.6746    0.2053    0.1120 C.ar    1  LIG1        0.1393
      9 C           1.3833   -1.0910    0.1162 C.ar    1  LIG1        0.0211
     10 C           0.9096   -2.1479   -0.6815 C.ar    1  LIG1       -0.0059
     11 C           1.5686   -3.3735   -0.6711 C.ar    1  LIG1        0.1589
     12 O           1.1467   -4.4281   -1.4335 O.3     1  LIG1       -0.5033
     13 C           2.6915   -3.5632    0.1279 C.ar    1  LIG1        0.1583
     14 O           3.3315   -4.7686    0.1315 O.3     1  LIG1       -0.5033
     15 C           3.1707   -2.5402    0.9296 C.ar    1  LIG1       -0.0159
     16 C           2.5144   -1.3059    0.9265 C.ar    1  LIG1       -0.0474
     17 O          -0.7079    0.0941    0.0876 O.2     1  LIG1       -0.4545
     18 O           1.1479    3.7145    0.0885 O.2     1  LIG1       -0.2870
     19 C          -1.4561    1.2440    0.0749 C.ar    1  LIG1        0.1427
     20 C          -2.8426    1.1035    0.0587 C.ar    1  LIG1        0.0229
     21 H          -5.4325    2.9280    0.0269 H       1  LIG1        0.2921
     22 H          -3.7098    4.4066    0.0320 H       1  LIG1        0.0654
     23 H          -1.2482    4.6475    0.0614 H       1  LIG1        0.0627
     24 H           2.4155    1.4586    0.0995 H       1  LIG1        0.0693
     25 H           0.0345   -2.0013   -1.3082 H       1  LIG1        0.0662
     26 H           0.3511   -4.1524   -1.9210 H       1  LIG1        0.2923
     27 H           2.8208   -5.3197   -0.4946 H       1  LIG1        0.2923
     28 H           4.0429   -2.7016    1.5560 H       1  LIG1        0.0655
     29 H           2.8919   -0.5191    1.5763 H       1  LIG1        0.0626
     30 H          -3.2970    0.1171    0.0596 H       1  LIG1        0.0691
@<TRIPOS>BOND
     1     1     2    1
     2     2     3   ar
     3     3     4   ar
     4     4     5   ar
     5     5     6   ar
     6     6     7   ar
     7     7     8   ar
     8     8     9    1
     9     9    10   ar
    10    10    11   ar
    11    11    12    1
    12    11    13   ar
    13    13    14    1
    14    13    15   ar
    15    15    16   ar
    16     9    16   ar
    17     8    17   ar
    18     6    18    2
    19     5    19   ar
    20    17    19   ar
    21    19    20   ar
    22     2    20   ar
    23     1    21    1
    24     3    22    1
    25     4    23    1
    26     7    24    1
    27    10    25    1
    28    12    26    1
    29    14    27    1
    30    15    28    1
    31    16    29    1
    32    20    30    1
