@<TRIPOS>MOLECULE
NuBBE_394
 28 30 0 0 0
SMALL
GASTEIGER

@<TRIPOS>ATOM
      1 C          -4.3816    1.0621    0.0060 C.3     1  LIG1       -0.0396
      2 C          -2.8814    1.0562    0.0041 C.ar    1  LIG1       -0.0463
      3 C          -2.1473    2.2450    0.0018 C.ar    1  LIG1       -0.0165
      4 C          -0.7463    2.2145   -0.0004 C.ar    1  LIG1        0.1286
      5 O          -0.0768    3.4054   -0.0033 O.3     1  LIG1       -0.5060
      6 C          -2.1938   -0.1601    0.0041 C.ar    1  LIG1       -0.0471
      7 C          -0.7898   -0.1904    0.0021 C.ar    1  LIG1        0.0368
      8 C          -0.0498    0.9950    0.0002 C.ar    1  LIG1        0.0744
      9 C           1.4383    0.9223   -0.0013 C.2     1  LIG1        0.1980
     10 C           2.0983   -0.4024   -0.0021 C.ar    1  LIG1        0.0332
     11 C           1.3459   -1.5720   -0.0007 C.ar    1  LIG1        0.0331
     12 C          -0.1233   -1.5073    0.0018 C.2     1  LIG1        0.1946
     13 O          -0.7855   -2.5390    0.0034 O.2     1  LIG1       -0.2866
     14 C           1.9824   -2.8210   -0.0017 C.ar    1  LIG1       -0.0502
     15 C           3.3751   -2.8959   -0.0040 C.ar    1  LIG1       -0.0610
     16 C           4.1333   -1.7266   -0.0052 C.ar    1  LIG1       -0.0610
     17 C           3.4986   -0.4824   -0.0043 C.ar    1  LIG1       -0.0502
     18 O           2.1493    1.9195   -0.0018 O.2     1  LIG1       -0.2865
     19 H          -4.7807    2.0815    0.0076 H       1  LIG1        0.0278
     20 H          -4.7584    0.5515    0.8982 H       1  LIG1        0.0278
     21 H          -4.7606    0.5534   -0.8863 H       1  LIG1        0.0278
     22 H          -2.6745    3.1962    0.0017 H       1  LIG1        0.0657
     23 H          -0.6986    4.1496   -0.0076 H       1  LIG1        0.2922
     24 H          -2.7547   -1.0950    0.0055 H       1  LIG1        0.0627
     25 H           1.3948   -3.7376   -0.0007 H       1  LIG1        0.0625
     26 H           3.8670   -3.8660   -0.0047 H       1  LIG1        0.0618
     27 H           5.2196   -1.7816   -0.0069 H       1  LIG1        0.0618
     28 H           4.1005    0.4252   -0.0053 H       1  LIG1        0.0625
@<TRIPOS>BOND
     1     1     2    1
     2     2     3   ar
     3     3     4   ar
     4     4     5    1
     5     2     6   ar
     6     6     7   ar
     7     7     8   ar
     8     4     8   ar
     9     8     9    1
    10     9    10    1
    11    10    11   ar
    12    11    12    1
    13     7    12    1
    14    12    13    2
    15    11    14   ar
    16    14    15   ar
    17    15    16   ar
    18    16    17   ar
    19    10    17   ar
    20     9    18    2
    21     1    19    1
    22     1    20    1
    23     1    21    1
    24     3    22    1
    25     5    23    1
    26     6    24    1
    27    14    25    1
    28    15    26    1
    29    16    27    1
    30    17    28    1
