REMARK  Name = NuBBE_508
REMARK  10 active torsions:
REMARK  status: ('A' for Active; 'I' for Inactive)
REMARK    1  A    between atoms: C_1  and  C_2
REMARK    2  A    between atoms: C_8  and  C_9
REMARK    3  A    between atoms: C_10  and  O_11
REMARK    4  A    between atoms: C_12  and  C_13
REMARK    5  A    between atoms: C_13  and  C_14
REMARK    6  A    between atoms: C_16  and  C_17
REMARK    7  A    between atoms: C_16  and  O_21
REMARK    8  A    between atoms: C_18  and  O_20
REMARK    9  A    between atoms: C_27  and  C_28
REMARK   10  A    between atoms: C_30  and  O_31
REMARK                            x       y       z     vdW  Elec       q    Type
REMARK                         _______ _______ _______ _____ _____    ______ ____
ROOT
ATOM      1  C   LIG A   1       1.500   0.845   0.887  0.00  0.00    +0.081 C 
ENDROOT
BRANCH   1  12
ATOM      2  C   LIG A   1      -5.679  -1.317   3.661  0.00  0.00    +0.086 C 
ATOM      3  C   LIG A   1      -4.265  -1.279   3.172  0.00  0.00    +0.106 A 
ATOM      4  C   LIG A   1      -3.482  -2.365   3.148  0.00  0.00    +0.093 A 
ATOM      5  C   LIG A   1      -2.104  -2.240   2.656  0.00  0.00    +0.196 A 
ATOM      6  C   LIG A   1      -1.659  -0.904   2.229  0.00  0.00    +0.106 A 
ATOM      7  C   LIG A   1      -2.569   0.150   2.301  0.00  0.00    +0.149 A 
ATOM      8  O   LIG A   1      -3.857  -0.026   2.752  0.00  0.00    -0.459 OA
ATOM      9  C   LIG A   1      -2.183   1.446   1.926  0.00  0.00    +0.034 A 
ATOM     10  C   LIG A   1      -3.161   2.589   1.995  0.00  0.00    +0.051 C 
ATOM     11  C   LIG A   1      -0.849   1.650   1.518  0.00  0.00    +0.130 A 
ATOM     12  C   LIG A   1       0.081   0.597   1.400  0.00  0.00    +0.041 A 
ATOM     13  C   LIG A   1      -0.348  -0.686   1.774  0.00  0.00    +0.138 A 
ATOM     14  O   LIG A   1      -1.355  -3.208   2.610  0.00  0.00    -0.287 OA
BRANCH  11  15
ATOM     15  O   LIG A   1      -0.387   2.911   1.266  0.00  0.00    -0.506 OA
ATOM     16  H   LIG A   1      -1.080   3.580   1.353  0.00  0.00    +0.292 HD
ENDBRANCH  11  15
BRANCH  13  17
ATOM     17  O   LIG A   1       0.558  -1.714   1.717  0.00  0.00    -0.505 OA
ATOM     18  H   LIG A   1       0.112  -2.546   2.000  0.00  0.00    +0.292 HD
ENDBRANCH  13  17
ENDBRANCH   1  12
BRANCH   1  19
ATOM     19  C   LIG A   1       1.642   0.706  -0.624  0.00  0.00    +0.010 C 
ATOM     20  C   LIG A   1       1.416   1.982  -1.405  0.00  0.00    +0.194 C 
ATOM     21  C   LIG A   1       1.481   1.975  -2.933  0.00  0.00    +0.155 C 
ATOM     22  C   LIG A   1       2.850   2.485  -3.392  0.00  0.00    +0.053 C 
ATOM     23  C   LIG A   1       1.125   0.585  -3.446  0.00  0.00    +0.187 C 
ATOM     24  O   LIG A   1       1.259   3.069  -0.842  0.00  0.00    -0.289 OA
ATOM     25  C   LIG A   1       2.066  -0.389  -1.308  0.00  0.00    -0.006 C 
ATOM     26  C   LIG A   1       1.976  -0.450  -2.777  0.00  0.00    +0.026 C 
ATOM     27  C   LIG A   1       2.595  -1.459  -3.411  0.00  0.00    +0.202 C 
ATOM     28  O   LIG A   1       3.270  -2.479  -2.772  0.00  0.00    -0.468 OA
ATOM     29  C   LIG A   1       3.181  -2.551  -1.384  0.00  0.00    +0.102 C 
ATOM     30  C   LIG A   1       3.771  -3.793  -0.798  0.00  0.00    +0.086 C 
ATOM     31  C   LIG A   1       2.605  -1.580  -0.649  0.00  0.00    +0.050 C 
BRANCH  23  32
ATOM     32  O   LIG A   1       1.240   0.529  -4.871  0.00  0.00    -0.384 OA
ATOM     33  H   LIG A   1       0.748   1.311  -5.192  0.00  0.00    +0.210 HD
ENDBRANCH  23  32
BRANCH  21  34
ATOM     34  O   LIG A   1       0.501   2.905  -3.442  0.00  0.00    -0.378 OA
ATOM     35  H   LIG A   1       0.543   3.675  -2.838  0.00  0.00    +0.211 HD
ENDBRANCH  21  34
ENDBRANCH   1  19
TORSDOF 6
