@<TRIPOS>MOLECULE
NuBBE_2477
 61 63 0 0 0
SMALL
GASTEIGER

@<TRIPOS>ATOM
      1 C           6.0754    1.9092    4.3428 C.3     1  LIG1        0.0790
      2 O           4.6817    1.8966    4.0269 O.3     1  LIG1       -0.4914
      3 C           4.3539    1.4200    2.7745 C.ar    1  LIG1        0.1617
      4 C           2.9782    1.4318    2.4679 C.ar    1  LIG1       -0.0131
      5 C           2.5123    1.0322    1.1984 C.ar    1  LIG1       -0.0433
      6 C           1.0566    1.2333    0.8140 C.3     1  LIG1       -0.0222
      7 C           0.5021    0.1921   -0.1898 C.3     1  LIG1       -0.0050
      8 H           1.1831    0.0149   -1.0247 H       1  LIG1        0.0331
      9 C          -0.9003    0.4585   -0.7346 C.3     1  LIG1        0.0289
     10 H          -1.0886   -0.3593   -1.4379 H       1  LIG1        0.0366
     11 C          -1.1476    1.7685   -1.4789 C.3     1  LIG1        0.0983
     12 O          -0.3376    1.9354   -2.6635 O.3     1  LIG1       -0.4644
     13 C          -0.4928    1.0509   -3.6755 C.2     1  LIG1        0.3040
     14 C           0.0650    1.5140   -4.9658 C.3     1  LIG1        0.0332
     15 O          -1.0888   -0.0441   -3.5888 O.2     1  LIG1       -0.2512
     16 C          -1.7794    0.1917    0.4840 C.3     1  LIG1        0.0900
     17 H          -1.8915    1.0799    1.1130 H       1  LIG1        0.0650
     18 C          -3.1373   -0.3752    0.1567 C.ar    1  LIG1       -0.0148
     19 C          -4.2544    0.4244   -0.0358 C.ar    1  LIG1       -0.0524
     20 C          -5.4811   -0.1584   -0.3598 C.ar    1  LIG1       -0.0160
     21 C          -5.6225   -1.5498   -0.5171 C.ar    1  LIG1        0.1615
     22 O          -6.8315   -2.1141   -0.8581 O.3     1  LIG1       -0.4915
     23 C          -7.6751   -1.2844   -1.6664 C.3     1  LIG1        0.0790
     24 C          -4.5033   -2.3733   -0.2928 C.ar    1  LIG1        0.1618
     25 O          -4.5899   -3.7449   -0.4182 O.3     1  LIG1       -0.4914
     26 C          -3.3544   -4.4521   -0.2069 C.3     1  LIG1        0.0790
     27 C          -3.2896   -1.7581    0.0321 C.ar    1  LIG1       -0.0107
     28 O          -1.0367   -0.7909    1.2645 O.3     1  LIG1       -0.3713
     29 C           0.1979   -1.0820    0.5795 C.3     1  LIG1        0.0520
     30 C           3.4440    0.5690    0.2647 C.ar    1  LIG1       -0.0549
     31 C           4.7979    0.5269    0.5663 C.ar    1  LIG1       -0.0160
     32 C           5.2617    0.9655    1.8015 C.ar    1  LIG1        0.1615
     33 O           6.6066    1.1073    2.0007 O.3     1  LIG1       -0.4915
     34 C           7.4253    0.0252    1.5911 C.3     1  LIG1        0.0790
     35 H           6.6124    2.6093    3.6901 H       1  LIG1        0.0660
     36 H           6.4911    0.8945    4.3008 H       1  LIG1        0.0660
     37 H           6.2301    2.2632    5.3640 H       1  LIG1        0.0660
     38 H           2.2667    1.7935    3.2112 H       1  LIG1        0.0658
     39 H           0.9714    2.2455    0.4068 H       1  LIG1        0.0317
     40 H           0.4570    1.2139    1.7344 H       1  LIG1        0.0317
     41 H          -2.1981    1.8596   -1.7804 H       1  LIG1        0.0701
     42 H          -0.9393    2.6269   -0.8335 H       1  LIG1        0.0701
     43 H           0.8042    0.7948   -5.3308 H       1  LIG1        0.0342
     44 H           0.5407    2.4949   -4.8661 H       1  LIG1        0.0342
     45 H          -0.7593    1.5971   -5.6822 H       1  LIG1        0.0342
     46 H          -4.1968    1.5036    0.0652 H       1  LIG1        0.0622
     47 H          -6.3194    0.5177   -0.4796 H       1  LIG1        0.0655
     48 H          -7.9830   -0.3639   -1.1573 H       1  LIG1        0.0660
     49 H          -8.6003   -1.8252   -1.8856 H       1  LIG1        0.0660
     50 H          -7.1821   -1.0483   -2.6164 H       1  LIG1        0.0660
     51 H          -3.5080   -5.5254   -0.3397 H       1  LIG1        0.0660
     52 H          -2.9845   -4.3044    0.8176 H       1  LIG1        0.0660
     53 H          -2.5927   -4.1449   -0.9379 H       1  LIG1        0.0660
     54 H          -2.3998   -2.3503    0.2034 H       1  LIG1        0.0659
     55 H           0.0400   -1.9308   -0.0992 H       1  LIG1        0.0563
     56 H           0.9590   -1.3679    1.3084 H       1  LIG1        0.0563
     57 H           3.1595    0.2782   -0.7402 H       1  LIG1        0.0621
     58 H           5.4882    0.2222   -0.2105 H       1  LIG1        0.0655
     59 H           7.0688   -0.9298    1.9911 H       1  LIG1        0.0660
     60 H           8.4233    0.2126    1.9983 H       1  LIG1        0.0660
     61 H           7.5117    0.0028    0.5038 H       1  LIG1        0.0660
@<TRIPOS>BOND
     1     1     2    1
     2     2     3    1
     3     3     4   ar
     4     4     5   ar
     5     5     6    1
     6     7     9    1
     7    11    12    1
     8    12    13    1
     9    13    14    1
    10    13    15    2
    11     9    16    1
    12    18    19   ar
    13    19    20   ar
    14    20    21   ar
    15    21    22    1
    16    22    23    1
    17    21    24   ar
    18    24    25    1
    19    25    26    1
    20    24    27   ar
    21    18    27   ar
    22    16    28    1
    23    28    29    1
    24     7    29    1
    25     5    30   ar
    26    30    31   ar
    27    31    32   ar
    28     3    32   ar
    29    32    33    1
    30    33    34    1
    31     9    11    1
    32     9    10    1
    33     7     8    1
    34     7     6    1
    35    16    18    1
    36    16    17    1
    37     1    35    1
    38     1    36    1
    39     1    37    1
    40     4    38    1
    41     6    39    1
    42     6    40    1
    43    11    41    1
    44    11    42    1
    45    14    43    1
    46    14    44    1
    47    14    45    1
    48    19    46    1
    49    20    47    1
    50    23    48    1
    51    23    49    1
    52    23    50    1
    53    26    51    1
    54    26    52    1
    55    26    53    1
    56    27    54    1
    57    29    55    1
    58    29    56    1
    59    30    57    1
    60    31    58    1
    61    34    59    1
    62    34    60    1
    63    34    61    1
