@<TRIPOS>MOLECULE
NuBBE_1703
 99 103 0 0 0
SMALL
GASTEIGER

@<TRIPOS>ATOM
      1 C          -3.0931    1.1486   -1.9781 C.3     1  LIG1        0.1080
      2 O          -3.9676    1.9569   -1.1922 O.3     1  LIG1       -0.4639
      3 C          -3.5973    3.2543   -0.9827 C.2     1  LIG1        0.3040
      4 O          -2.5721    3.7909   -1.3755 O.2     1  LIG1       -0.2512
      5 C          -4.6892    3.9899   -0.2654 C.3     1  LIG1        0.0332
      6 C          -2.2914   -0.0228   -1.2709 C.3     1  LIG1        0.1197
      7 C          -1.3512    0.4692   -0.1140 C.3     1  LIG1        0.1548
      8 C          -0.2131   -0.6744   -0.2360 C.3     1  LIG1        0.1446
      9 O           0.3711   -1.4564    0.8255 O.3     1  LIG1       -0.4580
     10 C          -0.0182   -2.8072    0.8539 C.2     1  LIG1        0.3043
     11 O          -0.3317   -3.4374   -0.1569 O.2     1  LIG1       -0.2512
     12 C          -0.1810   -3.3990    2.2535 C.3     1  LIG1        0.0332
     13 C           0.7504    0.0877   -1.1204 C.3     1  LIG1        0.0715
     14 C           0.1263    0.0402   -2.5779 C.3     1  LIG1        0.1496
     15 C          -1.3685   -0.5406   -2.6141 C.3     1  LIG1        0.1552
     16 O          -1.2783   -1.9846   -2.8210 O.3     1  LIG1       -0.4569
     17 C          -1.1274   -2.3844   -4.1323 C.2     1  LIG1        0.3043
     18 O          -1.3251   -1.6679   -5.1083 O.2     1  LIG1       -0.2512
     19 C          -0.7273   -3.8313   -4.2603 C.3     1  LIG1        0.0332
     20 O           1.0334   -0.7796   -3.3545 O.3     1  LIG1       -0.4573
     21 C           2.1417   -0.1182   -3.8136 C.2     1  LIG1        0.3043
     22 O           2.1229    0.9473   -4.3879 O.2     1  LIG1       -0.2512
     23 C           3.3824   -0.8505   -3.3724 C.3     1  LIG1        0.0332
     24 C           0.6781    1.5392   -0.6106 C.3     1  LIG1        0.1114
     25 O          -0.7564    1.7058   -0.6410 O.3     1  LIG1       -0.3557
     26 C           0.9585    1.8653    0.8346 C.3     1  LIG1       -0.0321
     27 C           1.5002    2.5753   -1.4455 C.3     1  LIG1        0.1219
     28 O           2.7962    2.9028   -0.7984 O.3     1  LIG1       -0.4582
     29 C           3.6154    1.8664   -0.4808 C.2     1  LIG1        0.3410
     30 O           3.5822    0.7600   -0.8864 O.2     1  LIG1       -0.2449
     31 C           4.4411    2.2887    0.6803 C.ar    1  LIG1        0.0802
     32 C           4.4290    1.6209    1.9262 C.ar    1  LIG1        0.0552
     33 C           3.4994    0.4142    2.2888 C.3     1  LIG1       -0.0089
     34 C           2.4059    0.6955    3.3972 C.3     1  LIG1       -0.0349
     35 C           1.4327   -0.4399    3.9410 C.3     1  LIG1        0.0540
     36 C          -0.1939   -0.4635    3.7598 C.2     1  LIG1        0.3104
     37 O          -0.9320   -0.2227    4.7122 O.2     1  LIG1       -0.2505
     38 O          -0.7305   -0.7415    2.5329 O.3     1  LIG1       -0.4554
     39 C          -2.1505   -0.5104    2.0910 C.3     1  LIG1        0.1633
     40 C          -2.1213    0.7810    1.3070 C.3     1  LIG1        0.1356
     41 C          -1.6697    1.9197    2.2295 C.3     1  LIG1       -0.0296
     42 O          -3.4996    1.1492    1.0853 O.3     1  LIG1       -0.3821
     43 C          -2.9860   -1.4865    1.0882 C.3     1  LIG1        0.1324
     44 C          -3.2391   -1.0855   -0.5502 C.3     1  LIG1        0.1474
     45 O          -3.7514   -2.0103   -1.5403 O.3     1  LIG1       -0.4579
     46 C          -3.5107   -3.3434   -1.5606 C.2     1  LIG1        0.3043
     47 O          -3.0717   -3.9901   -0.6316 O.2     1  LIG1       -0.2512
     48 C          -3.7385   -3.8674   -2.9590 C.3     1  LIG1        0.0332
     49 O          -2.8470   -2.8322    1.5061 O.3     1  LIG1       -0.3843
     50 C           2.1633   -1.7720    4.1444 C.3     1  LIG1       -0.0523
     51 N           5.2966    1.9846    2.8914 N.ar    1  LIG1       -0.2591
     52 C           6.2032    2.9817    2.6229 C.ar    1  LIG1        0.0279
     53 C           6.2760    3.6739    1.4286 C.ar    1  LIG1       -0.0428
     54 C           5.3845    3.3354    0.4283 C.ar    1  LIG1       -0.0446
     55 H          -2.3950    1.7869   -2.5359 H       1  LIG1        0.0706
     56 H          -3.7427    0.7002   -2.7413 H       1  LIG1        0.0706
     57 H          -4.2763    4.8917    0.1967 H       1  LIG1        0.0342
     58 H          -5.1139    3.3710    0.5286 H       1  LIG1        0.0342
     59 H          -5.4636    4.2716   -0.9833 H       1  LIG1        0.0342
     60 H          -0.6103   -1.4714   -0.8344 H       1  LIG1        0.0769
     61 H          -0.2771   -4.4921    2.2443 H       1  LIG1        0.0342
     62 H          -1.0706   -3.0239    2.7666 H       1  LIG1        0.0342
     63 H           0.6577   -3.1444    2.8764 H       1  LIG1        0.0342
     64 H           1.7383   -0.3575   -1.0577 H       1  LIG1        0.0404
     65 H           0.0638    1.0374   -3.0328 H       1  LIG1        0.0777
     66 H          -1.8506   -0.1394   -3.5137 H       1  LIG1        0.0781
     67 H           0.2619   -3.9421   -4.7200 H       1  LIG1        0.0342
     68 H          -1.4648   -4.3413   -4.8888 H       1  LIG1        0.0342
     69 H          -0.7194   -4.3149   -3.2813 H       1  LIG1        0.0342
     70 H           3.3209   -1.0617   -2.2993 H       1  LIG1        0.0342
     71 H           4.2513   -0.2057   -3.5289 H       1  LIG1        0.0342
     72 H           3.5062   -1.7929   -3.9158 H       1  LIG1        0.0342
     73 H           0.6439    1.0547    1.4768 H       1  LIG1        0.0259
     74 H           0.4381    2.7942    1.0971 H       1  LIG1        0.0259
     75 H           1.9763    2.0689    1.0999 H       1  LIG1        0.0259
     76 H           0.9237    3.4965   -1.5202 H       1  LIG1        0.0727
     77 H           1.7076    2.2673   -2.4730 H       1  LIG1        0.0727
     78 H           4.1806   -0.3607    2.6725 H       1  LIG1        0.0329
     79 H           3.0341   -0.0300    1.4052 H       1  LIG1        0.0329
     80 H           1.8146    1.5770    3.1564 H       1  LIG1        0.0277
     81 H           2.9958    1.0175    4.2701 H       1  LIG1        0.0277
     82 H           1.3918   -0.1045    4.9935 H       1  LIG1        0.0411
     83 H          -2.7430   -0.4614    3.0128 H       1  LIG1        0.0792
     84 H          -0.7029    1.7892    2.7067 H       1  LIG1        0.0259
     85 H          -2.3709    2.0067    3.0728 H       1  LIG1        0.0259
     86 H          -1.7034    2.8828    1.7165 H       1  LIG1        0.0259
     87 H          -3.9605    1.2104    1.9445 H       1  LIG1        0.2104
     88 H          -4.0135   -1.2785    1.4349 H       1  LIG1        0.0669
     89 H          -4.1675   -0.5070   -0.4276 H       1  LIG1        0.0770
     90 H          -4.7741   -4.1546   -3.1815 H       1  LIG1        0.0342
     91 H          -3.0605   -4.7142   -3.1121 H       1  LIG1        0.0342
     92 H          -3.4453   -3.0819   -3.6654 H       1  LIG1        0.0342
     93 H          -2.6941   -3.4050    0.6377 H       1  LIG1        0.2101
     94 H           2.5046   -2.2183    3.2044 H       1  LIG1        0.0238
     95 H           1.5356   -2.4880    4.6864 H       1  LIG1        0.0238
     96 H           3.0602   -1.6328    4.7659 H       1  LIG1        0.0238
     97 H           6.9017    3.2055    3.4231 H       1  LIG1        0.0829
     98 H           7.0291    4.4426    1.2620 H       1  LIG1        0.0633
     99 H           5.4220    3.8275   -0.5287 H       1  LIG1        0.0627
@<TRIPOS>BOND
     1     1     2    1
     2     2     3    1
     3     3     4    2
     4     3     5    1
     5     1     6    1
     6     6     7    1
     7     7     8    1
     8     8     9    1
     9     9    10    1
    10    10    11    2
    11    10    12    1
    12     8    13    1
    13    13    14    1
    14    14    15    1
    15     6    15    1
    16    15    16    1
    17    16    17    1
    18    17    18    2
    19    17    19    1
    20    14    20    1
    21    20    21    1
    22    21    22    2
    23    21    23    1
    24    13    24    1
    25    24    25    1
    26     7    25    1
    27    24    26    1
    28    24    27    1
    29    27    28    1
    30    28    29    1
    31    29    30    2
    32    29    31    1
    33    31    32   ar
    34    32    33    1
    35    33    34    1
    36    34    35    1
    37    35    36    1
    38    36    37    2
    39    36    38    1
    40    38    39    1
    41    39    40    1
    42     7    40    1
    43    40    41    1
    44    40    42    1
    45    39    43    1
    46    43    44    1
    47     6    44    1
    48    44    45    1
    49    45    46    1
    50    46    47    2
    51    46    48    1
    52    43    49    1
    53    35    50    1
    54    32    51   ar
    55    51    52   ar
    56    52    53   ar
    57    53    54   ar
    58    31    54   ar
    59     1    55    1
    60     1    56    1
    61     5    57    1
    62     5    58    1
    63     5    59    1
    64     8    60    1
    65    12    61    1
    66    12    62    1
    67    12    63    1
    68    13    64    1
    69    14    65    1
    70    15    66    1
    71    19    67    1
    72    19    68    1
    73    19    69    1
    74    23    70    1
    75    23    71    1
    76    23    72    1
    77    26    73    1
    78    26    74    1
    79    26    75    1
    80    27    76    1
    81    27    77    1
    82    33    78    1
    83    33    79    1
    84    34    80    1
    85    34    81    1
    86    35    82    1
    87    39    83    1
    88    41    84    1
    89    41    85    1
    90    41    86    1
    91    42    87    1
    92    43    88    1
    93    44    89    1
    94    48    90    1
    95    48    91    1
    96    48    92    1
    97    49    93    1
    98    50    94    1
    99    50    95    1
   100    50    96    1
   101    52    97    1
   102    53    98    1
   103    54    99    1
