@<TRIPOS>MOLECULE
NuBBE_1426
 82 86 0 0 0
SMALL
GASTEIGER

@<TRIPOS>ATOM
      1 O          -3.0223    4.4398    4.8106 O.2     1  LIG1       -0.2968
      2 C          -2.8017    3.9864    3.6995 C.2     1  LIG1        0.1392
      3 C          -1.5918    4.4519    2.9138 C.3     1  LIG1        0.0069
      4 C          -1.0223    3.2926    2.1182 C.3     1  LIG1       -0.0401
      5 C          -2.0013    2.7794    1.0272 C.3     1  LIG1       -0.0212
      6 C          -1.7670    3.6604   -0.2342 C.3     1  LIG1       -0.0587
      7 C          -3.5016    2.9535    1.4802 C.3     1  LIG1       -0.0198
      8 C          -4.4921    2.0320    0.7026 C.3     1  LIG1       -0.0303
      9 C          -3.9216    1.1408   -0.3687 C.2     1  LIG1       -0.0836
     10 C          -2.6288    0.7635   -0.4233 C.2     1  LIG1       -0.0637
     11 C          -1.7405    1.2721    0.7025 C.3     1  LIG1       -0.0137
     12 C          -0.2750    0.8808    0.5244 C.3     1  LIG1       -0.0457
     13 C          -0.2129   -0.6186    0.2956 C.3     1  LIG1       -0.0486
     14 C          -0.8424   -1.0545   -1.0357 C.3     1  LIG1       -0.0288
     15 H          -1.2165   -2.0751   -0.8714 H       1  LIG1        0.0312
     16 C          -2.0124   -0.1274   -1.5261 C.3     1  LIG1       -0.0077
     17 C          -3.0796   -1.0304   -2.2019 C.3     1  LIG1       -0.0556
     18 C          -1.3714    0.7566   -2.6351 C.3     1  LIG1       -0.0434
     19 C           0.0570    0.2688   -2.8650 C.3     1  LIG1       -0.0488
     20 C           0.1372   -1.1211   -2.2424 C.3     1  LIG1       -0.0322
     21 H          -0.2829   -1.8298   -2.9707 H       1  LIG1        0.0307
     22 C           1.5776   -1.5702   -1.9245 C.3     1  LIG1       -0.0115
     23 H           2.0452   -0.8214   -1.2706 H       1  LIG1        0.0328
     24 C           1.6549   -2.9616   -1.2910 C.3     1  LIG1       -0.0422
     25 C           3.1546   -3.3276   -1.3409 C.3     1  LIG1       -0.0096
     26 C           3.9400   -2.9685   -0.0421 C.3     1  LIG1        0.0862
     27 H           3.8065   -1.8983    0.1633 H       1  LIG1        0.0624
     28 O           3.3555   -3.6913    1.0555 O.3     1  LIG1       -0.3887
     29 C           5.4841   -3.2731   -0.0589 C.3     1  LIG1        0.0865
     30 C           5.8030   -4.7470   -0.3420 C.3     1  LIG1       -0.0339
     31 O           6.1374   -2.4817   -1.0577 O.3     1  LIG1       -0.3866
     32 C           6.1324   -2.8726    1.2756 C.3     1  LIG1       -0.0339
     33 C           3.6509   -2.5995   -2.6064 C.3     1  LIG1       -0.0213
     34 C           2.4866   -1.7576   -3.1401 C.3     1  LIG1        0.0587
     35 O           2.9495   -0.5096   -3.6278 O.3     1  LIG1       -0.3915
     36 C          -3.7243    2.9405    3.0389 C.3     1  LIG1        0.0270
     37 C          -3.4365    1.5875    3.7133 C.3     1  LIG1       -0.0528
     38 C          -5.1757    3.3472    3.3730 C.3     1  LIG1       -0.0528
     39 H          -0.8408    4.8094    3.6264 H       1  LIG1        0.0342
     40 H          -1.8852    5.2901    2.2770 H       1  LIG1        0.0342
     41 H          -0.7706    2.4885    2.8194 H       1  LIG1        0.0275
     42 H          -0.0718    3.6000    1.6648 H       1  LIG1        0.0275
     43 H          -1.8688    4.7256    0.0012 H       1  LIG1        0.0235
     44 H          -2.4857    3.4508   -1.0323 H       1  LIG1        0.0235
     45 H          -0.7610    3.5170   -0.6421 H       1  LIG1        0.0235
     46 H          -3.7815    3.9774    1.1818 H       1  LIG1        0.0318
     47 H          -5.2370    2.6824    0.2244 H       1  LIG1        0.0311
     48 H          -5.0597    1.3860    1.3796 H       1  LIG1        0.0311
     49 H          -4.6349    0.8150   -1.1203 H       1  LIG1        0.0572
     50 H          -2.0630    0.7015    1.5848 H       1  LIG1        0.0351
     51 H           0.2927    1.0988    1.4351 H       1  LIG1        0.0271
     52 H           0.2088    1.4333   -0.2837 H       1  LIG1        0.0271
     53 H          -0.7662   -1.1191    1.1038 H       1  LIG1        0.0268
     54 H           0.8143   -0.9596    0.4249 H       1  LIG1        0.0268
     55 H          -3.5992   -1.6495   -1.4617 H       1  LIG1        0.0238
     56 H          -3.8316   -0.4437   -2.7423 H       1  LIG1        0.0238
     57 H          -2.6295   -1.7069   -2.9373 H       1  LIG1        0.0238
     58 H          -1.3512    1.8197   -2.3770 H       1  LIG1        0.0274
     59 H          -1.9359    0.6907   -3.5738 H       1  LIG1        0.0274
     60 H           0.7676    0.9580   -2.3965 H       1  LIG1        0.0268
     61 H           0.2913    0.2466   -3.9352 H       1  LIG1        0.0268
     62 H           1.0918   -3.6714   -1.9126 H       1  LIG1        0.0272
     63 H           1.2154   -3.0072   -0.2940 H       1  LIG1        0.0272
     64 H           3.2126   -4.4156   -1.4718 H       1  LIG1        0.0327
     65 H           2.4838   -3.3046    1.2425 H       1  LIG1        0.2099
     66 H           5.6247   -4.9968   -1.3932 H       1  LIG1        0.0258
     67 H           5.2278   -5.4274    0.2924 H       1  LIG1        0.0258
     68 H           6.8674   -4.9486   -0.1651 H       1  LIG1        0.0258
     69 H           7.0444   -2.8132   -1.1683 H       1  LIG1        0.2102
     70 H           5.7138   -3.4182    2.1260 H       1  LIG1        0.0258
     71 H           6.0209   -1.7968    1.4524 H       1  LIG1        0.0258
     72 H           7.2132   -3.0620    1.2492 H       1  LIG1        0.0258
     73 H           3.9707   -3.3304   -3.3574 H       1  LIG1        0.0294
     74 H           4.4982   -1.9415   -2.4213 H       1  LIG1        0.0294
     75 H           1.9724   -2.2811   -3.9532 H       1  LIG1        0.0596
     76 H           3.5345   -0.6910   -4.3842 H       1  LIG1        0.2098
     77 H          -2.3788    1.3154    3.6799 H       1  LIG1        0.0239
     78 H          -4.0102    0.7724    3.2621 H       1  LIG1        0.0239
     79 H          -3.6992    1.6195    4.7778 H       1  LIG1        0.0239
     80 H          -5.4199    4.3245    2.9421 H       1  LIG1        0.0239
     81 H          -5.3315    3.4259    4.4554 H       1  LIG1        0.0239
     82 H          -5.9045    2.6191    3.0029 H       1  LIG1        0.0239
@<TRIPOS>BOND
     1     2     3    1
     2     3     4    1
     3     4     5    1
     4     5     7    1
     5     7     8    1
     6     8     9    1
     7     9    10    2
     8    10    11    1
     9     5    11    1
    10    11    12    1
    11    12    13    1
    12    13    14    1
    13    14    16    1
    14    10    16    1
    15    16    18    1
    16    18    19    1
    17    19    20    1
    18    14    20    1
    19    22    23    1
    20    22    24    1
    21    24    25    1
    22    25    26    1
    23    26    27    1
    24    26    28    1
    25    26    29    1
    26    29    30    1
    27    29    31    1
    28    29    32    1
    29    25    33    1
    30    33    34    1
    31    22    34    1
    32    34    35    1
    33     7    36    1
    34     2    36    1
    35     1     2    2
    36     5     6    1
    37    14    15    1
    38    16    17    1
    39    20    21    1
    40    20    22    1
    41    36    37    1
    42    36    38    1
    43     3    39    1
    44     3    40    1
    45     4    41    1
    46     4    42    1
    47     6    43    1
    48     6    44    1
    49     6    45    1
    50     7    46    1
    51     8    47    1
    52     8    48    1
    53     9    49    1
    54    11    50    1
    55    12    51    1
    56    12    52    1
    57    13    53    1
    58    13    54    1
    59    17    55    1
    60    17    56    1
    61    17    57    1
    62    18    58    1
    63    18    59    1
    64    19    60    1
    65    19    61    1
    66    24    62    1
    67    24    63    1
    68    25    64    1
    69    28    65    1
    70    30    66    1
    71    30    67    1
    72    30    68    1
    73    31    69    1
    74    32    70    1
    75    32    71    1
    76    32    72    1
    77    33    73    1
    78    33    74    1
    79    34    75    1
    80    35    76    1
    81    37    77    1
    82    37    78    1
    83    37    79    1
    84    38    80    1
    85    38    81    1
    86    38    82    1
