REMARK  Name = NuBBE_1575
REMARK  14 active torsions:
REMARK  status: ('A' for Active; 'I' for Inactive)
REMARK    1  A    between atoms: C_1  and  C_2
REMARK    2  A    between atoms: C_4  and  O_5
REMARK    3  A    between atoms: O_5  and  C_6
REMARK    4  A    between atoms: C_6  and  C_8
REMARK    5  A    between atoms: C_9  and  O_23
REMARK    6  A    between atoms: C_13  and  O_22
REMARK    7  A    between atoms: C_19  and  C_20
REMARK    8  A    between atoms: C_19  and  O_21
REMARK    9  A    between atoms: O_23  and  C_24
REMARK   10  A    between atoms: C_24  and  C_26
REMARK   11  A    between atoms: C_27  and  C_28
REMARK   12  A    between atoms: C_27  and  C_32
REMARK   13  A    between atoms: C_28  and  O_30
REMARK   14  A    between atoms: O_30  and  C_31
REMARK                            x       y       z     vdW  Elec       q    Type
REMARK                         _______ _______ _______ _____ _____    ______ ____
ROOT
ATOM      1  C   LIG A   1      -1.652   0.577   1.642  0.00  0.00    +0.012 C 
ATOM      2  C   LIG A   1      -0.244   0.882   1.066  0.00  0.00    -0.021 C 
ATOM      3  C   LIG A   1       0.628  -0.431   0.891  0.00  0.00    +0.056 C 
ATOM      4  C   LIG A   1      -0.004  -1.357  -0.206  0.00  0.00    +0.222 C 
ATOM      5  C   LIG A   1      -0.116  -0.591  -1.567  0.00  0.00    +0.223 C 
ATOM      6  C   LIG A   1      -1.031   0.666  -1.409  0.00  0.00    +0.073 C 
ATOM      7  C   LIG A   1      -0.381   1.607  -0.343  0.00  0.00    +0.012 C 
ATOM      8  C   LIG A   1      -1.100   2.974  -0.262  0.00  0.00    +0.088 C 
ATOM      9  C   LIG A   1      -1.141   3.664  -1.615  0.00  0.00    +0.240 C 
ATOM     10  C   LIG A   1      -1.875   2.806  -2.565  0.00  0.00    +0.039 C 
ATOM     11  C   LIG A   1      -2.910   3.489  -3.061  0.00  0.00    +0.100 C 
ATOM     12  C   LIG A   1      -2.903   4.809  -2.428  0.00  0.00    +0.335 C 
ATOM     13  O   LIG A   1      -3.723   5.684  -2.632  0.00  0.00    -0.245 OA
ATOM     14  O   LIG A   1      -1.886   4.868  -1.532  0.00  0.00    -0.425 OA
ATOM     15  C   LIG A   1      -1.443   1.374  -2.766  0.00  0.00    +0.097 C 
ATOM     16  C   LIG A   1      -2.578   0.567  -3.433  0.00  0.00    +0.047 C 
ATOM     17  C   LIG A   1       1.134  -1.092   2.242  0.00  0.00    +0.072 C 
ATOM     18  C   LIG A   1       2.311  -2.081   2.002  0.00  0.00    +0.023 C 
ATOM     19  C   LIG A   1       1.762   0.005   3.147  0.00  0.00    +0.018 C 
ATOM     20  C   LIG A   1       0.906   1.235   3.351  0.00  0.00    +0.002 C 
ATOM     21  C   LIG A   1       0.485   1.851   2.031  0.00  0.00    +0.007 C 
ENDROOT
BRANCH  15  22
ATOM     22  O   LIG A   1      -0.349   1.427  -3.670  0.00  0.00    -0.384 OA
ATOM     23  H   LIG A   1      -0.255   0.561  -4.106  0.00  0.00    +0.211 HD
ENDBRANCH  15  22
BRANCH   9  24
ATOM     24  O   LIG A   1       0.152   3.956  -2.095  0.00  0.00    -0.352 OA
ATOM     25  H   LIG A   1       0.612   4.418  -1.377  0.00  0.00    +0.214 HD
ENDBRANCH   9  24
BRANCH  17  26
ATOM     26  C   LIG A   1       0.077  -1.889   3.038  0.00  0.00    +0.313 C 
ATOM     27  O   LIG A   1      -1.051  -2.151   2.681  0.00  0.00    -0.250 OA
BRANCH  26  28
ATOM     28  O   LIG A   1       0.661  -2.343   4.190  0.00  0.00    -0.468 OA
ATOM     29  C   LIG A   1       0.041  -3.407   4.909  0.00  0.00    +0.280 C 
ENDBRANCH  26  28
ENDBRANCH  17  26
BRANCH   4  30
ATOM     30  O   LIG A   1       0.811  -2.539  -0.379  0.00  0.00    -0.458 OA
BRANCH  30  31
ATOM     31  C   LIG A   1       0.157  -3.738  -0.382  0.00  0.00    +0.304 C 
ATOM     32  O   LIG A   1      -1.052  -3.884  -0.461  0.00  0.00    -0.251 OA
ATOM     33  C   LIG A   1       1.114  -4.883  -0.201  0.00  0.00    +0.136 C 
ENDBRANCH  30  31
ENDBRANCH   4  30
BRANCH   5  34
ATOM     34  O   LIG A   1       1.233  -0.176  -1.925  0.00  0.00    -0.457 OA
BRANCH  34  35
ATOM     35  C   LIG A   1       1.770  -0.642  -3.081  0.00  0.00    +0.304 C 
ATOM     36  O   LIG A   1       1.162  -1.298  -3.914  0.00  0.00    -0.251 OA
ATOM     37  C   LIG A   1       3.205  -0.231  -3.220  0.00  0.00    +0.136 C 
ENDBRANCH  34  35
ENDBRANCH   5  34
TORSDOF 8
