@<TRIPOS>MOLECULE
NuBBE_96
 75 79 0 0 0
SMALL
GASTEIGER

@<TRIPOS>ATOM
      1 C           0.5172    2.0587    2.8393 C.2     1  LIG1       -0.1022
      2 C           1.3611    1.0855    2.4695 C.2     1  LIG1       -0.0816
      3 C           1.0730   -0.2482    1.7945 C.3     1  LIG1        0.0467
      4 C           2.2825   -0.8108    0.9771 C.3     1  LIG1        0.2102
      5 H           3.1652   -0.7064    1.6198 H       1  LIG1        0.1062
      6 O           2.1360   -2.2153    0.7378 O.2     1  LIG1       -0.4699
      7 C           0.8895   -2.6698    0.4595 C.2     1  LIG1        0.0981
      8 C          -0.2871   -1.9704    0.5857 C.2     1  LIG1        0.0746
      9 C          -0.3074   -0.5343    1.1070 C.3     1  LIG1        0.0075
     10 C          -0.8023    0.5639    0.1048 C.3     1  LIG1       -0.0241
     11 C          -2.2452    0.4797   -0.4941 C.3     1  LIG1        0.0495
     12 H          -2.3538   -0.4591   -1.0501 H       1  LIG1        0.0525
     13 C          -3.3762    0.6361    0.4901 C.ar    1  LIG1        0.0375
     14 C          -4.5957    1.2486    0.2429 C.ar    1  LIG1       -0.0156
     15 C          -4.9285    1.8436   -1.0789 C.3     1  LIG1        0.0005
     16 CA         -3.7501    1.6950   -2.0746 C.3     1  LIG1        0.1102
     17 HA         -3.8879    0.7875   -2.6770 H       1  LIG1        0.0579
     18 N          -2.3902    1.6128   -1.4505 N.3     1  LIG1       -0.2957
     19 C          -3.8156    2.8925   -3.0278 C.2     1  LIG1        0.3223
     20 O          -4.6345    2.6742   -4.0817 O.3     1  LIG1       -0.4795
     21 OXT        -3.2371    3.9642   -2.9354 O.2     1  LIG1       -0.2492
     22 C          -5.3273    1.3034    1.4619 C.ar    1  LIG1        0.0032
     23 C          -6.5554    1.8632    1.8589 C.ar    1  LIG1       -0.0523
     24 C          -6.9107    1.8305    3.2142 C.ar    1  LIG1       -0.0611
     25 C          -6.0823    1.2251    4.1587 C.ar    1  LIG1       -0.0598
     26 C          -4.8864    0.6163    3.7772 C.ar    1  LIG1       -0.0378
     27 C          -4.5391    0.6833    2.4252 C.ar    1  LIG1        0.0470
     28 N          -3.4297    0.1916    1.7817 N.ar    1  LIG1       -0.3565
     29 C          -1.5296   -2.7675    0.5328 C.2     1  LIG1        0.3381
     30 O          -1.3152   -3.9563   -0.0917 O.3     1  LIG1       -0.4646
     31 C          -2.3746   -4.9276   -0.1107 C.3     1  LIG1        0.0820
     32 O          -2.5587   -2.4222    1.0983 O.2     1  LIG1       -0.2452
     33 O           2.5525   -0.1335   -0.2496 O.3     1  LIG1       -0.3093
     34 C           3.7226   -0.6791   -0.9056 C.3     1  LIG1        0.1918
     35 H           3.5463   -1.7440   -1.1046 H       1  LIG1        0.0939
     36 O           4.8807   -0.5554   -0.0672 O.3     1  LIG1       -0.3404
     37 C           6.0952   -0.9603   -0.7303 C.3     1  LIG1        0.1130
     38 H           5.9661   -1.9665   -1.1531 H       1  LIG1        0.0647
     39 C           6.3794    0.0560   -1.8352 C.3     1  LIG1        0.1119
     40 H           6.3876    1.0783   -1.4346 H       1  LIG1        0.0647
     41 C           5.2746   -0.0853   -2.8778 C.3     1  LIG1        0.1141
     42 H           5.3779   -1.0497   -3.3925 H       1  LIG1        0.0648
     43 O           5.4777    0.9074   -3.8981 O.3     1  LIG1       -0.3864
     44 O           7.6325   -0.1805   -2.4747 O.3     1  LIG1       -0.3865
     45 C           7.2330   -1.0566    0.2940 C.3     1  LIG1        0.0730
     46 O           7.4423    0.1843    0.9608 O.3     1  LIG1       -0.3924
     47 C           3.8766    0.0529   -2.2662 C.3     1  LIG1        0.1342
     48 H           3.6427    1.1150   -2.1366 H       1  LIG1        0.0671
     49 O           2.9279   -0.4251   -3.2474 O.3     1  LIG1       -0.3841
     50 H           0.8954    2.9305    3.3706 H       1  LIG1        0.0532
     51 H          -0.5525    2.0416    2.6608 H       1  LIG1        0.0532
     52 H           2.4001    1.2207    2.7761 H       1  LIG1        0.0571
     53 H           1.0479   -0.9216    2.6715 H       1  LIG1        0.0410
     54 H           0.9438   -3.7114    0.2252 H       1  LIG1        0.1029
     55 H          -0.9896   -0.5287    1.9570 H       1  LIG1        0.0360
     56 H          -0.0845    0.6090   -0.7254 H       1  LIG1        0.0290
     57 H          -0.7357    1.5419    0.5933 H       1  LIG1        0.0290
     58 H          -5.2022    2.8957   -0.9268 H       1  LIG1        0.0334
     59 H          -5.8169    1.3443   -1.4897 H       1  LIG1        0.0334
     60 H          -1.6730    1.5792   -2.1724 H       1  LIG1        0.1233
     61 H          -4.5457    3.4991   -4.6070 H       1  LIG1        0.2951
     62 H          -7.1984    2.3505    1.1332 H       1  LIG1        0.0624
     63 H          -7.8354    2.3024    3.5350 H       1  LIG1        0.0618
     64 H          -6.3638    1.2309    5.2089 H       1  LIG1        0.0618
     65 H          -4.2361    0.1435    4.5052 H       1  LIG1        0.0638
     66 H          -2.7683   -0.4086    2.2439 H       1  LIG1        0.1656
     67 H          -2.3016   -5.4757   -1.0511 H       1  LIG1        0.0661
     68 H          -3.3628   -4.4509   -0.0622 H       1  LIG1        0.0661
     69 H          -2.2539   -5.6373    0.7110 H       1  LIG1        0.0661
     70 H           4.6577    0.9213   -4.4296 H       1  LIG1        0.2100
     71 H           7.6604    0.4639   -3.2123 H       1  LIG1        0.2100
     72 H           6.9878   -1.7998    1.0602 H       1  LIG1        0.0584
     73 H           8.1714   -1.3624   -0.1816 H       1  LIG1        0.0584
     74 H           6.5617    0.4925    1.2404 H       1  LIG1        0.2095
     75 H           2.8744   -1.3963   -3.1797 H       1  LIG1        0.2101
@<TRIPOS>BOND
     1     1     2    2
     2     2     3    1
     3     3     4    1
     4     4     6    1
     5     6     7    1
     6     7     8    2
     7     8     9    1
     8     3     9    1
     9     9    10    1
    10    10    11    1
    11    11    12    1
    12    11    13    1
    13    13    14   ar
    14    14    15    1
    15    15    16    1
    16    16    18    1
    17    11    18    1
    18    19    20    1
    19    19    21    2
    20    14    22   ar
    21    22    23   ar
    22    23    24   ar
    23    24    25   ar
    24    25    26   ar
    25    26    27   ar
    26    22    27   ar
    27    27    28   ar
    28    13    28   ar
    29     8    29    1
    30    29    30    1
    31    30    31    1
    32    29    32    2
    33    33    34    1
    34    34    35    1
    35    34    36    1
    36    36    37    1
    37    37    39    1
    38    39    40    1
    39    39    41    1
    40    39    44    1
    41    45    46    1
    42    34    47    1
    43    41    47    1
    44     4    33    1
    45     4     5    1
    46    16    19    1
    47    16    17    1
    48    37    45    1
    49    37    38    1
    50    41    43    1
    51    41    42    1
    52    47    49    1
    53    47    48    1
    54     1    50    1
    55     1    51    1
    56     2    52    1
    57     3    53    1
    58     7    54    1
    59     9    55    1
    60    10    56    1
    61    10    57    1
    62    15    58    1
    63    15    59    1
    64    18    60    1
    65    20    61    1
    66    23    62    1
    67    24    63    1
    68    25    64    1
    69    26    65    1
    70    28    66    1
    71    31    67    1
    72    31    68    1
    73    31    69    1
    74    43    70    1
    75    44    71    1
    76    45    72    1
    77    45    73    1
    78    46    74    1
    79    49    75    1
