@<TRIPOS>MOLECULE
NuBBE_323
 32 32 0 0 0
SMALL
GASTEIGER

@<TRIPOS>ATOM
      1 O          -1.3206   -1.1379    0.2706 O.2     1  LIG1       -0.2456
      2 C          -0.1045   -1.1244    0.1599 C.2     1  LIG1        0.3322
      3 O           0.7849   -1.8086    0.9139 O.3     1  LIG1       -0.4573
      4 C           0.1931   -2.6423    1.9127 C.3     1  LIG1        0.1125
      5 C          -0.1185   -1.8044    3.1103 C.2     1  LIG1       -0.0295
      6 C          -1.3718   -1.6697    3.5663 C.2     1  LIG1        0.0509
      7 S          -1.7349   -0.5960    4.8747 S.O2    1  LIG1       -0.0127
      8 C          -2.0792    0.9156    4.0069 C.3     1  LIG1        0.0589
      9 O          -2.9719   -1.0368    5.4862 O.2     1  LIG1       -0.1702
     10 O          -0.5501   -0.3780    5.6810 O.2     1  LIG1       -0.1702
     11 C           0.6304   -0.3521   -0.8470 C.2     1  LIG1        0.0231
     12 C           0.0100    0.0557   -1.9634 C.2     1  LIG1       -0.0478
     13 C           0.6914    0.8151   -3.0175 C.ar    1  LIG1       -0.0248
     14 C           2.0542    0.6301   -3.2885 C.ar    1  LIG1       -0.0546
     15 C           2.6880    1.3633   -4.2898 C.ar    1  LIG1       -0.0612
     16 C           1.9607    2.2766   -5.0471 C.ar    1  LIG1       -0.0617
     17 C           0.5984    2.4514   -4.8079 C.ar    1  LIG1       -0.0612
     18 C          -0.0365    1.7194   -3.8010 C.ar    1  LIG1       -0.0546
     19 H           0.9096   -3.4255    2.1796 H       1  LIG1        0.0743
     20 H          -0.6935   -3.1495    1.5115 H       1  LIG1        0.0743
     21 H           0.7118   -1.2726    3.5730 H       1  LIG1        0.0618
     22 H          -2.2114   -2.1792    3.1102 H       1  LIG1        0.0817
     23 H          -2.9173    0.7534    3.3256 H       1  LIG1        0.0468
     24 H          -1.1880    1.2246    3.4568 H       1  LIG1        0.0468
     25 H          -2.3421    1.6766    4.7444 H       1  LIG1        0.0468
     26 H           1.6746   -0.1535   -0.6374 H       1  LIG1        0.0689
     27 H          -1.0448   -0.1613   -2.1236 H       1  LIG1        0.0626
     28 H           2.6423   -0.0907   -2.7266 H       1  LIG1        0.0623
     29 H           3.7484    1.2161   -4.4749 H       1  LIG1        0.0618
     30 H           2.4562    2.8487   -5.8265 H       1  LIG1        0.0618
     31 H           0.0307    3.1614   -5.4040 H       1  LIG1        0.0618
     32 H          -1.0997    1.8744   -3.6285 H       1  LIG1        0.0623
@<TRIPOS>BOND
     1     1     2    2
     2     2     3    1
     3     3     4    1
     4     4     5    1
     5     5     6    2
     6     6     7    1
     7     7     8    1
     8     7     9    2
     9     7    10    2
    10     2    11    1
    11    11    12    2
    12    12    13    1
    13    13    14   ar
    14    14    15   ar
    15    15    16   ar
    16    16    17   ar
    17    17    18   ar
    18    13    18   ar
    19     4    19    1
    20     4    20    1
    21     5    21    1
    22     6    22    1
    23     8    23    1
    24     8    24    1
    25     8    25    1
    26    11    26    1
    27    12    27    1
    28    14    28    1
    29    15    29    1
    30    16    30    1
    31    17    31    1
    32    18    32    1
