REMARK  Name = NuBBE_1886
REMARK  17 active torsions:
REMARK  status: ('A' for Active; 'I' for Inactive)
REMARK    1  A    between atoms: C_4  and  O_34
REMARK    2  A    between atoms: C_5  and  O_6
REMARK    3  A    between atoms: O_6  and  C_7
REMARK    4  A    between atoms: C_7  and  C_8
REMARK    5  A    between atoms: C_10  and  O_32
REMARK    6  A    between atoms: C_14  and  C_15
REMARK    7  A    between atoms: C_17  and  O_18
REMARK    8  A    between atoms: O_18  and  C_19
REMARK    9  A    between atoms: C_19  and  C_20
REMARK   10  A    between atoms: C_22  and  O_27
REMARK   11  A    between atoms: C_23  and  O_24
REMARK   12  A    between atoms: O_24  and  C_25
REMARK   13  A    between atoms: O_27  and  C_28
REMARK   14  A    between atoms: C_29  and  O_30
REMARK   15  A    between atoms: O_30  and  C_31
REMARK   16  A    between atoms: O_32  and  C_33
REMARK   17  A    between atoms: O_34  and  C_35
REMARK                            x       y       z     vdW  Elec       q    Type
REMARK                         _______ _______ _______ _____ _____    ______ ____
ROOT
ATOM      1  O   LIG A   1      -3.362  -0.847  -0.829  0.00  0.00    -0.283 OA
ATOM      2  C   LIG A   1      -2.265  -0.778  -0.290  0.00  0.00    +0.238 A 
ATOM      3  C   LIG A   1      -1.471  -1.991  -0.012  0.00  0.00    +0.113 A 
ATOM      4  C   LIG A   1      -1.994  -3.259   0.283  0.00  0.00    +0.180 A 
ATOM      5  C   LIG A   1      -1.120  -4.373   0.189  0.00  0.00    +0.215 A 
ATOM      6  C   LIG A   1       0.226  -4.226  -0.196  0.00  0.00    +0.169 A 
ATOM      7  C   LIG A   1       0.735  -2.943  -0.378  0.00  0.00    +0.096 A 
ATOM      8  C   LIG A   1      -0.107  -1.837  -0.261  0.00  0.00    +0.147 A 
ATOM      9  O   LIG A   1       0.466  -0.606  -0.453  0.00  0.00    -0.451 OA
ATOM     10  C   LIG A   1      -0.272   0.533  -0.148  0.00  0.00    +0.181 A 
ATOM     11  C   LIG A   1      -1.621   0.528  -0.004  0.00  0.00    +0.211 A 
ENDROOT
BRANCH  10  12
ATOM     12  C   LIG A   1       0.544   1.772  -0.125  0.00  0.00    +0.028 A 
ATOM     13  C   LIG A   1       0.254   2.893   0.668  0.00  0.00    +0.062 A 
ATOM     14  C   LIG A   1       1.071   4.018   0.582  0.00  0.00    +0.177 A 
ATOM     15  C   LIG A   1       2.245   4.024  -0.196  0.00  0.00    +0.204 A 
ATOM     16  C   LIG A   1       2.543   2.910  -0.990  0.00  0.00    +0.166 A 
ATOM     17  C   LIG A   1       1.681   1.815  -0.961  0.00  0.00    +0.061 A 
BRANCH  16  18
ATOM     18  O   LIG A   1       3.708   2.898  -1.706  0.00  0.00    -0.491 OA
ATOM     19  C   LIG A   1       3.750   2.116  -2.892  0.00  0.00    +0.277 C 
ENDBRANCH  16  18
BRANCH  15  20
ATOM     20  O   LIG A   1       3.005   5.159  -0.053  0.00  0.00    -0.488 OA
ATOM     21  C   LIG A   1       3.859   5.521  -1.125  0.00  0.00    +0.277 C 
ENDBRANCH  15  20
BRANCH  14  22
ATOM     22  O   LIG A   1       0.780   5.262   1.212  0.00  0.00    -0.422 OA
BRANCH  22  23
ATOM     23  C   LIG A   1      -0.466   5.825   1.511  0.00  0.00    +0.309 C 
ATOM     24  C   LIG A   1      -0.282   7.319   1.529  0.00  0.00    +0.136 C 
ATOM     25  O   LIG A   1      -1.526   5.237   1.638  0.00  0.00    -0.251 OA
ENDBRANCH  22  23
ENDBRANCH  14  22
ENDBRANCH  10  12
BRANCH  11  26
ATOM     26  O   LIG A   1      -2.323   1.687   0.251  0.00  0.00    -0.488 OA
ATOM     27  C   LIG A   1      -3.718   1.579   0.477  0.00  0.00    +0.277 C 
ENDBRANCH  11  26
BRANCH   6  28
ATOM     28  O   LIG A   1       0.950  -5.349  -0.501  0.00  0.00    -0.491 OA
ATOM     29  C   LIG A   1       2.333  -5.307  -0.155  0.00  0.00    +0.277 C 
ENDBRANCH   6  28
BRANCH   4  30
ATOM     30  O   LIG A   1      -3.303  -3.535   0.602  0.00  0.00    -0.490 OA
ATOM     31  C   LIG A   1      -3.978  -2.592   1.439  0.00  0.00    +0.277 C 
ENDBRANCH   4  30
BRANCH   5  32
ATOM     32  O   LIG A   1      -1.686  -5.669   0.336  0.00  0.00    -0.418 OA
BRANCH  32  33
ATOM     33  C   LIG A   1      -0.973  -6.725   0.922  0.00  0.00    +0.309 C 
ATOM     34  C   LIG A   1      -1.627  -8.010   0.508  0.00  0.00    +0.136 C 
ATOM     35  O   LIG A   1      -0.009  -6.646   1.669  0.00  0.00    -0.251 OA
ENDBRANCH  32  33
ENDBRANCH   5  32
TORSDOF 10
