@<TRIPOS>MOLECULE
NuBBE_1454
 52 56 0 0 0
SMALL
GASTEIGER

@<TRIPOS>ATOM
      1 C          -1.7167    5.2673   -3.4200 C.3     1  LIG1       -0.0215
      2 C          -0.3622    5.1200   -2.7144 C.3     1  LIG1        0.1235
      3 C           0.4718    6.3869   -2.9383 C.3     1  LIG1       -0.0215
      4 C          -0.5743    4.9136   -1.2320 C.2     1  LIG1       -0.0408
      5 C          -0.4522    3.7183   -0.6459 C.2     1  LIG1       -0.0478
      6 C          -0.1143    2.5734   -1.4865 C.ar    1  LIG1        0.0591
      7 C          -0.1863    1.2517   -1.0163 C.ar    1  LIG1        0.1457
      8 C           0.1724    0.1897   -1.8439 C.ar    1  LIG1        0.1018
      9 C           0.0603   -1.1853   -1.3233 C.2     1  LIG1        0.1813
     10 C          -0.7884   -1.4179   -0.0909 C.3     1  LIG1        0.0909
     11 C          -0.1960   -2.2467    1.0296 C.ar    1  LIG1        0.0122
     12 C           0.9248   -3.0737    0.9225 C.ar    1  LIG1       -0.0088
     13 C           1.3081   -3.9224    1.9778 C.ar    1  LIG1        0.1620
     14 O           2.4212   -4.6722    1.6893 O.3     1  LIG1       -0.4914
     15 C           3.2513   -5.0271    2.7885 C.3     1  LIG1        0.0790
     16 C           0.5207   -4.0001    3.1398 C.ar    1  LIG1        0.1650
     17 O           0.8763   -4.8902    4.1187 O.3     1  LIG1       -0.4913
     18 C          -0.1881   -5.4188    4.9037 C.3     1  LIG1        0.0790
     19 C          -0.5897   -3.1600    3.2610 C.ar    1  LIG1        0.0257
     20 C          -0.9231   -2.2919    2.2243 C.ar    1  LIG1        0.1283
     21 O          -2.0389   -1.5078    2.3845 O.3     1  LIG1       -0.4879
     22 C          -1.7559   -0.1852    1.9257 C.3     1  LIG1        0.1273
     23 H          -1.6301   -2.0266   -0.4598 H       1  LIG1        0.0469
     24 C          -1.4075   -0.1130    0.4324 C.3     1  LIG1        0.1479
     25 O          -0.5649    1.0383    0.2809 O.3     1  LIG1       -0.4829
     26 O           0.5746   -2.0931   -1.9765 O.2     1  LIG1       -0.2910
     27 C           0.6199    0.4422   -3.1457 C.ar    1  LIG1        0.1344
     28 O           1.0093   -0.5476   -4.0072 O.3     1  LIG1       -0.5058
     29 C           0.6739    1.7453   -3.6290 C.ar    1  LIG1        0.0231
     30 C           0.2887    2.8049   -2.8077 C.ar    1  LIG1        0.1359
     31 O           0.3613    4.0530   -3.3651 O.3     1  LIG1       -0.4814
     32 H          -2.2943    6.1099   -3.0242 H       1  LIG1        0.0271
     33 H          -2.3203    4.3583   -3.3101 H       1  LIG1        0.0271
     34 H          -1.5806    5.4165   -4.4975 H       1  LIG1        0.0271
     35 H          -0.0170    7.2778   -2.5286 H       1  LIG1        0.0271
     36 H           0.6478    6.5538   -4.0076 H       1  LIG1        0.0271
     37 H           1.4607    6.2919   -2.4740 H       1  LIG1        0.0271
     38 H          -0.8617    5.7738   -0.6334 H       1  LIG1        0.0611
     39 H          -0.6180    3.5801    0.4163 H       1  LIG1        0.0624
     40 H           1.5190   -3.1015    0.0116 H       1  LIG1        0.0659
     41 H           2.8880   -5.9406    3.2676 H       1  LIG1        0.0660
     42 H           3.3594   -4.2088    3.5085 H       1  LIG1        0.0660
     43 H           4.2475   -5.2470    2.3907 H       1  LIG1        0.0660
     44 H           0.1912   -6.3013    5.4277 H       1  LIG1        0.0660
     45 H          -1.0320   -5.7377    4.2820 H       1  LIG1        0.0660
     46 H          -0.5075   -4.6955    5.6604 H       1  LIG1        0.0660
     47 H          -1.2060   -3.1538    4.1533 H       1  LIG1        0.0692
     48 H          -0.9621    0.2530    2.5485 H       1  LIG1        0.0734
     49 H          -2.6437    0.4291    2.1175 H       1  LIG1        0.0734
     50 H          -2.3360    0.0812   -0.1248 H       1  LIG1        0.0778
     51 H           1.0101   -1.4004   -3.5153 H       1  LIG1        0.2922
     52 H           1.0095    1.9360   -4.6448 H       1  LIG1        0.0691
@<TRIPOS>BOND
     1     1     2    1
     2     2     3    1
     3     2     4    1
     4     4     5    2
     5     5     6    1
     6     6     7   ar
     7     7     8   ar
     8     8     9    1
     9     9    10    1
    10    10    11    1
    11    11    12   ar
    12    12    13   ar
    13    13    14    1
    14    14    15    1
    15    13    16   ar
    16    16    17    1
    17    17    18    1
    18    16    19   ar
    19    19    20   ar
    20    11    20   ar
    21    20    21    1
    22    21    22    1
    23    10    23    1
    24    10    24    1
    25    22    24    1
    26    24    25    1
    27     7    25    1
    28     9    26    2
    29     8    27   ar
    30    27    28    1
    31    27    29   ar
    32    29    30   ar
    33     6    30   ar
    34    30    31    1
    35     2    31    1
    36     1    32    1
    37     1    33    1
    38     1    34    1
    39     3    35    1
    40     3    36    1
    41     3    37    1
    42     4    38    1
    43     5    39    1
    44    12    40    1
    45    15    41    1
    46    15    42    1
    47    15    43    1
    48    18    44    1
    49    18    45    1
    50    18    46    1
    51    19    47    1
    52    22    48    1
    53    22    49    1
    54    24    50    1
    55    28    51    1
    56    29    52    1
