@<TRIPOS>MOLECULE
NuBBE_476
 42 43 0 0 0
SMALL
GASTEIGER

@<TRIPOS>ATOM
      1 O          -2.2054    3.1418    1.1822 O.2     1  LIG1       -0.2452
      2 C          -1.9582    1.9459    1.0441 C.2     1  LIG1        0.3382
      3 C          -1.0150    1.4014    0.0355 C.2     1  LIG1        0.0778
      4 C          -0.6814    2.2522   -0.9531 C.2     1  LIG1        0.0993
      5 O           0.2965    2.0499   -1.8917 O.2     1  LIG1       -0.4603
      6 C           1.2231    0.9970   -1.5859 C.3     1  LIG1        0.2490
      7 H           1.7585    0.7413   -2.5080 H       1  LIG1        0.1209
      8 C           0.5034   -0.2553   -1.0782 C.3     1  LIG1        0.0465
      9 C          -0.3371    0.0580    0.1835 C.3     1  LIG1        0.0407
     10 C          -1.2060   -1.2178    0.2619 C.3     1  LIG1        0.1109
     11 H          -2.1180   -1.1528    0.8590 H       1  LIG1        0.0740
     12 C          -1.5429   -1.5906   -1.1872 C.3     1  LIG1       -0.0120
     13 C          -0.5287   -0.8428   -2.0658 C.3     1  LIG1       -0.0302
     14 H          -1.0692   -0.0415   -2.5849 H       1  LIG1        0.0304
     15 C           0.0921   -1.7304   -3.1349 C.3     1  LIG1       -0.0618
     16 O          -0.4073   -2.3225    0.7585 O.3     1  LIG1       -0.4609
     17 C          -0.1795   -2.3703    2.0984 C.2     1  LIG1        0.3042
     18 C           0.6578   -3.5740    2.4119 C.3     1  LIG1        0.0332
     19 O          -0.5953   -1.5728    2.9202 O.2     1  LIG1       -0.2512
     20 H           0.3299    0.1257    1.0516 H       1  LIG1        0.0393
     21 H           1.2534   -1.0154   -0.8164 H       1  LIG1        0.0383
     22 O           2.1691    1.3942   -0.5737 O.3     1  LIG1       -0.4247
     23 C           3.1844    2.1826   -1.0099 C.2     1  LIG1        0.3068
     24 C           4.1178    2.4983    0.1212 C.3     1  LIG1        0.0333
     25 O           3.3696    2.5353   -2.1658 O.2     1  LIG1       -0.2511
     26 O          -2.4730    0.9495    1.7870 O.3     1  LIG1       -0.4646
     27 C          -3.3000    1.3874    2.8668 C.3     1  LIG1        0.0820
     28 H          -1.1457    3.2204   -1.1128 H       1  LIG1        0.1030
     29 H          -2.5554   -1.2581   -1.4424 H       1  LIG1        0.0304
     30 H          -1.4998   -2.6753   -1.3434 H       1  LIG1        0.0304
     31 H           0.6927   -2.5322   -2.6938 H       1  LIG1        0.0233
     32 H           0.7371   -1.1452   -3.7978 H       1  LIG1        0.0233
     33 H          -0.6881   -2.1918   -3.7502 H       1  LIG1        0.0233
     34 H           0.0484   -4.4762    2.3231 H       1  LIG1        0.0342
     35 H           1.0485   -3.4955    3.4297 H       1  LIG1        0.0342
     36 H           1.5087   -3.6219    1.7259 H       1  LIG1        0.0342
     37 H           4.7480    1.6294    0.3267 H       1  LIG1        0.0342
     38 H           3.5560    2.7799    1.0159 H       1  LIG1        0.0342
     39 H           4.7522    3.3449   -0.1575 H       1  LIG1        0.0342
     40 H          -4.1822    1.9128    2.4861 H       1  LIG1        0.0661
     41 H          -2.7284    2.0289    3.5444 H       1  LIG1        0.0661
     42 H          -3.6308    0.5056    3.4197 H       1  LIG1        0.0661
@<TRIPOS>BOND
     1     1     2    2
     2     3     4    2
     3     4     5    1
     4     5     6    1
     5     6     8    1
     6     8     9    1
     7     9    10    1
     8    10    12    1
     9    12    13    1
    10    16    17    1
    11    17    18    1
    12    17    19    2
    13     3     9    1
    14    13     8    1
    15    22    23    1
    16    23    24    1
    17    23    25    2
    18     2    26    1
    19    26    27    1
    20     2     3    1
    21     6     7    1
    22     6    22    1
    23     8    21    1
    24     9    20    1
    25    10    16    1
    26    10    11    1
    27    13    15    1
    28    13    14    1
    29     4    28    1
    30    12    29    1
    31    12    30    1
    32    15    31    1
    33    15    32    1
    34    15    33    1
    35    18    34    1
    36    18    35    1
    37    18    36    1
    38    24    37    1
    39    24    38    1
    40    24    39    1
    41    27    40    1
    42    27    41    1
    43    27    42    1
