@<TRIPOS>MOLECULE
NuBBE_1015
 20 20 0 0 0
SMALL
GASTEIGER

@<TRIPOS>ATOM
      1 O          -3.7777    0.0442   -0.6958 O.3     1  LIG1       -0.3947
      2 C          -2.3634    0.0001   -0.8504 C.3     1  LIG1        0.0482
      3 C          -1.7041   -0.0199    0.5250 C.3     1  LIG1       -0.0044
      4 C          -0.2005   -0.0433    0.4293 C.ar    1  LIG1       -0.0450
      5 C           0.5277    1.1549    0.3926 C.ar    1  LIG1       -0.0551
      6 C           1.9196    1.1358    0.2780 C.ar    1  LIG1       -0.0199
      7 C           2.5825   -0.0840    0.1957 C.ar    1  LIG1        0.1169
      8 O           3.9394   -0.1489    0.0784 O.3     1  LIG1       -0.5068
      9 C           1.8774   -1.2808    0.2281 C.ar    1  LIG1       -0.0199
     10 C           0.4867   -1.2618    0.3429 C.ar    1  LIG1       -0.0551
     11 H          -4.1598    0.0466   -1.5904 H       1  LIG1        0.2094
     12 H          -2.0513    0.8796   -1.4239 H       1  LIG1        0.0560
     13 H          -2.1055   -0.8971   -1.4233 H       1  LIG1        0.0560
     14 H          -2.0586   -0.8878    1.0962 H       1  LIG1        0.0335
     15 H          -2.0311    0.8503    1.1086 H       1  LIG1        0.0335
     16 H           0.0122    2.1110    0.4549 H       1  LIG1        0.0621
     17 H           2.4628    2.0751    0.2545 H       1  LIG1        0.0654
     18 H           4.2916    0.7560    0.0697 H       1  LIG1        0.2921
     19 H           2.4085   -2.2260    0.1640 H       1  LIG1        0.0654
     20 H          -0.0563   -2.2040    0.3659 H       1  LIG1        0.0621
@<TRIPOS>BOND
     1     1     2    1
     2     2     3    1
     3     3     4    1
     4     4     5   ar
     5     5     6   ar
     6     6     7   ar
     7     7     8    1
     8     7     9   ar
     9     9    10   ar
    10     4    10   ar
    11     1    11    1
    12     2    12    1
    13     2    13    1
    14     3    14    1
    15     3    15    1
    16     5    16    1
    17     6    17    1
    18     8    18    1
    19     9    19    1
    20    10    20    1
