@<TRIPOS>MOLECULE
NuBBE_684
 57 60 0 0 0
SMALL
GASTEIGER

@<TRIPOS>ATOM
      1 O          -2.3934   -2.3529    3.5065 O.2     1  LIG1       -0.2880
      2 C          -1.7565   -1.8476    2.5851 C.2     1  LIG1        0.2068
      3 C          -2.0078   -0.4087    2.0904 C.3     1  LIG1        0.1407
      4 C          -0.8468    0.4677    2.6091 C.3     1  LIG1       -0.0277
      5 C          -2.1260   -0.5562    0.5695 C.3     1  LIG1        0.0418
      6 C          -0.7645   -0.9263    0.0404 C.2     1  LIG1        0.0034
      7 C          -0.0534   -0.3311   -0.9277 C.2     1  LIG1        0.0966
      8 O           1.1751   -0.7701   -1.3716 O.2     1  LIG1       -0.4632
      9 C           1.6629   -1.9873   -0.9096 C.2     1  LIG1        0.1279
     10 C           2.8817   -2.4310   -1.5538 C.2     1  LIG1       -0.0230
     11 C           3.5246   -1.7361   -2.5082 C.2     1  LIG1       -0.0777
     12 C           4.8235   -2.1696   -3.1371 C.3     1  LIG1       -0.0256
     13 H           4.9655   -3.2470   -2.9810 H       1  LIG1        0.0340
     14 C           6.0196   -1.4204   -2.5211 C.3     1  LIG1       -0.0499
     15 C           6.1678   -1.6451   -1.0195 C.3     1  LIG1       -0.0648
     16 C           4.7624   -1.9239   -4.6478 C.3     1  LIG1       -0.0590
     17 C           1.0578   -2.6716    0.0786 C.2     1  LIG1       -0.0104
     18 C          -0.1344   -2.1010    0.7142 C.2     1  LIG1        0.0067
     19 C          -0.6459   -2.5913    1.8714 C.2     1  LIG1        0.0938
     20 CL         -0.0351   -3.9837    2.6964 Cl      1  LIG1       -0.0792
     21 H          -2.7208   -1.4684    0.3746 H       1  LIG1        0.0392
     22 O          -3.2235    0.2119    2.5002 O.3     1  LIG1       -0.3329
     23 C          -3.6838    1.0679    1.4501 C.3     1  LIG1        0.1881
     24 O          -5.0949    0.9193    1.4161 O.3     1  LIG1       -0.3635
     25 C          -3.1180    0.5361    0.1386 C.3     1  LIG1        0.1202
     26 H          -3.9427    0.0221   -0.3861 H       1  LIG1        0.0474
     27 C          -3.3273    2.5282    1.7713 C.3     1  LIG1        0.0478
     28 H          -2.2699    2.5867    2.0427 H       1  LIG1        0.0386
     29 C          -3.5263    3.3449    0.5039 C.3     1  LIG1        0.1077
     30 H          -4.5492    3.2577    0.1180 H       1  LIG1        0.0735
     31 O          -2.6198    2.8401   -0.5024 O.3     1  LIG1       -0.4608
     32 C          -2.6925    1.5573   -0.8802 C.2     1  LIG1        0.3164
     33 O          -2.4012    1.2335   -2.0328 O.2     1  LIG1       -0.2503
     34 C          -3.1886    4.8221    0.6636 C.3     1  LIG1       -0.0273
     35 C          -4.1075    3.0731    2.9720 C.3     1  LIG1       -0.0541
     36 H           0.0869   -0.0849    2.7577 H       1  LIG1        0.0262
     37 H          -1.1079    0.9132    3.5765 H       1  LIG1        0.0262
     38 H          -0.6205    1.2893    1.9227 H       1  LIG1        0.0262
     39 H          -0.3204    0.5419   -1.5008 H       1  LIG1        0.1032
     40 H           3.3116   -3.3666   -1.2021 H       1  LIG1        0.0651
     41 H           3.1250   -0.7826   -2.8504 H       1  LIG1        0.0576
     42 H           5.9351   -0.3429   -2.7112 H       1  LIG1        0.0268
     43 H           6.9407   -1.7569   -3.0124 H       1  LIG1        0.0268
     44 H           5.3342   -1.2062   -0.4618 H       1  LIG1        0.0230
     45 H           7.0858   -1.1738   -0.6557 H       1  LIG1        0.0230
     46 H           6.2160   -2.7133   -0.7853 H       1  LIG1        0.0230
     47 H           5.6566   -2.3190   -5.1407 H       1  LIG1        0.0235
     48 H           4.6985   -0.8535   -4.8782 H       1  LIG1        0.0235
     49 H           3.8891   -2.4132   -5.0939 H       1  LIG1        0.0235
     50 H           1.4727   -3.6084    0.4336 H       1  LIG1        0.0661
     51 H          -5.3358    0.7217    2.3402 H       1  LIG1        0.2128
     52 H          -2.1660    4.9513    1.0364 H       1  LIG1        0.0265
     53 H          -3.8800    5.3287    1.3415 H       1  LIG1        0.0265
     54 H          -3.2307    5.3283   -0.3077 H       1  LIG1        0.0265
     55 H          -4.0248    2.3991    3.8310 H       1  LIG1        0.0235
     56 H          -5.1685    3.2060    2.7389 H       1  LIG1        0.0235
     57 H          -3.7085    4.0424    3.2881 H       1  LIG1        0.0235
@<TRIPOS>BOND
     1     1     2    2
     2     2     3    1
     3     3     4    1
     4     3     5    1
     5     5     6    1
     6     6     7    2
     7     7     8    1
     8     8     9    1
     9     9    10    1
    10    10    11    2
    11    12    14    1
    12    14    15    1
    13    12    16    1
    14     9    17    2
    15    17    18    1
    16     6    18    1
    17    18    19    2
    18     2    19    1
    19    19    20    1
    20     5    21    1
    21     3    22    1
    22    22    23    1
    23    23    24    1
    24    23    25    1
    25     5    25    1
    26    25    26    1
    27    23    27    1
    28    27    28    1
    29    27    29    1
    30    29    31    1
    31    31    32    1
    32    25    32    1
    33    32    33    2
    34    27    35    1
    35    12    13    1
    36    12    11    1
    37    29    34    1
    38    29    30    1
    39     4    36    1
    40     4    37    1
    41     4    38    1
    42     7    39    1
    43    10    40    1
    44    11    41    1
    45    14    42    1
    46    14    43    1
    47    15    44    1
    48    15    45    1
    49    15    46    1
    50    16    47    1
    51    16    48    1
    52    16    49    1
    53    17    50    1
    54    24    51    1
    55    34    52    1
    56    34    53    1
    57    34    54    1
    58    35    55    1
    59    35    56    1
    60    35    57    1
