REMARK  Name = NuBBE_1988
REMARK  4 active torsions:
REMARK  status: ('A' for Active; 'I' for Inactive)
REMARK    1  A    between atoms: C_1  and  C_4
REMARK    2  A    between atoms: C_2  and  C_3
REMARK    3  A    between atoms: C_7  and  O_10
REMARK    4  A    between atoms: O_10  and  C_11
REMARK                            x       y       z     vdW  Elec       q    Type
REMARK                         _______ _______ _______ _____ _____    ______ ____
ROOT
ATOM      1  C   LIG A   1      -0.645   0.426   0.211  0.00  0.00    -0.025 A 
ATOM      2  C   LIG A   1       0.067   1.630   0.233  0.00  0.00    +0.011 A 
ATOM      3  C   LIG A   1       1.461   1.633   0.118  0.00  0.00    +0.046 A 
ATOM      4  C   LIG A   1       2.169   0.436  -0.009  0.00  0.00    +0.120 A 
ATOM      5  C   LIG A   1       1.468  -0.768  -0.009  0.00  0.00    +0.046 A 
ATOM      6  C   LIG A   1       0.072  -0.771   0.106  0.00  0.00    +0.011 A 
ENDROOT
BRANCH   1   7
ATOM      7  C   LIG A   1      -2.108   0.456   0.360  0.00  0.00    +0.003 C 
ATOM      8  C   LIG A   1      -2.943  -0.432  -0.201  0.00  0.00    -0.030 C 
ATOM      9  C   LIG A   1      -4.429  -0.394  -0.042  0.00  0.00    +0.035 C 
ENDBRANCH   1   7
BRANCH   4  10
ATOM     10  O   LIG A   1       3.525   0.578  -0.116  0.00  0.00    -0.495 OA
ATOM     11  C   LIG A   1       4.281  -0.615  -0.281  0.00  0.00    +0.277 C 
ENDBRANCH   4  10
TORSDOF 2
