REMARK  Name = NuBBE_1313
REMARK  1 active torsions:
REMARK  status: ('A' for Active; 'I' for Inactive)
REMARK    1  A    between atoms: C_4  and  C_5
REMARK                            x       y       z     vdW  Elec       q    Type
REMARK                         _______ _______ _______ _____ _____    ______ ____
ROOT
ATOM      1  O   LIG A   1      -3.807   0.252   0.161  0.00  0.00    -0.287 OA
ATOM      2  C   LIG A   1      -2.584   0.247   0.108  0.00  0.00    +0.193 A 
ATOM      3  C   LIG A   1      -1.834  -1.018   0.080  0.00  0.00    +0.098 A 
ATOM      4  C   LIG A   1      -0.495  -0.988   0.013  0.00  0.00    +0.139 A 
ATOM      5  O   LIG A   1       0.258   0.175  -0.016  0.00  0.00    -0.454 OA
ATOM      6  C   LIG A   1      -1.793   1.487   0.067  0.00  0.00    +0.065 A 
ATOM      7  C   LIG A   1      -0.397   1.384   0.006  0.00  0.00    +0.150 A 
ATOM      8  C   LIG A   1       0.360   2.570  -0.032  0.00  0.00    +0.063 A 
ATOM      9  C   LIG A   1       1.742   2.897  -0.095  0.00  0.00    +0.053 A 
ATOM     10  C   LIG A   1       1.818   4.271  -0.104  0.00  0.00    +0.196 A 
ATOM     11  O   LIG A   1       0.576   4.819  -0.050  0.00  0.00    -0.463 OA
ATOM     12  C   LIG A   1      -0.312   3.788  -0.007  0.00  0.00    +0.138 A 
ATOM     13  C   LIG A   1      -1.698   3.920   0.054  0.00  0.00    +0.048 A 
ATOM     14  C   LIG A   1      -2.436   2.732   0.091  0.00  0.00    +0.019 A 
ENDROOT
BRANCH   4  15
ATOM     15  C   LIG A   1       0.307  -2.226  -0.007  0.00  0.00    +0.017 A 
ATOM     16  C   LIG A   1       1.476  -2.316   0.764  0.00  0.00    +0.011 A 
ATOM     17  C   LIG A   1       2.254  -3.477   0.750  0.00  0.00    +0.001 A 
ATOM     18  C   LIG A   1       1.877  -4.560  -0.040  0.00  0.00    +0.000 A 
ATOM     19  C   LIG A   1       0.724  -4.483  -0.819  0.00  0.00    +0.001 A 
ATOM     20  C   LIG A   1      -0.055  -3.323  -0.805  0.00  0.00    +0.011 A 
ENDBRANCH   4  15
TORSDOF 1
