@<TRIPOS>MOLECULE
NuBBE_1872
 42 44 0 0 0
SMALL
GASTEIGER

@<TRIPOS>ATOM
      1 C          -1.9835    0.3018   -3.5886 C.3     1  LIG1        0.0791
      2 O          -1.7614   -0.2974   -2.3114 O.3     1  LIG1       -0.4883
      3 C          -1.1188    0.5158   -1.3864 C.ar    1  LIG1        0.2108
      4 C          -0.3015   -0.0059   -0.4393 C.ar    1  LIG1        0.1844
      5 C          -0.0156   -1.4566   -0.3173 C.ar    1  LIG1        0.0663
      6 C          -0.8091   -2.2605    0.5214 C.ar    1  LIG1       -0.0437
      7 C          -0.5545   -3.6372    0.6839 C.ar    1  LIG1       -0.0154
      8 C           0.5138   -4.2433    0.0259 C.ar    1  LIG1        0.1650
      9 O           0.8659   -5.5669    0.1017 O.3     1  LIG1       -0.4913
     10 C           0.0295   -6.3951    0.9073 C.3     1  LIG1        0.0790
     11 C           1.3191   -3.4438   -0.7865 C.ar    1  LIG1        0.2015
     12 O           2.4122   -3.9775   -1.4300 O.3     1  LIG1       -0.5009
     13 C           1.0582   -2.0770   -0.9649 C.ar    1  LIG1        0.1730
     14 O           1.8986   -1.3695   -1.7851 O.3     1  LIG1       -0.5027
     15 O           0.3457    0.7397    0.5347 O.2     1  LIG1       -0.4505
     16 C           0.1669    2.0967    0.5619 C.ar    1  LIG1        0.1465
     17 C          -0.6480    2.7757   -0.3326 C.ar    1  LIG1        0.1092
     18 C          -0.7885    4.1688   -0.2365 C.ar    1  LIG1        0.1348
     19 O          -1.5887    4.9007   -1.0748 O.3     1  LIG1       -0.5058
     20 C          -0.1062    4.8773    0.7467 C.ar    1  LIG1        0.0225
     21 C           0.7057    4.1950    1.6542 C.ar    1  LIG1        0.1271
     22 O           1.3442    4.9770    2.5779 O.3     1  LIG1       -0.4949
     23 C           1.6578    4.3274    3.8054 C.3     1  LIG1        0.0788
     24 C           0.8463    2.8070    1.5528 C.ar    1  LIG1        0.0233
     25 C          -1.3448    1.9952   -1.3510 C.ar    1  LIG1        0.2381
     26 O          -2.0998    2.6016   -2.1231 O.2     1  LIG1       -0.2830
     27 H          -2.2540   -0.4913   -4.2904 H       1  LIG1        0.0660
     28 H          -1.0802    0.7958   -3.9641 H       1  LIG1        0.0660
     29 H          -2.8311    0.9938   -3.5637 H       1  LIG1        0.0660
     30 H          -1.6439   -1.8244    1.0665 H       1  LIG1        0.0627
     31 H          -1.2129   -4.2006    1.3374 H       1  LIG1        0.0655
     32 H           0.4721   -7.3953    0.9473 H       1  LIG1        0.0660
     33 H          -0.9696   -6.4867    0.4670 H       1  LIG1        0.0660
     34 H          -0.0249   -6.0218    1.9352 H       1  LIG1        0.0660
     35 H           2.4672   -4.9010   -1.1098 H       1  LIG1        0.2924
     36 H           2.5262   -2.0433   -2.1208 H       1  LIG1        0.2923
     37 H          -2.0139    4.2791   -1.7078 H       1  LIG1        0.2922
     38 H          -0.2193    5.9573    0.8140 H       1  LIG1        0.0691
     39 H           2.1275    5.0610    4.4662 H       1  LIG1        0.0660
     40 H           2.3773    3.5156    3.6638 H       1  LIG1        0.0660
     41 H           0.7452    3.9642    4.2903 H       1  LIG1        0.0660
     42 H           1.4909    2.2488    2.2224 H       1  LIG1        0.0691
@<TRIPOS>BOND
     1     1     2    1
     2     2     3    1
     3     3     4   ar
     4     4     5    1
     5     5     6   ar
     6     6     7   ar
     7     7     8   ar
     8     8     9    1
     9     9    10    1
    10     8    11   ar
    11    11    12    1
    12    11    13   ar
    13     5    13   ar
    14    13    14    1
    15     4    15   ar
    16    15    16   ar
    17    16    17   ar
    18    17    18   ar
    19    18    19    1
    20    18    20   ar
    21    20    21   ar
    22    21    22    1
    23    22    23    1
    24    21    24   ar
    25    16    24   ar
    26    17    25   ar
    27     3    25   ar
    28    25    26    2
    29     1    27    1
    30     1    28    1
    31     1    29    1
    32     6    30    1
    33     7    31    1
    34    10    32    1
    35    10    33    1
    36    10    34    1
    37    12    35    1
    38    14    36    1
    39    19    37    1
    40    20    38    1
    41    23    39    1
    42    23    40    1
    43    23    41    1
    44    24    42    1
