@<TRIPOS>MOLECULE
NuBBE_559
 80 79 0 0 0
SMALL
GASTEIGER

@<TRIPOS>ATOM
      1 C          -4.9647   -7.8469    0.9290 C.3     1  LIG1       -0.0440
      2 C          -5.4248   -6.5473    0.3720 C.2     1  LIG1       -0.0796
      3 C          -5.2678   -5.5076    1.4295 C.3     1  LIG1       -0.0440
      4 C          -5.8221   -6.3887   -0.9297 C.2     1  LIG1       -0.0850
      5 C          -6.1849   -5.1739   -1.7579 C.3     1  LIG1       -0.0308
      6 C          -5.9870   -3.7367   -1.1946 C.3     1  LIG1       -0.0286
      7 C          -4.5706   -3.3071   -0.9885 C.2     1  LIG1       -0.0762
      8 C          -3.7681   -3.7049    0.1894 C.3     1  LIG1       -0.0438
      9 C          -3.8811   -2.5812   -1.9560 C.2     1  LIG1       -0.0847
     10 C          -2.4296   -2.2543   -1.8029 C.3     1  LIG1       -0.0308
     11 C          -2.1632   -0.7483   -1.7200 C.3     1  LIG1       -0.0286
     12 C          -0.6920   -0.4048   -1.5707 C.2     1  LIG1       -0.0762
     13 C          -0.2401    0.8593   -2.2474 C.3     1  LIG1       -0.0438
     14 C           0.1560   -1.1657   -0.8404 C.2     1  LIG1       -0.0847
     15 C           1.6290   -0.9637   -0.6571 C.3     1  LIG1       -0.0311
     16 C           1.9082   -0.1253    0.5784 C.3     1  LIG1       -0.0311
     17 C           3.4112    0.0295    0.8150 C.2     1  LIG1       -0.0847
     18 C           4.1227    1.2215    0.6192 C.2     1  LIG1       -0.0762
     19 C           3.3403    2.3373    0.1300 C.3     1  LIG1       -0.0438
     20 C           5.4837    1.5063    1.1692 C.3     1  LIG1       -0.0286
     21 C           6.2334    2.7673    0.5396 C.3     1  LIG1       -0.0308
     22 C           5.7337    4.2053    0.8629 C.2     1  LIG1       -0.0847
     23 C           4.8810    5.0047    0.1477 C.2     1  LIG1       -0.0762
     24 C           4.2357    4.6775   -1.2247 C.3     1  LIG1       -0.0438
     25 C           4.2431    6.2303    0.7928 C.3     1  LIG1       -0.0286
     26 C           3.0188    6.0030    1.7462 C.3     1  LIG1       -0.0308
     27 C           1.7454    5.4119    1.1672 C.2     1  LIG1       -0.0850
     28 C           1.1951    4.1972    1.3951 C.2     1  LIG1       -0.0796
     29 C           1.7319    3.1326    2.3368 C.3     1  LIG1       -0.0440
     30 C           0.0829    3.6902    0.5007 C.3     1  LIG1       -0.0440
     31 H          -5.5365   -8.0173    1.8468 H       1  LIG1        0.0274
     32 H          -3.8998   -7.7853    1.1960 H       1  LIG1        0.0274
     33 H          -5.1087   -8.6786    0.2423 H       1  LIG1        0.0274
     34 H          -4.1992   -5.4323    1.6966 H       1  LIG1        0.0274
     35 H          -5.7703   -5.6406    2.3846 H       1  LIG1        0.0274
     36 H          -5.7100   -4.5984    1.0626 H       1  LIG1        0.0274
     37 H          -5.8971   -7.3056   -1.5083 H       1  LIG1        0.0572
     38 H          -7.2428   -5.3033   -2.0536 H       1  LIG1        0.0310
     39 H          -5.6381   -5.2398   -2.7150 H       1  LIG1        0.0310
     40 H          -6.6191   -3.6106   -0.3194 H       1  LIG1        0.0313
     41 H          -6.4931   -3.0513   -1.9301 H       1  LIG1        0.0313
     42 H          -3.6029   -4.7738   -0.0095 H       1  LIG1        0.0274
     43 H          -4.3179   -3.3882    1.0783 H       1  LIG1        0.0274
     44 H          -2.7776   -3.4001    0.4538 H       1  LIG1        0.0274
     45 H          -4.3696   -2.3301   -2.8666 H       1  LIG1        0.0572
     46 H          -1.8681   -2.7202   -2.6318 H       1  LIG1        0.0310
     47 H          -1.9840   -2.7030   -0.9340 H       1  LIG1        0.0310
     48 H          -2.7058   -0.3227   -0.8619 H       1  LIG1        0.0313
     49 H          -2.5806   -0.2894   -2.6197 H       1  LIG1        0.0313
     50 H          -1.0711    1.5572   -2.3930 H       1  LIG1        0.0274
     51 H           0.2155    0.6435   -3.2176 H       1  LIG1        0.0274
     52 H           0.5019    1.3824   -1.6430 H       1  LIG1        0.0274
     53 H          -0.2175   -2.0331   -0.3014 H       1  LIG1        0.0572
     54 H           2.0657   -0.4881   -1.5408 H       1  LIG1        0.0310
     55 H           2.1045   -1.9392   -0.5413 H       1  LIG1        0.0310
     56 H           1.4657   -0.5839    1.4779 H       1  LIG1        0.0310
     57 H           1.3485    0.8091    0.4578 H       1  LIG1        0.0310
     58 H           3.8956   -0.7877    1.2483 H       1  LIG1        0.0572
     59 H           2.5749    2.2946   -0.6050 H       1  LIG1        0.0274
     60 H           4.0371    3.1090   -0.0224 H       1  LIG1        0.0274
     61 H           3.1118    2.7647    0.9962 H       1  LIG1        0.0274
     62 H           6.1046    0.6235    1.0053 H       1  LIG1        0.0313
     63 H           5.4120    1.6621    2.2611 H       1  LIG1        0.0313
     64 H           6.2615    2.6277   -0.5417 H       1  LIG1        0.0310
     65 H           7.2719    2.7073    0.8919 H       1  LIG1        0.0310
     66 H           6.0569    4.5529    1.8488 H       1  LIG1        0.0572
     67 H           4.5791    3.7169   -1.6423 H       1  LIG1        0.0274
     68 H           4.3795    5.4190   -2.0018 H       1  LIG1        0.0274
     69 H           3.1432    4.5812   -1.0866 H       1  LIG1        0.0274
     70 H           3.9519    6.9197   -0.0091 H       1  LIG1        0.0313
     71 H           5.0201    6.7487    1.3680 H       1  LIG1        0.0313
     72 H           2.7405    6.9958    2.1251 H       1  LIG1        0.0310
     73 H           3.3368    5.4365    2.6252 H       1  LIG1        0.0310
     74 H           1.2168    6.0858    0.4873 H       1  LIG1        0.0572
     75 H           2.7657    3.3499    2.6512 H       1  LIG1        0.0274
     76 H           1.6992    2.2047    1.7635 H       1  LIG1        0.0274
     77 H           1.1843    2.7933    3.2067 H       1  LIG1        0.0274
     78 H          -0.3727    4.4726   -0.1120 H       1  LIG1        0.0274
     79 H          -0.6815    3.2037    1.1073 H       1  LIG1        0.0274
     80 H           0.4630    2.9434   -0.2056 H       1  LIG1        0.0274
@<TRIPOS>BOND
     1     1     2    1
     2     2     3    1
     3     2     4    2
     4     4     5    1
     5     5     6    1
     6     6     7    1
     7     7     8    1
     8     7     9    2
     9     9    10    1
    10    10    11    1
    11    11    12    1
    12    12    13    1
    13    12    14    2
    14    14    15    1
    15    15    16    1
    16    16    17    1
    17    17    18    2
    18    18    19    1
    19    18    20    1
    20    20    21    1
    21    21    22    1
    22    22    23    2
    23    23    24    1
    24    23    25    1
    25    25    26    1
    26    26    27    1
    27    27    28    2
    28    28    29    1
    29    28    30    1
    30     1    31    1
    31     1    32    1
    32     1    33    1
    33     3    34    1
    34     3    35    1
    35     3    36    1
    36     4    37    1
    37     5    38    1
    38     5    39    1
    39     6    40    1
    40     6    41    1
    41     8    42    1
    42     8    43    1
    43     8    44    1
    44     9    45    1
    45    10    46    1
    46    10    47    1
    47    11    48    1
    48    11    49    1
    49    13    50    1
    50    13    51    1
    51    13    52    1
    52    14    53    1
    53    15    54    1
    54    15    55    1
    55    16    56    1
    56    16    57    1
    57    17    58    1
    58    19    59    1
    59    19    60    1
    60    19    61    1
    61    20    62    1
    62    20    63    1
    63    21    64    1
    64    21    65    1
    65    22    66    1
    66    24    67    1
    67    24    68    1
    68    24    69    1
    69    25    70    1
    70    25    71    1
    71    26    72    1
    72    26    73    1
    73    27    74    1
    74    29    75    1
    75    29    76    1
    76    29    77    1
    77    30    78    1
    78    30    79    1
    79    30    80    1
