@<TRIPOS>MOLECULE
NuBBE_1165
 38 39 0 0 0
SMALL
GASTEIGER

@<TRIPOS>ATOM
      1 C          -3.3588   -2.5577    2.0410 C.3     1  LIG1       -0.0440
      2 C          -1.8914   -2.2355    2.2068 C.2     1  LIG1       -0.0793
      3 C          -1.4147   -2.4111    3.6239 C.3     1  LIG1       -0.0440
      4 C          -1.1393   -1.8559    1.1480 C.2     1  LIG1       -0.0807
      5 C           0.3304   -1.4645    1.1007 C.3     1  LIG1       -0.0006
      6 C           0.6426   -0.3964    0.0459 C.ar    1  LIG1        0.0629
      7 C           0.6452    0.9515    0.2005 C.ar    1  LIG1        0.1378
      8 O           0.3092    1.6605    1.3355 O.3     1  LIG1       -0.4940
      9 C          -0.7274    1.1577    2.1612 C.3     1  LIG1        0.0788
     10 C           1.0263    1.8446   -0.9236 C.ar    1  LIG1        0.0406
     11 C           1.3641    1.3033   -2.1694 C.ar    1  LIG1        0.0552
     12 N           1.3783   -0.1084   -2.3241 N.ar    1  LIG1       -0.3107
     13 C           1.7120   -0.6809   -3.6219 C.3     1  LIG1        0.0153
     14 C           1.0855   -0.9674   -1.2766 C.ar    1  LIG1        0.2585
     15 O           1.1616   -2.2001   -1.4034 O.2     1  LIG1       -0.2673
     16 C           1.6805    2.1671   -3.2390 C.ar    1  LIG1       -0.0374
     17 C           1.6751    3.5532   -3.0773 C.ar    1  LIG1       -0.0598
     18 C           1.3459    4.0963   -1.8453 C.ar    1  LIG1       -0.0610
     19 C           1.0208    3.2499   -0.7819 C.ar    1  LIG1       -0.0491
     20 H          -3.5640   -3.5811    2.3750 H       1  LIG1        0.0274
     21 H          -3.6938   -2.4754    1.0027 H       1  LIG1        0.0274
     22 H          -3.9661   -1.8743    2.6452 H       1  LIG1        0.0274
     23 H          -1.7482   -3.3811    4.0145 H       1  LIG1        0.0274
     24 H          -1.8446   -1.6335    4.2649 H       1  LIG1        0.0274
     25 H          -0.3278   -2.3822    3.7214 H       1  LIG1        0.0274
     26 H          -1.6334   -1.8140    0.1765 H       1  LIG1        0.0575
     27 H           0.9061   -2.3765    0.9002 H       1  LIG1        0.0358
     28 H           0.6987   -1.1408    2.0776 H       1  LIG1        0.0358
     29 H          -1.1445    1.9860    2.7385 H       1  LIG1        0.0660
     30 H          -0.3186    0.4484    2.8820 H       1  LIG1        0.0660
     31 H          -1.5419    0.7334    1.5684 H       1  LIG1        0.0660
     32 H           2.7084   -0.3492   -3.9304 H       1  LIG1        0.0457
     33 H           0.9613   -0.3638   -4.3531 H       1  LIG1        0.0457
     34 H           1.7164   -1.7747   -3.6052 H       1  LIG1        0.0457
     35 H           1.9365    1.7875   -4.2236 H       1  LIG1        0.0638
     36 H           1.9246    4.2021   -3.9137 H       1  LIG1        0.0618
     37 H           1.3339    5.1751   -1.7093 H       1  LIG1        0.0618
     38 H           0.7512    3.7080    0.1674 H       1  LIG1        0.0625
@<TRIPOS>BOND
     1     1     2    1
     2     2     3    1
     3     2     4    2
     4     4     5    1
     5     5     6    1
     6     6     7   ar
     7     7     8    1
     8     8     9    1
     9     7    10   ar
    10    10    11   ar
    11    11    12   ar
    12    12    13    1
    13    12    14   ar
    14     6    14   ar
    15    14    15    2
    16    11    16   ar
    17    16    17   ar
    18    17    18   ar
    19    18    19   ar
    20    10    19   ar
    21     1    20    1
    22     1    21    1
    23     1    22    1
    24     3    23    1
    25     3    24    1
    26     3    25    1
    27     4    26    1
    28     5    27    1
    29     5    28    1
    30     9    29    1
    31     9    30    1
    32     9    31    1
    33    13    32    1
    34    13    33    1
    35    13    34    1
    36    16    35    1
    37    17    36    1
    38    18    37    1
    39    19    38    1
