@<TRIPOS>MOLECULE
NuBBE_1339
 35 36 0 0 0
SMALL
GASTEIGER

@<TRIPOS>ATOM
      1 C          -3.6143    0.6334   -0.3394 C.2     1  LIG1       -0.0949
      2 C          -2.2919    0.6391   -0.0971 C.2     1  LIG1       -0.0470
      3 C          -1.4285   -0.5587   -0.2413 C.ar    1  LIG1       -0.0189
      4 C          -1.9634   -1.8557   -0.1438 C.ar    1  LIG1       -0.0538
      5 C          -1.1660   -2.9910   -0.3126 C.ar    1  LIG1       -0.0583
      6 C           0.1918   -2.8599   -0.5912 C.ar    1  LIG1       -0.0501
      7 C           1.0646   -4.0648   -0.7763 C.3     1  LIG1       -0.0397
      8 C           0.7428   -1.5761   -0.6609 C.ar    1  LIG1       -0.0548
      9 C          -0.0426   -0.4190   -0.4662 C.ar    1  LIG1       -0.0364
     10 C           0.6470    0.9439   -0.5295 C.3     1  LIG1       -0.0127
     11 C           1.7448    1.1121    0.5723 C.3     1  LIG1       -0.0399
     12 C           2.6917    2.2779    0.2576 C.3     1  LIG1       -0.0621
     13 C           1.2068    1.2591    1.9959 C.3     1  LIG1       -0.0621
     14 C          -0.3558    2.1100   -0.6220 C.3     1  LIG1       -0.0420
     15 C          -1.5863    1.9198    0.2550 C.3     1  LIG1       -0.0271
     16 H          -4.1564   -0.2509   -0.6547 H       1  LIG1        0.0538
     17 H          -4.2037    1.5414   -0.2494 H       1  LIG1        0.0538
     18 H          -3.0162   -2.0082    0.0778 H       1  LIG1        0.0624
     19 H          -1.6214   -3.9748   -0.2290 H       1  LIG1        0.0620
     20 H           0.4706   -4.9812   -0.8561 H       1  LIG1        0.0278
     21 H           1.7442   -4.1704    0.0751 H       1  LIG1        0.0278
     22 H           1.6515   -3.9714   -1.6959 H       1  LIG1        0.0278
     23 H           1.8062   -1.4741   -0.8717 H       1  LIG1        0.0623
     24 H           1.1828    0.9494   -1.4916 H       1  LIG1        0.0352
     25 H           2.3735    0.2124    0.5703 H       1  LIG1        0.0301
     26 H           2.1941    3.2483    0.3429 H       1  LIG1        0.0233
     27 H           3.0994    2.1881   -0.7545 H       1  LIG1        0.0233
     28 H           3.5372    2.2813    0.9546 H       1  LIG1        0.0233
     29 H           0.7131    2.2240    2.1446 H       1  LIG1        0.0233
     30 H           2.0291    1.2055    2.7185 H       1  LIG1        0.0233
     31 H           0.5032    0.4590    2.2446 H       1  LIG1        0.0233
     32 H          -0.6919    2.1917   -1.6661 H       1  LIG1        0.0274
     33 H           0.1191    3.0685   -0.3914 H       1  LIG1        0.0274
     34 H          -2.2481    2.7838    0.1143 H       1  LIG1        0.0313
     35 H          -1.3271    1.9072    1.3173 H       1  LIG1        0.0313
@<TRIPOS>BOND
     1     1     2    2
     2     2     3    1
     3     3     4   ar
     4     4     5   ar
     5     5     6   ar
     6     6     7    1
     7     6     8   ar
     8     8     9   ar
     9     3     9   ar
    10     9    10    1
    11    10    11    1
    12    11    12    1
    13    11    13    1
    14    10    14    1
    15    14    15    1
    16     2    15    1
    17     1    16    1
    18     1    17    1
    19     4    18    1
    20     5    19    1
    21     7    20    1
    22     7    21    1
    23     7    22    1
    24     8    23    1
    25    10    24    1
    26    11    25    1
    27    12    26    1
    28    12    27    1
    29    12    28    1
    30    13    29    1
    31    13    30    1
    32    13    31    1
    33    14    32    1
    34    14    33    1
    35    15    34    1
    36    15    35    1
