REMARK  Name = NuBBE_1126
REMARK  10 active torsions:
REMARK  status: ('A' for Active; 'I' for Inactive)
REMARK    1  A    between atoms: O_1  and  C_2
REMARK    2  A    between atoms: C_5  and  O_12
REMARK    3  A    between atoms: O_12  and  C_13
REMARK    4  A    between atoms: C_13  and  C_14
REMARK    5  A    between atoms: C_14  and  O_16
REMARK    6  A    between atoms: C_14  and  C_17
REMARK    7  A    between atoms: C_17  and  N_18
REMARK    8  A    between atoms: N_18  and  C_19
REMARK    9  A    between atoms: C_19  and  C_20
REMARK   10  A    between atoms: C_19  and  C_21
REMARK                            x       y       z     vdW  Elec       q    Type
REMARK                         _______ _______ _______ _____ _____    ______ ____
ROOT
ATOM      1  C   LIG A   1      -4.658  -0.620  -1.248  0.00  0.00    +0.125 A 
ATOM      2  C   LIG A   1      -4.072  -1.792  -0.789  0.00  0.00    +0.049 A 
ATOM      3  C   LIG A   1      -2.702  -1.820  -0.512  0.00  0.00    +0.050 A 
ATOM      4  C   LIG A   1      -1.898  -0.696  -0.742  0.00  0.00    +0.129 A 
ATOM      5  C   LIG A   1      -2.501   0.520  -1.200  0.00  0.00    +0.027 A 
ATOM      6  C   LIG A   1      -1.782   1.718  -1.443  0.00  0.00    +0.012 A 
ATOM      7  C   LIG A   1      -2.426   2.896  -1.843  0.00  0.00    +0.001 A 
ATOM      8  C   LIG A   1      -3.801   2.919  -2.007  0.00  0.00    +0.001 A 
ATOM      9  C   LIG A   1      -4.531   1.757  -1.812  0.00  0.00    +0.012 A 
ATOM     10  C   LIG A   1      -3.908   0.549  -1.420  0.00  0.00    +0.027 A 
ENDROOT
BRANCH   1  11
ATOM     11  O   LIG A   1      -6.001  -0.614  -1.541  0.00  0.00    -0.506 OA
ATOM     12  H   LIG A   1      -6.340  -1.522  -1.489  0.00  0.00    +0.292 HD
ENDBRANCH   1  11
BRANCH   4  13
ATOM     13  O   LIG A   1      -0.523  -0.701  -0.537  0.00  0.00    -0.489 OA
BRANCH  13  14
ATOM     14  C   LIG A   1       0.053  -1.938  -0.068  0.00  0.00    +0.261 C 
BRANCH  14  15
ATOM     15  C   LIG A   1       1.591  -1.870   0.062  0.00  0.00    +0.166 C 
BRANCH  15  16
ATOM     16  O   LIG A   1       2.184  -1.615  -1.220  0.00  0.00    -0.387 OA
ATOM     17  H   LIG A   1       1.916  -0.717  -1.478  0.00  0.00    +0.210 HD
ENDBRANCH  15  16
BRANCH  15  18
ATOM     18  C   LIG A   1       2.044  -0.802   1.077  0.00  0.00    +0.115 C 
BRANCH  18  19
ATOM     19  N   LIG A   1       3.509  -0.761   1.210  0.00  0.00    -0.311 NA
ATOM     20  H   LIG A   1       3.929  -0.612   0.290  0.00  0.00    +0.122 HD
BRANCH  19  21
ATOM     21  C   LIG A   1       3.989   0.224   2.187  0.00  0.00    +0.048 C 
ATOM     22  C   LIG A   1       5.521   0.182   2.229  0.00  0.00    +0.024 C 
ATOM     23  C   LIG A   1       3.534   1.657   1.899  0.00  0.00    +0.024 C 
ENDBRANCH  19  21
ENDBRANCH  18  19
ENDBRANCH  15  18
ENDBRANCH  14  15
ENDBRANCH  13  14
ENDBRANCH   4  13
TORSDOF 8
