@<TRIPOS>MOLECULE
NuBBE_1078
 41 44 0 0 0
SMALL
GASTEIGER

@<TRIPOS>ATOM
      1 O          -3.8134    1.5474   -0.2141 O.2     1  LIG1       -0.2864
      2 C          -2.5972    1.4896   -0.1984 C.ar    1  LIG1        0.2007
      3 C          -1.8615    0.1999   -0.1786 C.ar    1  LIG1        0.0879
      4 C          -0.4563    0.2237   -0.3551 C.ar    1  LIG1        0.0673
      5 C           0.1768   -1.0351   -0.5431 C.ar    1  LIG1        0.0409
      6 C          -0.5241   -2.2310   -0.2790 C.ar    1  LIG1        0.1343
      7 O           0.1032   -3.4577   -0.2209 O.3     1  LIG1       -0.4814
      8 C           1.5070   -3.3826    0.1332 C.3     1  LIG1        0.1235
      9 C           2.1129   -4.7560   -0.1763 C.3     1  LIG1       -0.0215
     10 C           1.6397   -3.1136    1.6434 C.3     1  LIG1       -0.0215
     11 C           2.1976   -2.3255   -0.6971 C.2     1  LIG1       -0.0408
     12 C           1.5407   -1.2173   -1.0611 C.2     1  LIG1       -0.0493
     13 C          -1.8851   -2.2301   -0.0261 C.ar    1  LIG1        0.0230
     14 C          -2.5587   -1.0166   -0.0057 C.ar    1  LIG1        0.1332
     15 O          -3.9025   -1.0383    0.2463 O.3     1  LIG1       -0.5059
     16 N           0.2441    1.4779   -0.2881 N.ar    1  LIG1       -0.3393
     17 C           1.6091    1.4132    0.2554 C.3     1  LIG1        0.0126
     18 C          -0.4217    2.7382   -0.2170 C.ar    1  LIG1        0.0949
     19 C           0.1890    4.0162   -0.1558 C.ar    1  LIG1        0.1409
     20 O           1.5376    4.2599   -0.1085 O.3     1  LIG1       -0.5047
     21 C          -0.5578    5.2064   -0.1323 C.ar    1  LIG1       -0.0181
     22 C          -1.9420    5.1774   -0.1785 C.ar    1  LIG1       -0.0575
     23 C          -2.5796    3.9494   -0.2172 C.ar    1  LIG1       -0.0487
     24 C          -1.8316    2.7542   -0.2270 C.ar    1  LIG1        0.0495
     25 H           1.5812   -5.5483    0.3632 H       1  LIG1        0.0271
     26 H           3.1711   -4.8006    0.1072 H       1  LIG1        0.0271
     27 H           2.0321   -4.9952   -1.2426 H       1  LIG1        0.0271
     28 H           1.1243   -3.8916    2.2192 H       1  LIG1        0.0271
     29 H           1.1723   -2.1658    1.9357 H       1  LIG1        0.0271
     30 H           2.6870   -3.0805    1.9605 H       1  LIG1        0.0271
     31 H           3.2197   -2.4886   -1.0231 H       1  LIG1        0.0611
     32 H           1.9728   -0.4667   -1.7112 H       1  LIG1        0.0623
     33 H          -2.3962   -3.1699    0.1562 H       1  LIG1        0.0691
     34 H          -4.2356   -1.9488    0.2574 H       1  LIG1        0.2922
     35 H           1.8765    0.4527    0.7037 H       1  LIG1        0.0456
     36 H           1.7660    2.1205    1.0755 H       1  LIG1        0.0456
     37 H           2.3301    1.6111   -0.5479 H       1  LIG1        0.0456
     38 H           2.0036    3.5439   -0.5556 H       1  LIG1        0.2922
     39 H          -0.0448    6.1650   -0.0909 H       1  LIG1        0.0655
     40 H          -2.5185    6.0976   -0.1743 H       1  LIG1        0.0619
     41 H          -3.6681    3.9153   -0.2316 H       1  LIG1        0.0625
@<TRIPOS>BOND
     1     1     2    2
     2     2     3   ar
     3     3     4   ar
     4     4     5   ar
     5     5     6   ar
     6     6     7    1
     7     7     8    1
     8     8     9    1
     9     8    10    1
    10     8    11    1
    11    11    12    2
    12     5    12    1
    13     6    13   ar
    14    13    14   ar
    15     3    14   ar
    16    14    15    1
    17     4    16   ar
    18    16    17    1
    19    16    18   ar
    20    18    19   ar
    21    19    20    1
    22    19    21   ar
    23    21    22   ar
    24    22    23   ar
    25    23    24   ar
    26    18    24   ar
    27     2    24   ar
    28     9    25    1
    29     9    26    1
    30     9    27    1
    31    10    28    1
    32    10    29    1
    33    10    30    1
    34    11    31    1
    35    12    32    1
    36    13    33    1
    37    15    34    1
    38    17    35    1
    39    17    36    1
    40    17    37    1
    41    20    38    1
    42    21    39    1
    43    22    40    1
    44    23    41    1
