REMARK  Name = NuBBE_1520
REMARK  19 active torsions:
REMARK  status: ('A' for Active; 'I' for Inactive)
REMARK    1  A    between atoms: C_1  and  C_2
REMARK    2  A    between atoms: C_6  and  C_10
REMARK    3  A    between atoms: C_12  and  O_14
REMARK    4  A    between atoms: O_14  and  C_15
REMARK    5  A    between atoms: C_17  and  C_20
REMARK    6  A    between atoms: C_20  and  C_22
REMARK    7  A    between atoms: C_20  and  O_26
REMARK    8  A    between atoms: C_22  and  C_23
REMARK    9  A    between atoms: C_22  and  C_24
REMARK   10  A    between atoms: C_22  and  O_25
REMARK   11  A    between atoms: C_31  and  C_32
REMARK   12  A    between atoms: C_36  and  O_38
REMARK   13  A    between atoms: C_39  and  C_40
REMARK   14  A    between atoms: C_39  and  C_41
REMARK   15  A    between atoms: C_42  and  O_46
REMARK   16  A    between atoms: O_46  and  C_47
REMARK   17  A    between atoms: C_47  and  C_49
REMARK   18  A    between atoms: C_50  and  N_51
REMARK   19  A    between atoms: N_51  and  C_52
REMARK                            x       y       z     vdW  Elec       q    Type
REMARK                         _______ _______ _______ _____ _____    ______ ____
ROOT
ATOM      1  C   LIG A   1      -1.450   0.488  -0.726  0.00  0.00    +0.014 C 
ATOM      2  C   LIG A   1      -0.344   0.305   0.364  0.00  0.00    +0.003 C 
ATOM      3  C   LIG A   1       0.019   1.699   0.887  0.00  0.00    -0.015 C 
ATOM      4  C   LIG A   1       0.801   2.555  -0.065  0.00  0.00    -0.019 C 
ATOM      5  C   LIG A   1       1.407   2.151   1.272  0.00  0.00    +0.016 C 
ATOM      6  C   LIG A   1      -0.047   3.814  -0.294  0.00  0.00    +0.004 C 
ATOM      7  C   LIG A   1      -1.130   3.822   0.800  0.00  0.00    +0.005 C 
ATOM      8  C   LIG A   1      -1.086   2.494   1.542  0.00  0.00    +0.008 C 
ATOM      9  C   LIG A   1       1.378   1.915  -1.311  0.00  0.00    +0.008 C 
ATOM     10  C   LIG A   1       1.824   0.458  -1.127  0.00  0.00    +0.005 C 
ATOM     11  C   LIG A   1       0.934  -0.427  -0.194  0.00  0.00    +0.004 C 
ATOM     12  C   LIG A   1       0.645  -1.889  -0.720  0.00  0.00    -0.025 C 
ATOM     13  C   LIG A   1      -0.032  -1.824  -2.112  0.00  0.00    +0.012 C 
ATOM     14  C   LIG A   1      -0.143  -2.693   0.392  0.00  0.00    +0.007 C 
ATOM     15  C   LIG A   1      -1.287  -1.938   1.101  0.00  0.00    +0.036 C 
ATOM     16  C   LIG A   1      -0.937  -0.526   1.531  0.00  0.00    +0.122 C 
ATOM     17  C   LIG A   1      -0.559  -4.144  -0.028  0.00  0.00    +0.006 C 
ATOM     18  C   LIG A   1      -1.689  -4.181  -1.087  0.00  0.00    +0.015 C 
ATOM     19  C   LIG A   1      -1.154  -4.867   1.217  0.00  0.00    +0.015 C 
ATOM     20  C   LIG A   1       0.720  -4.928  -0.478  0.00  0.00    +0.183 C 
ATOM     21  C   LIG A   1       1.766  -4.138  -1.293  0.00  0.00    +0.046 C 
ATOM     22  C   LIG A   1       1.980  -2.676  -0.882  0.00  0.00    +0.011 C 
ENDROOT
BRANCH   6  23
ATOM     23  C   LIG A   1       0.769   5.095  -0.545  0.00  0.00    +0.051 C 
ATOM     24  C   LIG A   1       0.025   6.415  -0.797  0.00  0.00    +0.254 C 
ATOM     25  O   LIG A   1       0.765   7.449  -0.138  0.00  0.00    -0.345 OA
ATOM     26  C   LIG A   1       1.595   6.896   0.885  0.00  0.00    +0.153 C 
ATOM     27  C   LIG A   1       1.839   5.453   0.476  0.00  0.00    +0.043 C 
BRANCH  24  28
ATOM     28  O   LIG A   1      -1.309   6.419  -0.310  0.00  0.00    -0.354 OA
ATOM     29  C   LIG A   1      -2.030   7.579  -0.720  0.00  0.00    +0.197 C 
ENDBRANCH  24  28
BRANCH  26  30
ATOM     30  C   LIG A   1       1.008   7.126   2.308  0.00  0.00    +0.174 C 
BRANCH  30  31
ATOM     31  C   LIG A   1       0.843   8.622   2.729  0.00  0.00    +0.089 C 
ATOM     32  C   LIG A   1       2.166   9.383   2.680  0.00  0.00    +0.044 C 
ATOM     33  C   LIG A   1      -0.206   9.388   1.920  0.00  0.00    +0.044 C 
BRANCH  31  34
ATOM     34  O   LIG A   1       0.388   8.661   4.097  0.00  0.00    -0.387 OA
ATOM     35  H   LIG A   1      -0.430   8.126   4.122  0.00  0.00    +0.210 HD
ENDBRANCH  31  34
ENDBRANCH  30  31
BRANCH  30  36
ATOM     36  O   LIG A   1      -0.270   6.498   2.467  0.00  0.00    -0.386 OA
ATOM     37  H   LIG A   1      -0.748   6.616   1.620  0.00  0.00    +0.210 HD
ENDBRANCH  30  36
ENDBRANCH  26  30
ENDBRANCH   6  23
BRANCH  16  38
ATOM     38  O   LIG A   1      -0.072  -0.580   2.671  0.00  0.00    -0.391 OA
ATOM     39  H   LIG A   1       0.770  -0.988   2.422  0.00  0.00    +0.210 HD
ENDBRANCH  16  38
BRANCH  20  40
ATOM     40  O   LIG A   1       0.337  -6.049  -1.307  0.00  0.00    -0.457 OA
BRANCH  40  41
ATOM     41  C   LIG A   1       0.084  -7.244  -0.725  0.00  0.00    +0.341 C 
ATOM     42  O   LIG A   1       0.262  -7.508   0.472  0.00  0.00    -0.245 OA
BRANCH  41  43
ATOM     43  C   LIG A   1      -0.440  -8.216  -1.723  0.00  0.00    +0.080 A 
ATOM     44  C   LIG A   1      -0.818  -9.526  -1.333  0.00  0.00    +0.041 A 
ATOM     45  C   LIG A   1      -1.286 -10.393  -2.338  0.00  0.00    +0.024 A 
ATOM     46  C   LIG A   1      -1.339 -10.006  -3.681  0.00  0.00    +0.002 A 
ATOM     47  C   LIG A   1      -0.953  -8.726  -4.053  0.00  0.00    +0.001 A 
ATOM     48  C   LIG A   1      -0.513  -7.833  -3.080  0.00  0.00    +0.017 A 
BRANCH  44  49
ATOM     49  N   LIG A   1      -0.864  -9.914   0.020  0.00  0.00    -0.346 N 
ATOM     50  C   LIG A   1      -0.578 -11.296   0.366  0.00  0.00    +0.125 C 
ATOM     51  H   LIG A   1      -0.348  -9.250   0.612  0.00  0.00    +0.146 HD
ENDBRANCH  44  49
ENDBRANCH  41  43
ENDBRANCH  40  41
ENDBRANCH  20  40
TORSDOF 11
