@<TRIPOS>MOLECULE
NuBBE_1359
 61 65 0 0 0
SMALL
GASTEIGER

@<TRIPOS>ATOM
      1 O          -1.3844    4.2587    3.0528 O.2     1  LIG1       -0.2756
      2 C          -1.2607    3.1833    2.4643 C.2     1  LIG1        0.2162
      3 C          -2.4032    2.1952    2.4682 C.3     1  LIG1        0.0127
      4 N          -0.0981    2.8283    1.7695 N.am    1  LIG1       -0.2782
      5 C           0.9889    3.8104    1.7647 C.3     1  LIG1        0.0195
      6 C           1.8943    3.6890    0.5483 C.3     1  LIG1       -0.0330
      7 C           2.3694    2.2558    0.3725 C.3     1  LIG1       -0.0274
      8 C           1.2330    1.2719    0.4967 C.2     1  LIG1       -0.0381
      9 C           1.4714   -0.0925   -0.1509 C.3     1  LIG1        0.0376
     10 H           2.5663   -0.2221   -0.1442 H       1  LIG1        0.0513
     11 C           1.0739   -0.1090   -1.6792 C.3     1  LIG1       -0.0056
     12 H           1.6269    0.6970   -2.1810 H       1  LIG1        0.0334
     13 C          -0.4265    0.0045   -2.1259 C.3     1  LIG1        0.0150
     14 C          -1.0467    1.4001   -1.9485 C.3     1  LIG1       -0.0370
     15 C          -2.4791    1.4473   -2.4737 C.3     1  LIG1       -0.0505
     16 C          -3.3027    0.3535   -1.8087 C.3     1  LIG1       -0.0401
     17 C          -2.6628   -1.0131   -2.0340 C.3     1  LIG1       -0.0008
     18 N          -1.2691   -1.0720   -1.5668 N.3     1  LIG1       -0.2988
     19 C          -0.7072   -2.3976   -1.8815 C.3     1  LIG1        0.0034
     20 C           1.5807   -1.4426   -2.2503 C.3     1  LIG1       -0.0416
     21 C           0.7904   -2.5516   -1.5548 C.3     1  LIG1       -0.0122
     22 H           1.1208   -3.5132   -1.9705 H       1  LIG1        0.0328
     23 C           1.1482   -2.5381   -0.0504 C.3     1  LIG1        0.0150
     24 N           0.9504   -1.2389    0.6390 N.3     1  LIG1       -0.2921
     25 C           1.5778   -1.3178    1.9787 C.3     1  LIG1       -0.0002
     26 C           0.9277   -2.4063    2.8363 C.3     1  LIG1       -0.0401
     27 C           0.9432   -3.7625    2.1441 C.3     1  LIG1       -0.0505
     28 C           0.4059   -3.6434    0.7223 C.3     1  LIG1       -0.0370
     29 C           0.1201    1.5883    1.1859 C.2     1  LIG1       -0.0000
     30 H          -3.2578    2.6376    2.9900 H       1  LIG1        0.0323
     31 H          -2.1159    1.2844    2.9991 H       1  LIG1        0.0323
     32 H          -2.7155    1.9696    1.4451 H       1  LIG1        0.0323
     33 H           1.5596    3.6671    2.6906 H       1  LIG1        0.0468
     34 H           0.5752    4.8253    1.7940 H       1  LIG1        0.0468
     35 H           2.7527    4.3629    0.6461 H       1  LIG1        0.0284
     36 H           1.3429    3.9971   -0.3493 H       1  LIG1        0.0284
     37 H           3.1208    2.0140    1.1356 H       1  LIG1        0.0311
     38 H           2.8599    2.1649   -0.6027 H       1  LIG1        0.0311
     39 H          -0.4167   -0.1419   -3.2189 H       1  LIG1        0.0466
     40 H          -0.4423    2.1493   -2.4727 H       1  LIG1        0.0280
     41 H          -1.0886    1.6936   -0.9046 H       1  LIG1        0.0280
     42 H          -2.4840    1.3100   -3.5618 H       1  LIG1        0.0266
     43 H          -2.9231    2.4275   -2.2685 H       1  LIG1        0.0266
     44 H          -3.3878    0.5517   -0.7329 H       1  LIG1        0.0278
     45 H          -4.3200    0.3557   -2.2164 H       1  LIG1        0.0278
     46 H          -2.7229   -1.2584   -3.1028 H       1  LIG1        0.0427
     47 H          -3.2578   -1.7627   -1.4975 H       1  LIG1        0.0427
     48 H          -0.8298   -2.5994   -2.9557 H       1  LIG1        0.0430
     49 H          -1.2818   -3.1740   -1.3645 H       1  LIG1        0.0430
     50 H           2.6577   -1.5591   -2.0779 H       1  LIG1        0.0273
     51 H           1.4352   -1.4852   -3.3368 H       1  LIG1        0.0273
     52 H           2.2222   -2.7809   -0.0098 H       1  LIG1        0.0466
     53 H           1.4757   -0.3772    2.5287 H       1  LIG1        0.0427
     54 H           2.6553   -1.5128    1.8894 H       1  LIG1        0.0427
     55 H          -0.1085   -2.1223    3.0585 H       1  LIG1        0.0278
     56 H           1.4513   -2.4801    3.7965 H       1  LIG1        0.0278
     57 H           1.9696   -4.1484    2.1147 H       1  LIG1        0.0266
     58 H           0.3457   -4.4828    2.7135 H       1  LIG1        0.0266
     59 H          -0.6683   -3.4255    0.7703 H       1  LIG1        0.0280
     60 H           0.5181   -4.6070    0.2119 H       1  LIG1        0.0280
     61 H          -0.6695    0.8444    1.2662 H       1  LIG1        0.0784
@<TRIPOS>BOND
     1     1     2    2
     2     2     3    1
     3     2     4   am
     4     4     5    1
     5     5     6    1
     6     6     7    1
     7     7     8    1
     8     8     9    1
     9     9    10    1
    10     9    11    1
    11    11    12    1
    12    11    13    1
    13    13    14    1
    14    14    15    1
    15    15    16    1
    16    16    17    1
    17    17    18    1
    18    13    18    1
    19    18    19    1
    20    11    20    1
    21    20    21    1
    22    21    22    1
    23    19    21    1
    24    21    23    1
    25    23    24    1
    26     9    24    1
    27    24    25    1
    28    25    26    1
    29    26    27    1
    30    27    28    1
    31    23    28    1
    32     8    29    2
    33     4    29    1
    34     3    30    1
    35     3    31    1
    36     3    32    1
    37     5    33    1
    38     5    34    1
    39     6    35    1
    40     6    36    1
    41     7    37    1
    42     7    38    1
    43    13    39    1
    44    14    40    1
    45    14    41    1
    46    15    42    1
    47    15    43    1
    48    16    44    1
    49    16    45    1
    50    17    46    1
    51    17    47    1
    52    19    48    1
    53    19    49    1
    54    20    50    1
    55    20    51    1
    56    23    52    1
    57    25    53    1
    58    25    54    1
    59    26    55    1
    60    26    56    1
    61    27    57    1
    62    27    58    1
    63    28    59    1
    64    28    60    1
    65    29    61    1
