@<TRIPOS>MOLECULE
NuBBE_2100
 55 58 0 0 0
SMALL
GASTEIGER

@<TRIPOS>ATOM
      1 C          -1.9037   -0.7201   -2.3705 C.3     1  LIG1       -0.0219
      2 C          -3.3789   -0.4299   -2.4310 C.2     1  LIG1       -0.0902
      3 C          -3.8996    0.6943   -2.9392 C.2     1  LIG1       -0.1026
      4 C          -1.3554   -0.9863   -0.9326 C.3     1  LIG1        0.0442
      5 C           0.1190   -1.2639   -1.0462 C.2     1  LIG1        0.1504
      6 C           0.6780   -2.4819   -1.2270 C.2     1  LIG1        0.2032
      7 O           2.0264   -2.7578   -1.3294 O.2     1  LIG1       -0.4888
      8 C           2.8973   -1.7175   -1.7545 C.3     1  LIG1        0.0791
      9 C          -0.2465   -3.6608   -1.3627 C.2     1  LIG1        0.2290
     10 O           0.1961   -4.7217   -1.8433 O.2     1  LIG1       -0.2859
     11 C          -1.7409   -3.5178   -0.9828 C.3     1  LIG1        0.1247
     12 H          -2.3102   -3.5192   -1.9213 H       1  LIG1        0.0680
     13 C          -2.0012   -2.2010   -0.2467 C.3     1  LIG1       -0.0059
     14 O          -2.2858   -4.5309   -0.1344 O.3     1  LIG1       -0.3718
     15 C          -2.2348   -5.8446   -0.6732 C.3     1  LIG1        0.0374
     16 O           0.8752   -0.1341   -0.8552 O.2     1  LIG1       -0.4838
     17 C           0.0167    0.9517   -0.4757 C.3     1  LIG1        0.1286
     18 H          -0.1067    1.5538   -1.3868 H       1  LIG1        0.0787
     19 C          -1.3440    0.3241   -0.0940 C.3     1  LIG1        0.0104
     20 H          -2.1426    1.0064   -0.4125 H       1  LIG1        0.0347
     21 C          -1.5442    0.1305    1.4136 C.3     1  LIG1       -0.0578
     22 C           0.7310    1.8285    0.5401 C.ar    1  LIG1        0.0001
     23 C           0.1128    2.9926    1.0200 C.ar    1  LIG1       -0.0092
     24 C           0.8032    3.7744    1.9242 C.ar    1  LIG1        0.1703
     25 C           2.0803    3.4714    2.3409 C.ar    1  LIG1        0.2075
     26 C           2.7474    2.3610    1.8686 C.ar    1  LIG1        0.1657
     27 C           2.0481    1.5265    0.9864 C.ar    1  LIG1       -0.0094
     28 O           4.0272    1.9911    2.1774 O.3     1  LIG1       -0.4913
     29 C           4.8777    3.0588    2.5968 C.3     1  LIG1        0.0790
     30 O           2.5443    4.3842    3.2375 O.3     1  LIG1       -0.4489
     31 C           1.4643    5.3251    3.2743 C.3     1  LIG1        0.2334
     32 O           0.3259    4.9149    2.4950 O.3     1  LIG1       -0.4525
     33 H          -1.3509    0.1115   -2.8298 H       1  LIG1        0.0317
     34 H          -1.7050   -1.5808   -3.0225 H       1  LIG1        0.0317
     35 H          -4.0601   -1.1921   -2.0580 H       1  LIG1        0.0567
     36 H          -3.2782    1.4839   -3.3508 H       1  LIG1        0.0532
     37 H          -4.9752    0.8454   -2.9610 H       1  LIG1        0.0532
     38 H           3.8973   -2.1389   -1.8829 H       1  LIG1        0.0660
     39 H           2.9953   -0.9313   -1.0029 H       1  LIG1        0.0660
     40 H           2.5719   -1.3098   -2.7178 H       1  LIG1        0.0660
     41 H          -1.6001   -2.3285    0.7689 H       1  LIG1        0.0304
     42 H          -3.0795   -2.0561   -0.1055 H       1  LIG1        0.0304
     43 H          -2.8629   -6.4881   -0.0501 H       1  LIG1        0.0524
     44 H          -1.2185   -6.2428   -0.6274 H       1  LIG1        0.0524
     45 H          -2.6188   -5.8703   -1.6969 H       1  LIG1        0.0524
     46 H          -0.7408   -0.4597    1.8638 H       1  LIG1        0.0234
     47 H          -2.5021   -0.3594    1.6178 H       1  LIG1        0.0234
     48 H          -1.5918    1.0921    1.9330 H       1  LIG1        0.0234
     49 H          -0.8876    3.2776    0.7117 H       1  LIG1        0.0659
     50 H           2.5548    0.6324    0.6278 H       1  LIG1        0.0659
     51 H           5.9060    2.6890    2.6341 H       1  LIG1        0.0660
     52 H           4.6289    3.3941    3.6085 H       1  LIG1        0.0660
     53 H           4.8492    3.8900    1.8818 H       1  LIG1        0.0660
     54 H           1.8335    6.2807    2.8852 H       1  LIG1        0.1166
     55 H           1.1584    5.4595    4.3170 H       1  LIG1        0.1166
@<TRIPOS>BOND
     1     1     2    1
     2     2     3    2
     3     1     4    1
     4     4     5    1
     5     5     6    2
     6     6     7    1
     7     7     8    1
     8     6     9    1
     9     9    10    2
    10     9    11    1
    11    11    12    1
    12    11    13    1
    13     4    13    1
    14    11    14    1
    15    14    15    1
    16     5    16    1
    17    16    17    1
    18    17    19    1
    19     4    19    1
    20    22    23   ar
    21    23    24   ar
    22    24    25   ar
    23    25    26   ar
    24    26    27   ar
    25    22    27   ar
    26    26    28    1
    27    28    29    1
    28    25    30    1
    29    30    31    1
    30    31    32    1
    31    24    32    1
    32    17    22    1
    33    17    18    1
    34    19    21    1
    35    19    20    1
    36     1    33    1
    37     1    34    1
    38     2    35    1
    39     3    36    1
    40     3    37    1
    41     8    38    1
    42     8    39    1
    43     8    40    1
    44    13    41    1
    45    13    42    1
    46    15    43    1
    47    15    44    1
    48    15    45    1
    49    21    46    1
    50    21    47    1
    51    21    48    1
    52    23    49    1
    53    27    50    1
    54    29    51    1
    55    29    52    1
    56    29    53    1
    57    31    54    1
    58    31    55    1
