REMARK  Name = NuBBE_374
REMARK  22 active torsions:
REMARK  status: ('A' for Active; 'I' for Inactive)
REMARK    1  A    between atoms: C_1  and  C_2
REMARK    2  A    between atoms: C_2  and  C_3
REMARK    3  A    between atoms: C_2  and  O_34
REMARK    4  A    between atoms: C_4  and  C_5
REMARK    5  A    between atoms: C_5  and  C_6
REMARK    6  A    between atoms: C_7  and  C_8
REMARK    7  A    between atoms: N_9  and  C_10
REMARK    8  A    between atoms: C_10  and  C_11
REMARK    9  A    between atoms: C_11  and  C_12
REMARK   10  A    between atoms: C_11  and  C_13
REMARK   11  A    between atoms: C_11  and  C_31
REMARK   12  A    between atoms: C_13  and  C_14
REMARK   13  A    between atoms: C_14  and  C_15
REMARK   14  A    between atoms: C_14  and  C_16
REMARK   15  A    between atoms: C_14  and  C_29
REMARK   16  A    between atoms: C_16  and  N_17
REMARK   17  A    between atoms: C_18  and  C_19
REMARK   18  A    between atoms: C_20  and  C_21
REMARK   19  A    between atoms: C_20  and  C_26
REMARK   20  A    between atoms: C_22  and  C_23
REMARK   21  A    between atoms: C_23  and  C_24
REMARK   22  A    between atoms: C_23  and  O_25
REMARK                            x       y       z     vdW  Elec       q    Type
REMARK                         _______ _______ _______ _____ _____    ______ ____
ROOT
ATOM      1  C   LIG A   1       1.312  -0.954   2.243  0.00  0.00    +0.147 C 
ATOM      2  O   LIG A   1       2.042  -1.184   3.223  0.00  0.00    -0.296 OA
ENDROOT
BRANCH   1   3
ATOM      3  C   LIG A   1       2.015  -0.763   0.856  0.00  0.00    +0.039 C 
ATOM      4  C   LIG A   1       1.167  -1.086  -0.373  0.00  0.00    +0.020 C 
ATOM      5  C   LIG A   1       2.490   0.698   0.770  0.00  0.00    +0.020 C 
BRANCH   3   6
ATOM      6  C   LIG A   1       3.254  -1.719   0.790  0.00  0.00    +0.118 C 
BRANCH   6   8
ATOM      7  C   LIG A   1       4.689  -2.605  -1.059  0.00  0.00    +0.237 C 
ATOM      8  N   LIG A   1       4.008  -1.575  -0.459  0.00  0.00    -0.311 N 
ATOM      9  H   LIG A   1       4.059  -0.667  -0.896  0.00  0.00    +0.149 HD
ATOM     10  O   LIG A   1       4.748  -3.747  -0.637  0.00  0.00    -0.271 OA
BRANCH   7  13
ATOM     11  C   LIG A   1       5.151  -2.695  -3.523  0.00  0.00    -0.046 C 
ATOM     12  C   LIG A   1       4.167  -3.794  -3.821  0.00  0.00    +0.044 C 
ATOM     13  C   LIG A   1       5.378  -2.170  -2.303  0.00  0.00    +0.070 C 
BRANCH  11  15
ATOM     14  C   LIG A   1       5.421  -1.706  -5.792  0.00  0.00    +0.004 C 
ATOM     15  C   LIG A   1       5.932  -2.232  -4.664  0.00  0.00    +0.002 C 
BRANCH  14  17
ATOM     16  C   LIG A   1       5.494  -1.331  -8.290  0.00  0.00    +0.042 C 
ATOM     17  C   LIG A   1       6.242  -1.232  -6.965  0.00  0.00    +0.134 C 
BRANCH  17  18
ATOM     18  O   LIG A   1       7.436  -2.000  -7.068  0.00  0.00    -0.388 OA
ATOM     19  H   LIG A   1       7.166  -2.913  -7.272  0.00  0.00    +0.210 HD
ENDBRANCH  17  18
ENDBRANCH  14  17
ENDBRANCH  11  15
ENDBRANCH   7  13
ENDBRANCH   6   8
ENDBRANCH   3   6
ENDBRANCH   1   3
BRANCH   1  20
ATOM     20  C   LIG A   1      -0.222  -0.704   2.516  0.00  0.00    +0.039 C 
ATOM     21  C   LIG A   1      -0.597  -1.591   3.737  0.00  0.00    +0.020 C 
ATOM     22  C   LIG A   1      -1.175  -1.160   1.410  0.00  0.00    +0.020 C 
BRANCH  20  23
ATOM     23  C   LIG A   1      -0.466   0.784   2.902  0.00  0.00    +0.118 C 
BRANCH  23  24
ATOM     24  N   LIG A   1      -1.876   1.123   3.148  0.00  0.00    -0.311 N 
ATOM     25  C   LIG A   1      -2.717   1.644   2.172  0.00  0.00    +0.237 C 
ATOM     26  O   LIG A   1      -2.379   1.929   1.049  0.00  0.00    -0.271 OA
ATOM     27  H   LIG A   1      -2.254   0.925   4.062  0.00  0.00    +0.149 HD
BRANCH  25  28
ATOM     28  C   LIG A   1      -4.137   1.735   2.638  0.00  0.00    +0.070 C 
ATOM     29  C   LIG A   1      -5.008   2.753   2.467  0.00  0.00    -0.046 C 
ATOM     30  C   LIG A   1      -4.731   4.051   1.751  0.00  0.00    +0.044 C 
BRANCH  29  31
ATOM     31  C   LIG A   1      -6.359   2.597   3.019  0.00  0.00    +0.002 C 
ATOM     32  C   LIG A   1      -7.153   3.599   3.440  0.00  0.00    +0.004 C 
BRANCH  32  33
ATOM     33  C   LIG A   1      -8.498   3.466   4.097  0.00  0.00    +0.134 C 
ATOM     34  C   LIG A   1      -9.570   4.271   3.372  0.00  0.00    +0.042 C 
BRANCH  33  35
ATOM     35  O   LIG A   1      -8.900   2.105   4.144  0.00  0.00    -0.388 OA
ATOM     36  H   LIG A   1      -8.976   1.805   3.223  0.00  0.00    +0.210 HD
ENDBRANCH  33  35
ENDBRANCH  32  33
ENDBRANCH  29  31
ENDBRANCH  25  28
ENDBRANCH  23  24
ENDBRANCH  20  23
ENDBRANCH   1  20
TORSDOF 14
