@<TRIPOS>MOLECULE
NuBBE_1866
 27 27 0 0 0
SMALL
GASTEIGER

@<TRIPOS>ATOM
      1 C           0.7782   -2.4914   -1.9267 C.3     1  LIG1        0.0370
      2 O           0.7165   -1.0708   -1.8876 O.3     1  LIG1       -0.3745
      3 C          -0.0765   -0.5483   -0.7952 C.3     1  LIG1        0.1149
      4 H          -1.0727   -1.0035   -0.8722 H       1  LIG1        0.0649
      5 C          -0.1677    0.9645   -1.0721 C.3     1  LIG1        0.1121
      6 H           0.8377    1.3796   -1.2149 H       1  LIG1        0.0647
      7 C          -0.9022    1.7335    0.0296 C.3     1  LIG1        0.1118
      8 H          -0.8732    2.8043   -0.2043 H       1  LIG1        0.0647
      9 C          -0.2785    1.4784    1.4025 C.3     1  LIG1        0.1118
     10 H          -0.8672    1.9560    2.1947 H       1  LIG1        0.0647
     11 O           1.0472    2.0256    1.4722 O.3     1  LIG1       -0.3865
     12 C          -0.1907   -0.0229    1.6975 C.3     1  LIG1        0.1118
     13 H          -1.1924   -0.4422    1.8490 H       1  LIG1        0.0647
     14 O           0.5297   -0.2322    2.9281 O.3     1  LIG1       -0.3865
     15 C           0.5363   -0.8088    0.5930 C.3     1  LIG1        0.1121
     16 H           1.6077   -0.5749    0.5834 H       1  LIG1        0.0647
     17 O           0.4448   -2.2040    0.9383 O.3     1  LIG1       -0.3865
     18 O          -2.2795    1.3477    0.0384 O.3     1  LIG1       -0.3865
     19 O          -0.8783    1.1695   -2.3088 O.3     1  LIG1       -0.3865
     20 H          -0.2072   -2.9399   -1.7695 H       1  LIG1        0.0524
     21 H           1.4986   -2.8628   -1.1941 H       1  LIG1        0.0524
     22 H           1.1353   -2.7845   -2.9181 H       1  LIG1        0.0524
     23 H           0.9550    2.9972    1.4709 H       1  LIG1        0.2100
     24 H           1.2553    0.4256    2.9158 H       1  LIG1        0.2100
     25 H           0.6486   -2.2456    1.8951 H       1  LIG1        0.2100
     26 H          -2.5582    1.3895   -0.9012 H       1  LIG1        0.2100
     27 H          -0.4467    0.5605   -2.9437 H       1  LIG1        0.2100
@<TRIPOS>BOND
     1     1     2    1
     2     3     5    1
     3     5     6    1
     4     5     7    1
     5     7     9    1
     6     9    10    1
     7     9    11    1
     8     9    12    1
     9    12    13    1
    10    12    14    1
    11    12    15    1
    12     3    15    1
    13     5    19    1
    14     7    18    1
    15     7     8    1
    16    15    17    1
    17    15    16    1
    18     3     4    1
    19     3     2    1
    20     1    20    1
    21     1    21    1
    22     1    22    1
    23    11    23    1
    24    14    24    1
    25    17    25    1
    26    18    26    1
    27    19    27    1
