@<TRIPOS>MOLECULE
NuBBE_2300
 79 82 0 0 0
SMALL
GASTEIGER

@<TRIPOS>ATOM
      1 O          -3.5501   -0.6321   -0.4162 O.3     1  LIG1       -0.3837
      2 C          -2.3246    0.0211   -0.1012 C.3     1  LIG1        0.0934
      3 C          -1.4436   -1.0453    0.5603 C.2     1  LIG1       -0.0310
      4 C          -1.1200   -1.0411    1.8601 C.2     1  LIG1       -0.0167
      5 C          -0.2181   -2.0505    2.4348 C.2     1  LIG1        0.1598
      6 O           0.3657   -1.7984    3.4782 O.2     1  LIG1       -0.2924
      7 C          -0.1433   -3.4121    1.7838 C.3     1  LIG1        0.0299
      8 H           0.8651   -3.7759    2.0300 H       1  LIG1        0.0387
      9 C          -0.3077   -3.4230    0.2291 C.3     1  LIG1       -0.0132
     10 C          -0.8805   -2.0780   -0.3986 C.3     1  LIG1       -0.0107
     11 H          -1.7159   -2.3968   -1.0365 H       1  LIG1        0.0352
     12 C           0.0517   -1.2787   -1.3276 C.3     1  LIG1       -0.0453
     13 C          -0.7584   -0.2683   -2.1568 C.3     1  LIG1       -0.0438
     14 C          -1.6561    0.7200   -1.3524 C.3     1  LIG1        0.0061
     15 C          -2.7527    1.2155   -2.3285 C.3     1  LIG1       -0.0563
     16 C          -0.8018    1.8987   -0.6991 C.3     1  LIG1       -0.0015
     17 H           0.1822    1.4628   -0.5223 H       1  LIG1        0.0336
     18 C          -1.4416    2.1284    0.6949 C.3     1  LIG1       -0.0440
     19 C          -2.6723    1.2401    0.7628 C.3     1  LIG1       -0.0192
     20 C          -0.5422    3.2446   -1.4709 C.3     1  LIG1        0.0925
     21 C           0.2986    4.3312   -0.6833 C.3     1  LIG1        0.0863
     22 H          -0.2092    4.5956    0.2487 H       1  LIG1        0.0623
     23 C           1.7982    4.1007   -0.4119 C.3     1  LIG1        0.0046
     24 C           2.1654    3.0576    0.6462 C.3     1  LIG1        0.0858
     25 H           1.7843    2.0796    0.3580 H       1  LIG1        0.0622
     26 C           3.6881    2.8730    0.9228 C.3     1  LIG1        0.0863
     27 C           4.4544    2.4230   -0.3232 C.3     1  LIG1       -0.0339
     28 C           4.3516    4.1004    1.5530 C.3     1  LIG1       -0.0339
     29 O           3.7714    1.8077    1.8947 O.3     1  LIG1       -0.3866
     30 O           1.5073    3.3848    1.8765 O.3     1  LIG1       -0.3889
     31 O           0.2414    5.5549   -1.4675 O.3     1  LIG1       -0.3889
     32 C           0.0758    3.0091   -2.8619 C.3     1  LIG1       -0.0334
     33 O          -1.8142    3.8911   -1.7306 O.3     1  LIG1       -0.3860
     34 C           1.0742   -3.7924   -0.3725 C.3     1  LIG1       -0.0583
     35 C          -1.3033   -4.5655   -0.1804 C.3     1  LIG1       -0.0178
     36 C          -1.0515   -5.9049    0.5146 C.3     1  LIG1        0.0816
     37 H          -0.1000   -6.3289    0.1768 H       1  LIG1        0.0619
     38 C          -1.0265   -5.7711    2.0504 C.3     1  LIG1        0.0817
     39 H          -0.0890   -6.2005    2.4233 H       1  LIG1        0.0619
     40 C          -1.1342   -4.3247    2.5195 C.3     1  LIG1       -0.0141
     41 O          -2.0907   -6.5166    2.6449 O.3     1  LIG1       -0.3892
     42 O          -2.0746   -6.8390    0.1405 O.3     1  LIG1       -0.3892
     43 H          -3.4207   -1.1636   -1.2171 H       1  LIG1        0.2106
     44 H          -1.4525   -0.2956    2.5712 H       1  LIG1        0.0653
     45 H           0.5543   -1.9351   -2.0446 H       1  LIG1        0.0271
     46 H           0.8369   -0.7692   -0.7547 H       1  LIG1        0.0271
     47 H          -1.3923   -0.8560   -2.8350 H       1  LIG1        0.0272
     48 H          -0.0688    0.2762   -2.8079 H       1  LIG1        0.0272
     49 H          -3.3676    0.3832   -2.6898 H       1  LIG1        0.0236
     50 H          -2.3360    1.6654   -3.2294 H       1  LIG1        0.0236
     51 H          -3.4304    1.9379   -1.8679 H       1  LIG1        0.0236
     52 H          -1.7179    3.1638    0.9063 H       1  LIG1        0.0270
     53 H          -0.7242    1.8369    1.4707 H       1  LIG1        0.0270
     54 H          -3.5376    1.7729    0.3481 H       1  LIG1        0.0296
     55 H          -2.9633    0.9981    1.7892 H       1  LIG1        0.0296
     56 H           2.1976    5.0699   -0.0805 H       1  LIG1        0.0317
     57 H           2.3043    3.8909   -1.3592 H       1  LIG1        0.0317
     58 H           4.3897    3.1519   -1.1359 H       1  LIG1        0.0258
     59 H           4.0828    1.4575   -0.6847 H       1  LIG1        0.0258
     60 H           5.5164    2.2754   -0.0944 H       1  LIG1        0.0258
     61 H           4.2396    4.9957    0.9371 H       1  LIG1        0.0258
     62 H           5.4253    3.9241    1.6956 H       1  LIG1        0.0258
     63 H           3.9470    4.2984    2.5516 H       1  LIG1        0.0258
     64 H           4.6789    1.7867    2.2471 H       1  LIG1        0.2102
     65 H           1.9065    2.7839    2.5403 H       1  LIG1        0.2099
     66 H          -0.6356    5.5533   -1.9021 H       1  LIG1        0.2099
     67 H          -0.6734    2.7162   -3.6017 H       1  LIG1        0.0258
     68 H           0.8665    2.2568   -2.8351 H       1  LIG1        0.0258
     69 H           0.5129    3.9232   -3.2779 H       1  LIG1        0.0258
     70 H          -2.2345    4.0996   -0.8768 H       1  LIG1        0.2103
     71 H           1.8126   -3.0057   -0.1852 H       1  LIG1        0.0235
     72 H           1.0121   -3.9694   -1.4515 H       1  LIG1        0.0235
     73 H           1.4764   -4.7116    0.0689 H       1  LIG1        0.0235
     74 H          -1.2782   -4.7179   -1.2683 H       1  LIG1        0.0297
     75 H          -2.3376   -4.2576    0.0325 H       1  LIG1        0.0297
     76 H          -0.9623   -4.2896    3.6038 H       1  LIG1        0.0298
     77 H          -2.1640   -3.9614    2.3941 H       1  LIG1        0.0298
     78 H          -2.4896   -7.0242    1.9057 H       1  LIG1        0.2099
     79 H          -2.0265   -6.9563   -0.8250 H       1  LIG1        0.2099
@<TRIPOS>BOND
     1     1     2    1
     2     2     3    1
     3     3     4    2
     4     4     5    1
     5     5     6    2
     6     5     7    1
     7     7     8    1
     8     7     9    1
     9     9    10    1
    10    10    11    1
    11     3    10    1
    12    10    12    1
    13    12    13    1
    14    13    14    1
    15     2    14    1
    16    14    15    1
    17    14    16    1
    18    16    18    1
    19    18    19    1
    20     2    19    1
    21    20    21    1
    22    21    22    1
    23    21    23    1
    24    23    24    1
    25    24    25    1
    26    24    26    1
    27    26    27    1
    28    26    28    1
    29    26    29    1
    30    24    30    1
    31    21    31    1
    32    20    32    1
    33    20    33    1
    34     9    34    1
    35     9    35    1
    36    35    36    1
    37    36    37    1
    38    36    38    1
    39    38    40    1
    40     7    40    1
    41    36    42    1
    42    16    20    1
    43    16    17    1
    44    38    41    1
    45    38    39    1
    46     1    43    1
    47     4    44    1
    48    12    45    1
    49    12    46    1
    50    13    47    1
    51    13    48    1
    52    15    49    1
    53    15    50    1
    54    15    51    1
    55    18    52    1
    56    18    53    1
    57    19    54    1
    58    19    55    1
    59    23    56    1
    60    23    57    1
    61    27    58    1
    62    27    59    1
    63    27    60    1
    64    28    61    1
    65    28    62    1
    66    28    63    1
    67    29    64    1
    68    30    65    1
    69    31    66    1
    70    32    67    1
    71    32    68    1
    72    32    69    1
    73    33    70    1
    74    34    71    1
    75    34    72    1
    76    34    73    1
    77    35    74    1
    78    35    75    1
    79    40    76    1
    80    40    77    1
    81    41    78    1
    82    42    79    1
