@<TRIPOS>MOLECULE
NuBBE_1614
 44 46 0 0 0
SMALL
GASTEIGER

@<TRIPOS>ATOM
      1 O          -3.0101   -2.1115   -0.3417 O.3     1  LIG1       -0.4906
      2 C          -3.7906   -3.1868    0.1703 C.3     1  LIG1        0.0790
      3 C          -1.6536   -2.1020   -0.1278 C.ar    1  LIG1        0.1780
      4 C          -1.0427   -0.8363    0.0215 C.ar    1  LIG1        0.0910
      5 C           0.3537   -0.7445    0.1054 C.ar    1  LIG1        0.0579
      6 N           1.0094    0.4914    0.1534 N.ar    1  LIG1       -0.3508
      7 H           1.9983    0.5299   -0.0763 H       1  LIG1        0.1660
      8 C           0.3490    1.7244    0.0220 C.ar    1  LIG1        0.0965
      9 C          -1.0481    1.7484    0.0486 C.ar    1  LIG1        0.0495
     10 C          -1.8087    0.4585    0.0825 C.ar    1  LIG1        0.2008
     11 O          -3.0174    0.5051    0.1912 O.2     1  LIG1       -0.2864
     12 C          -1.7200    2.9674    0.0518 C.ar    1  LIG1       -0.0452
     13 C          -0.9960    4.1640    0.0748 C.ar    1  LIG1       -0.0155
     14 C           0.4072    4.1622    0.0792 C.ar    1  LIG1        0.1636
     15 C           1.0843    2.9325   -0.0124 C.ar    1  LIG1        0.1855
     16 O           2.4508    2.7607   -0.0766 O.3     1  LIG1       -0.4895
     17 C           3.2096    3.7526   -0.7661 C.3     1  LIG1        0.0791
     18 O           1.1651    5.2941    0.2331 O.3     1  LIG1       -0.4914
     19 C           0.4858    6.5286    0.4253 C.3     1  LIG1        0.0790
     20 C           1.1133   -1.9072    0.2155 C.ar    1  LIG1        0.0080
     21 C           0.5497   -3.1719    0.0263 C.ar    1  LIG1        0.1672
     22 C          -0.8421   -3.2662   -0.1971 C.ar    1  LIG1        0.2044
     23 O          -1.4709   -4.3938   -0.6721 O.3     1  LIG1       -0.4885
     24 C          -1.0906   -5.6649   -0.1664 C.3     1  LIG1        0.0791
     25 O           1.3116   -4.3112   -0.0282 O.3     1  LIG1       -0.4913
     26 C           2.7253   -4.1939    0.1337 C.3     1  LIG1        0.0790
     27 H          -4.4728   -2.7954    0.9303 H       1  LIG1        0.0660
     28 H          -3.2391   -4.0003    0.6452 H       1  LIG1        0.0660
     29 H          -4.3919   -3.5904   -0.6511 H       1  LIG1        0.0660
     30 H          -2.8076    2.9909    0.0745 H       1  LIG1        0.0626
     31 H          -1.5675    5.0857    0.1123 H       1  LIG1        0.0655
     32 H           3.7943    4.3244   -0.0388 H       1  LIG1        0.0660
     33 H           2.6228    4.4219   -1.4024 H       1  LIG1        0.0660
     34 H           3.9136    3.2364   -1.4278 H       1  LIG1        0.0660
     35 H           1.2275    7.2765    0.7212 H       1  LIG1        0.0660
     36 H          -0.2527    6.4709    1.2315 H       1  LIG1        0.0660
     37 H           0.0264    6.8583   -0.5119 H       1  LIG1        0.0660
     38 H           2.1715   -1.7728    0.4041 H       1  LIG1        0.0676
     39 H          -1.9897   -6.2932   -0.1682 H       1  LIG1        0.0660
     40 H          -0.7209   -5.6339    0.8629 H       1  LIG1        0.0660
     41 H          -0.3698   -6.1291   -0.8439 H       1  LIG1        0.0660
     42 H           2.9863   -4.2046    1.1975 H       1  LIG1        0.0660
     43 H           3.1564   -3.3168   -0.3590 H       1  LIG1        0.0660
     44 H           3.1911   -5.0582   -0.3463 H       1  LIG1        0.0660
@<TRIPOS>BOND
     1     1     2    1
     2     1     3    1
     3     3     4   ar
     4     4     5   ar
     5     5     6   ar
     6     6     7    1
     7     6     8   ar
     8     8     9   ar
     9     9    10   ar
    10     4    10   ar
    11    10    11    2
    12     9    12   ar
    13    12    13   ar
    14    13    14   ar
    15    14    15   ar
    16     8    15   ar
    17    15    16    1
    18    16    17    1
    19    14    18    1
    20    18    19    1
    21     5    20   ar
    22    20    21   ar
    23    21    22   ar
    24     3    22   ar
    25    22    23    1
    26    23    24    1
    27    21    25    1
    28    25    26    1
    29     2    27    1
    30     2    28    1
    31     2    29    1
    32    12    30    1
    33    13    31    1
    34    17    32    1
    35    17    33    1
    36    17    34    1
    37    19    35    1
    38    19    36    1
    39    19    37    1
    40    20    38    1
    41    24    39    1
    42    24    40    1
    43    24    41    1
    44    26    42    1
    45    26    43    1
    46    26    44    1
