@<TRIPOS>MOLECULE
NuBBE_370
 48 51 0 0 0
SMALL
GASTEIGER

@<TRIPOS>ATOM
      1 O           1.1219   -7.3063    2.9600 O.3     1  LIG1       -0.5032
      2 C           0.8266   -6.1777    2.2487 C.ar    1  LIG1        0.1618
      3 C           1.3436   -4.9429    2.6397 C.ar    1  LIG1        0.0265
      4 C           1.0268   -3.8010    1.9012 C.ar    1  LIG1        0.1430
      5 O           1.5701   -2.6174    2.3379 O.2     1  LIG1       -0.4542
      6 C           1.2491   -1.4638    1.6628 C.ar    1  LIG1        0.1463
      7 C           1.7970   -0.2840    2.1650 C.ar    1  LIG1        0.0235
      8 C           1.5033    0.9365    1.5503 C.ar    1  LIG1        0.1296
      9 C           0.6625    1.0126    0.4279 C.ar    1  LIG1        0.0673
     10 C           0.3325    2.3536   -0.2117 C.3     1  LIG1        0.1193
     11 H           0.7619    3.1664    0.3864 H       1  LIG1        0.0676
     12 O          -1.1005    2.4988   -0.1408 O.3     1  LIG1       -0.3609
     13 C          -1.6000    3.6856   -0.7676 C.3     1  LIG1        0.1108
     14 H          -1.1852    4.5544   -0.2394 H       1  LIG1        0.0646
     15 C          -1.2191    3.7098   -2.2499 C.3     1  LIG1        0.1117
     16 H          -1.6373    2.8383   -2.7688 H       1  LIG1        0.0647
     17 C           0.3036    3.6773   -2.3703 C.3     1  LIG1        0.1121
     18 H           0.7366    4.6032   -1.9716 H       1  LIG1        0.0647
     19 C           0.8912    2.4614   -1.6524 C.3     1  LIG1        0.1139
     20 H           0.6717    1.5693   -2.2471 H       1  LIG1        0.0649
     21 O           2.3234    2.5989   -1.6513 O.3     1  LIG1       -0.3862
     22 O           0.6950    3.6424   -3.7540 O.3     1  LIG1       -0.3865
     23 O          -1.7078    4.8717   -2.9308 O.3     1  LIG1       -0.3865
     24 C          -3.1219    3.7011   -0.5859 C.3     1  LIG1        0.0729
     25 O          -3.4389    3.7049    0.8073 O.3     1  LIG1       -0.3924
     26 C           0.1334   -0.1923   -0.0748 C.ar    1  LIG1        0.1404
     27 O          -0.6789   -0.1360   -1.1824 O.3     1  LIG1       -0.5054
     28 O           2.0417    2.0857    2.0605 O.3     1  LIG1       -0.5062
     29 C           0.4258   -1.4190    0.5417 C.ar    1  LIG1        0.1064
     30 C          -0.1271   -2.6857    0.0393 C.ar    1  LIG1        0.2038
     31 O          -0.8372   -2.7088   -0.9585 O.2     1  LIG1       -0.2863
     32 C           0.1986   -3.9068    0.7851 C.ar    1  LIG1        0.0684
     33 C          -0.3196   -5.1427    0.3858 C.ar    1  LIG1       -0.0022
     34 C           0.0003   -6.2771    1.1256 C.ar    1  LIG1        0.1591
     35 O          -0.4915   -7.4989    0.7632 O.3     1  LIG1       -0.5033
     36 H           1.6948   -7.0805    3.7088 H       1  LIG1        0.2923
     37 H           1.9865   -4.8559    3.5099 H       1  LIG1        0.0692
     38 H           2.4401   -0.3280    3.0392 H       1  LIG1        0.0691
     39 H           2.5592    2.7695   -2.5850 H       1  LIG1        0.2100
     40 H           0.0324    4.1791   -4.2340 H       1  LIG1        0.2100
     41 H          -1.4642    5.6614   -2.4147 H       1  LIG1        0.2100
     42 H          -3.5844    2.8111   -1.0248 H       1  LIG1        0.0584
     43 H          -3.5707    4.5922   -1.0342 H       1  LIG1        0.0584
     44 H          -2.9657    2.9348    1.1794 H       1  LIG1        0.2095
     45 H          -0.9665   -1.0503   -1.4061 H       1  LIG1        0.2922
     46 H           2.6905    1.8640    2.7490 H       1  LIG1        0.2922
     47 H          -0.9626   -5.2033   -0.4874 H       1  LIG1        0.0663
     48 H          -1.0410   -7.4054   -0.0310 H       1  LIG1        0.2923
@<TRIPOS>BOND
     1     1     2    1
     2     2     3   ar
     3     3     4   ar
     4     4     5   ar
     5     5     6   ar
     6     6     7   ar
     7     7     8   ar
     8     8     9   ar
     9    10    12    1
    10    12    13    1
    11    13    14    1
    12    13    15    1
    13    15    17    1
    14    17    18    1
    15    17    19    1
    16    10    19    1
    17    17    22    1
    18    13    24    1
    19    24    25    1
    20     9    26   ar
    21    26    27    1
    22     8    28    1
    23     6    29   ar
    24    26    29   ar
    25    29    30   ar
    26    30    31    2
    27     4    32   ar
    28    30    32   ar
    29    32    33   ar
    30    33    34   ar
    31     2    34   ar
    32    34    35    1
    33    10    11    1
    34    10     9    1
    35    15    23    1
    36    15    16    1
    37    19    21    1
    38    19    20    1
    39     1    36    1
    40     3    37    1
    41     7    38    1
    42    21    39    1
    43    22    40    1
    44    23    41    1
    45    24    42    1
    46    24    43    1
    47    25    44    1
    48    27    45    1
    49    28    46    1
    50    33    47    1
    51    35    48    1
