REMARK  Name = NuBBE_1171
REMARK  4 active torsions:
REMARK  status: ('A' for Active; 'I' for Inactive)
REMARK    1  A    between atoms: N_3  and  C_4
REMARK    2  A    between atoms: C_7  and  O_8
REMARK    3  A    between atoms: O_8  and  C_9
REMARK    4  A    between atoms: C_10  and  C_11
REMARK                            x       y       z     vdW  Elec       q    Type
REMARK                         _______ _______ _______ _____ _____    ______ ____
ROOT
ATOM      1  O   LIG A   1      -2.494   0.739  -0.243  0.00  0.00    -0.266 OA
ATOM      2  C   LIG A   1      -1.278   0.650  -0.076  0.00  0.00    +0.272 A 
ATOM      3  N   LIG A   1      -0.471   1.749   0.221  0.00  0.00    -0.317 N 
ATOM      4  C   LIG A   1      -1.073   3.071   0.339  0.00  0.00    +0.152 C 
ATOM      5  C   LIG A   1       0.890   1.632   0.394  0.00  0.00    +0.092 A 
ATOM      6  C   LIG A   1       1.494   0.447   0.290  0.00  0.00    +0.065 A 
ATOM      7  C   LIG A   1       0.746  -0.758  -0.009  0.00  0.00    +0.144 A 
ATOM      8  C   LIG A   1      -0.594  -0.686  -0.189  0.00  0.00    +0.157 A 
ENDROOT
BRANCH   7   9
ATOM      9  O   LIG A   1       1.600  -1.830  -0.059  0.00  0.00    -0.494 OA
ATOM     10  C   LIG A   1       1.150  -3.145  -0.349  0.00  0.00    +0.277 C 
ENDBRANCH   7   9
BRANCH   8  11
ATOM     11  C   LIG A   1      -1.438  -1.788  -0.484  0.00  0.00    +0.108 C 
ATOM     12  N   LIG A   1      -2.090  -2.720  -0.724  0.00  0.00    -0.191 NA
ENDBRANCH   8  11
TORSDOF 2
