REMARK  Name = NuBBE_1473
REMARK  13 active torsions:
REMARK  status: ('A' for Active; 'I' for Inactive)
REMARK    1  A    between atoms: O_1  and  C_2
REMARK    2  A    between atoms: C_3  and  C_4
REMARK    3  A    between atoms: C_4  and  C_5
REMARK    4  A    between atoms: C_6  and  C_7
REMARK    5  A    between atoms: C_6  and  C_8
REMARK    6  A    between atoms: C_9  and  O_10
REMARK    7  A    between atoms: C_11  and  O_30
REMARK    8  A    between atoms: C_16  and  C_24
REMARK    9  A    between atoms: C_19  and  O_20
REMARK   10  A    between atoms: C_24  and  C_25
REMARK   11  A    between atoms: C_26  and  C_27
REMARK   12  A    between atoms: C_26  and  C_28
REMARK   13  A    between atoms: O_30  and  C_31
REMARK                            x       y       z     vdW  Elec       q    Type
REMARK                         _______ _______ _______ _____ _____    ______ ____
ROOT
ATOM      1  C   LIG A   1      -2.700  -0.437  -0.319  0.00  0.00    +0.168 A 
ATOM      2  C   LIG A   1      -2.098   0.839  -0.393  0.00  0.00    +0.044 A 
ATOM      3  C   LIG A   1      -0.719   0.892  -0.631  0.00  0.00    +0.137 A 
ATOM      4  C   LIG A   1      -1.951  -1.629  -0.402  0.00  0.00    +0.186 A 
ATOM      5  C   LIG A   1      -0.556  -1.541  -0.554  0.00  0.00    +0.100 A 
ATOM      6  C   LIG A   1       0.039  -0.284  -0.701  0.00  0.00    +0.091 A 
ATOM      7  C   LIG A   1       1.500  -0.229  -0.929  0.00  0.00    +0.201 A 
ATOM      8  C   LIG A   1       2.343  -1.419  -0.601  0.00  0.00    +0.053 A 
ATOM      9  C   LIG A   1       3.739  -1.351  -0.410  0.00  0.00    -0.031 A 
ATOM     10  C   LIG A   1       4.434  -2.563  -0.199  0.00  0.00    +0.008 A 
ATOM     11  C   LIG A   1       3.768  -3.788  -0.137  0.00  0.00    +0.048 A 
ATOM     12  C   LIG A   1       2.386  -3.821  -0.279  0.00  0.00    +0.141 A 
ATOM     13  C   LIG A   1       1.656  -2.645  -0.489  0.00  0.00    +0.093 A 
ATOM     14  N   LIG A   1       0.255  -2.693  -0.634  0.00  0.00    -0.348 N 
ATOM     15  O   LIG A   1       1.953   0.798  -1.408  0.00  0.00    -0.286 OA
ATOM     16  H   LIG A   1      -0.182  -3.563  -0.339  0.00  0.00    +0.166 HD
ENDROOT
BRANCH   1  17
ATOM     17  O   LIG A   1      -4.060  -0.498  -0.168  0.00  0.00    -0.503 OA
ATOM     18  H   LIG A   1      -4.437   0.071  -0.864  0.00  0.00    +0.292 HD
ENDBRANCH   1  17
BRANCH   3  19
ATOM     19  O   LIG A   1      -0.133   2.124  -0.787  0.00  0.00    -0.506 OA
ATOM     20  H   LIG A   1       0.783   1.978  -1.121  0.00  0.00    +0.292 HD
ENDBRANCH   3  19
BRANCH  12  21
ATOM     21  O   LIG A   1       1.706  -5.007  -0.195  0.00  0.00    -0.505 OA
ATOM     22  H   LIG A   1       2.350  -5.729  -0.102  0.00  0.00    +0.292 HD
ENDBRANCH  12  21
BRANCH   4  23
ATOM     23  O   LIG A   1      -2.429  -2.917  -0.347  0.00  0.00    -0.489 OA
ATOM     24  C   LIG A   1      -3.829  -3.115  -0.211  0.00  0.00    +0.277 C 
ENDBRANCH   4  23
BRANCH   2  25
ATOM     25  C   LIG A   1      -2.873   2.114  -0.107  0.00  0.00    +0.069 C 
BRANCH  25  26
ATOM     26  C   LIG A   1      -4.007   2.401  -1.058  0.00  0.00    -0.023 C 
ATOM     27  C   LIG A   1      -5.313   2.558  -0.756  0.00  0.00    -0.079 C 
ATOM     28  C   LIG A   1      -5.922   2.414   0.616  0.00  0.00    +0.038 C 
ATOM     29  C   LIG A   1      -6.309   2.927  -1.823  0.00  0.00    +0.038 C 
ENDBRANCH  25  26
ENDBRANCH   2  25
BRANCH   9  30
ATOM     30  C   LIG A   1       4.536  -0.059  -0.404  0.00  0.00    +0.063 C 
BRANCH  30  31
ATOM     31  C   LIG A   1       5.263   0.180   0.897  0.00  0.00    -0.024 C 
ATOM     32  C   LIG A   1       5.117   1.220   1.744  0.00  0.00    -0.079 C 
ATOM     33  C   LIG A   1       4.137   2.348   1.567  0.00  0.00    +0.038 C 
ATOM     34  C   LIG A   1       5.973   1.328   2.979  0.00  0.00    +0.038 C 
ENDBRANCH  30  31
ENDBRANCH   9  30
TORSDOF 8
