REMARK  Name = NuBBE_1018
REMARK  14 active torsions:
REMARK  status: ('A' for Active; 'I' for Inactive)
REMARK    1  A    between atoms: O_1  and  C_2
REMARK    2  A    between atoms: C_2  and  C_4
REMARK    3  A    between atoms: C_2  and  C_8
REMARK    4  A    between atoms: C_4  and  O_5
REMARK    5  A    between atoms: C_4  and  C_6
REMARK    6  A    between atoms: C_4  and  C_7
REMARK    7  A    between atoms: C_11  and  C_12
REMARK    8  A    between atoms: C_11  and  C_13
REMARK    9  A    between atoms: C_17  and  C_18
REMARK   10  A    between atoms: C_18  and  C_19
REMARK   11  A    between atoms: C_19  and  C_20
REMARK   12  A    between atoms: C_20  and  O_21
REMARK   13  A    between atoms: C_25  and  O_26
REMARK   14  A    between atoms: O_26  and  C_27
REMARK                            x       y       z     vdW  Elec       q    Type
REMARK                         _______ _______ _______ _____ _____    ______ ____
ROOT
ATOM      1  C   LIG A   1       0.558  -1.078  -0.608  0.00  0.00    +0.191 C 
ATOM      2  O   LIG A   1      -0.166  -1.823   0.384  0.00  0.00    -0.329 OA
ATOM      3  C   LIG A   1      -1.495  -1.392   0.640  0.00  0.00    +0.207 C 
ATOM      4  C   LIG A   1      -2.450  -1.927  -0.440  0.00  0.00    +0.089 C 
ATOM      5  C   LIG A   1      -1.903  -2.024   1.976  0.00  0.00    +0.089 C 
ATOM      6  O   LIG A   1      -1.599   0.023   0.844  0.00  0.00    -0.461 OA
ATOM      7  C   LIG A   1      -0.196   0.150  -1.089  0.00  0.00    +0.067 A 
ATOM      8  C   LIG A   1      -1.116   0.737  -0.218  0.00  0.00    +0.137 A 
ATOM      9  C   LIG A   1      -1.613   2.029  -0.429  0.00  0.00    -0.004 A 
ATOM     10  C   LIG A   1      -1.309   2.657  -1.640  0.00  0.00    +0.011 A 
ATOM     11  C   LIG A   1      -0.535   2.003  -2.603  0.00  0.00    +0.046 A 
ATOM     12  C   LIG A   1       0.038   0.756  -2.331  0.00  0.00    +0.129 A 
ENDROOT
BRANCH  12  13
ATOM     13  O   LIG A   1       0.774   0.036  -3.234  0.00  0.00    -0.495 OA
ATOM     14  C   LIG A   1       1.369   0.781  -4.290  0.00  0.00    +0.277 C 
ENDBRANCH  12  13
BRANCH   1  15
ATOM     15  C   LIG A   1       1.925  -0.673   0.047  0.00  0.00    +0.179 C 
BRANCH  15  16
ATOM     16  C   LIG A   1       2.852  -1.841   0.526  0.00  0.00    +0.089 C 
ATOM     17  C   LIG A   1       2.215  -2.783   1.551  0.00  0.00    +0.044 C 
ATOM     18  C   LIG A   1       3.454  -2.636  -0.639  0.00  0.00    +0.044 C 
BRANCH  16  19
ATOM     19  O   LIG A   1       3.976  -1.208   1.193  0.00  0.00    -0.387 OA
ATOM     20  H   LIG A   1       4.557  -1.919   1.520  0.00  0.00    +0.210 HD
ENDBRANCH  16  19
ENDBRANCH  15  16
BRANCH  15  21
ATOM     21  O   LIG A   1       2.711   0.166  -0.826  0.00  0.00    -0.386 OA
ATOM     22  H   LIG A   1       3.503   0.389  -0.298  0.00  0.00    +0.210 HD
ENDBRANCH  15  21
ENDBRANCH   1  15
BRANCH   9  23
ATOM     23  C   LIG A   1      -2.468   2.731   0.600  0.00  0.00    +0.050 C 
BRANCH  23  24
ATOM     24  C   LIG A   1      -1.737   2.920   1.931  0.00  0.00    +0.125 C 
BRANCH  24  25
ATOM     25  C   LIG A   1      -2.600   3.626   2.939  0.00  0.00    +0.305 C 
ATOM     26  O   LIG A   1      -3.757   3.967   2.818  0.00  0.00    -0.251 OA
BRANCH  25  27
ATOM     27  O   LIG A   1      -1.929   3.857   4.089  0.00  0.00    -0.481 OA
ATOM     28  H   LIG A   1      -2.587   4.298   4.666  0.00  0.00    +0.295 HD
ENDBRANCH  25  27
ENDBRANCH  24  25
ENDBRANCH  23  24
ENDBRANCH   9  23
TORSDOF 9
