REMARK  Name = NuBBE_1046
REMARK  3 active torsions:
REMARK  status: ('A' for Active; 'I' for Inactive)
REMARK    1  A    between atoms: C_6  and  O_18
REMARK    2  A    between atoms: C_10  and  C_11
REMARK    3  A    between atoms: O_18  and  C_19
REMARK                            x       y       z     vdW  Elec       q    Type
REMARK                         _______ _______ _______ _____ _____    ______ ____
ROOT
ATOM      1  O   LIG A   1      -3.851  -0.238  -0.129  0.00  0.00    -0.287 OA
ATOM      2  C   LIG A   1      -2.629  -0.157  -0.094  0.00  0.00    +0.193 A 
ATOM      3  C   LIG A   1      -1.761  -1.339  -0.043  0.00  0.00    +0.064 A 
ATOM      4  C   LIG A   1      -2.300  -2.626  -0.020  0.00  0.00    +0.019 A 
ATOM      5  C   LIG A   1      -1.441  -3.726   0.041  0.00  0.00    +0.046 A 
ATOM      6  C   LIG A   1      -0.053  -3.546   0.079  0.00  0.00    +0.124 A 
ATOM      7  C   LIG A   1       0.474  -2.254   0.047  0.00  0.00    +0.092 A 
ATOM      8  C   LIG A   1      -0.383  -1.153  -0.012  0.00  0.00    +0.143 A 
ATOM      9  O   LIG A   1       0.202   0.088  -0.034  0.00  0.00    -0.455 OA
ATOM     10  C   LIG A   1      -0.616   1.208  -0.077  0.00  0.00    +0.139 A 
ATOM     11  C   LIG A   1      -1.957   1.151  -0.098  0.00  0.00    +0.098 A 
ENDROOT
BRANCH  10  12
ATOM     12  C   LIG A   1       0.116   2.495  -0.072  0.00  0.00    +0.017 A 
ATOM     13  C   LIG A   1      -0.388   3.633  -0.724  0.00  0.00    +0.011 A 
ATOM     14  C   LIG A   1       0.313   4.842  -0.706  0.00  0.00    +0.001 A 
ATOM     15  C   LIG A   1       1.536   4.931  -0.047  0.00  0.00    +0.000 A 
ATOM     16  C   LIG A   1       2.062   3.809   0.589  0.00  0.00    +0.001 A 
ATOM     17  C   LIG A   1       1.358   2.601   0.575  0.00  0.00    +0.011 A 
ENDBRANCH  10  12
BRANCH   6  18
ATOM     18  O   LIG A   1       0.672  -4.704   0.148  0.00  0.00    -0.495 OA
ATOM     19  C   LIG A   1       2.087  -4.569   0.217  0.00  0.00    +0.277 C 
ENDBRANCH   6  18
TORSDOF 2
