@<TRIPOS>MOLECULE
NuBBE_1322
 45 48 0 0 0
SMALL
GASTEIGER

@<TRIPOS>ATOM
      1 O          -3.7662   -1.2214   -1.0116 O.2     1  LIG1       -0.2918
      2 C          -2.5486   -1.2415   -0.8739 C.2     1  LIG1        0.1706
      3 C          -1.7163   -2.4382   -1.2304 C.3     1  LIG1        0.0519
      4 C          -0.5212   -2.4783   -0.2922 C.3     1  LIG1        0.1322
      5 O           0.2651   -1.2834   -0.4057 O.3     1  LIG1       -0.4824
      6 C          -0.4384   -0.1210   -0.2192 C.ar    1  LIG1        0.1427
      7 C          -1.8173   -0.0420   -0.4164 C.ar    1  LIG1        0.0634
      8 C          -2.5015    1.1648   -0.2399 C.ar    1  LIG1       -0.0023
      9 C          -1.7982    2.3176    0.1129 C.ar    1  LIG1        0.1630
     10 C          -0.4049    2.2425    0.3116 C.ar    1  LIG1        0.1738
     11 C           0.2802    1.0290    0.1425 C.ar    1  LIG1        0.0625
     12 C           1.7267    0.9920    0.3395 C.2     1  LIG1       -0.0477
     13 C           2.3294    2.0830    0.8181 C.2     1  LIG1       -0.0408
     14 C           1.5841    3.3541    1.1409 C.3     1  LIG1        0.1237
     15 C           2.3254    4.5404    0.5123 C.3     1  LIG1       -0.0215
     16 O           0.2379    3.4127    0.6325 O.3     1  LIG1       -0.4778
     17 C           1.5093    3.5411    2.6607 C.3     1  LIG1       -0.0215
     18 O          -2.3691    3.5543    0.2778 O.3     1  LIG1       -0.4914
     19 C          -3.7710    3.6653    0.0679 C.3     1  LIG1        0.0790
     20 C           0.3664   -3.6674   -0.6147 C.ar    1  LIG1       -0.0069
     21 C           0.1447   -4.9011    0.0163 C.ar    1  LIG1       -0.0551
     22 C           0.9470   -6.0048   -0.2809 C.ar    1  LIG1       -0.0614
     23 C           1.9765   -5.8910   -1.2131 C.ar    1  LIG1       -0.0617
     24 C           2.2016   -4.6761   -1.8552 C.ar    1  LIG1       -0.0614
     25 C           1.3988   -3.5731   -1.5628 C.ar    1  LIG1       -0.0551
     26 H          -1.4173   -2.3385   -2.2802 H       1  LIG1        0.0385
     27 H          -2.3271   -3.3413   -1.1199 H       1  LIG1        0.0385
     28 H          -0.8446   -2.5595    0.7558 H       1  LIG1        0.0789
     29 H          -3.5744    1.1796   -0.4059 H       1  LIG1        0.0663
     30 H           2.2795    0.0841    0.1249 H       1  LIG1        0.0624
     31 H           3.3998    2.0593    1.0048 H       1  LIG1        0.0611
     32 H           2.3637    4.4436   -0.5795 H       1  LIG1        0.0271
     33 H           3.3523    4.6268    0.8852 H       1  LIG1        0.0271
     34 H           1.8043    5.4822    0.7204 H       1  LIG1        0.0271
     35 H           2.5039    3.5739    3.1189 H       1  LIG1        0.0271
     36 H           0.9427    2.7275    3.1292 H       1  LIG1        0.0271
     37 H           0.9817    4.4682    2.9135 H       1  LIG1        0.0271
     38 H          -4.0413    4.7214    0.1603 H       1  LIG1        0.0660
     39 H          -4.3227    3.1090    0.8327 H       1  LIG1        0.0660
     40 H          -4.0540    3.3414   -0.9393 H       1  LIG1        0.0660
     41 H          -0.6542   -5.0129    0.7465 H       1  LIG1        0.0621
     42 H           0.7698   -6.9550    0.2164 H       1  LIG1        0.0618
     43 H           2.6032   -6.7493   -1.4402 H       1  LIG1        0.0618
     44 H           3.0034   -4.5849   -2.5835 H       1  LIG1        0.0618
     45 H           1.5907   -2.6332   -2.0771 H       1  LIG1        0.0621
@<TRIPOS>BOND
     1     1     2    2
     2     2     3    1
     3     3     4    1
     4     4     5    1
     5     5     6    1
     6     6     7   ar
     7     2     7    1
     8     7     8   ar
     9     8     9   ar
    10     9    10   ar
    11    10    11   ar
    12     6    11   ar
    13    11    12    1
    14    12    13    2
    15    13    14    1
    16    14    15    1
    17    14    16    1
    18    10    16    1
    19    14    17    1
    20     9    18    1
    21    18    19    1
    22     4    20    1
    23    20    21   ar
    24    21    22   ar
    25    22    23   ar
    26    23    24   ar
    27    24    25   ar
    28    20    25   ar
    29     3    26    1
    30     3    27    1
    31     4    28    1
    32     8    29    1
    33    12    30    1
    34    13    31    1
    35    15    32    1
    36    15    33    1
    37    15    34    1
    38    17    35    1
    39    17    36    1
    40    17    37    1
    41    19    38    1
    42    19    39    1
    43    19    40    1
    44    21    41    1
    45    22    42    1
    46    23    43    1
    47    24    44    1
    48    25    45    1
