@<TRIPOS>MOLECULE
NuBBE_1222
 44 46 0 0 0
SMALL
GASTEIGER

@<TRIPOS>ATOM
      1 O          -4.1056    1.1537   -0.2269 O.2     1  LIG1       -0.2869
      2 C          -2.8908    1.0752   -0.1742 C.ar    1  LIG1        0.1967
      3 C          -2.2098   -0.2206   -0.1425 C.ar    1  LIG1        0.0288
      4 C          -0.8705   -0.2519   -0.1423 C.ar    1  LIG1        0.1395
      5 O          -0.0804    0.8924   -0.1590 O.2     1  LIG1       -0.4507
      6 C          -0.6649    2.1382   -0.0738 C.ar    1  LIG1        0.1878
      7 C          -2.0521    2.2790   -0.1122 C.ar    1  LIG1        0.1091
      8 C          -2.6494    3.5373   -0.0647 C.ar    1  LIG1        0.1349
      9 O          -4.0004    3.7394   -0.0704 O.3     1  LIG1       -0.5058
     10 C          -1.8604    4.6757   -0.0082 C.ar    1  LIG1        0.0261
     11 C          -0.4661    4.5698    0.0095 C.ar    1  LIG1        0.1687
     12 O           0.3489    5.6814    0.0426 O.3     1  LIG1       -0.4912
     13 C          -0.2575    6.9050   -0.3821 C.3     1  LIG1        0.0790
     14 C           0.1473    3.2894    0.0274 C.ar    1  LIG1        0.2051
     15 O           1.5214    3.2906    0.1207 O.3     1  LIG1       -0.4885
     16 C           2.1487    2.1268    0.6493 C.3     1  LIG1        0.0791
     17 C          -0.1182   -1.5267   -0.0872 C.ar    1  LIG1        0.0211
     18 C           1.1376   -1.5750    0.5224 C.ar    1  LIG1       -0.0474
     19 C           1.8751   -2.7617    0.5760 C.ar    1  LIG1       -0.0156
     20 C           1.3719   -3.9535    0.0445 C.ar    1  LIG1        0.1615
     21 C           0.1083   -3.9301   -0.5669 C.ar    1  LIG1        0.1622
     22 O          -0.5385   -4.9720   -1.1855 O.3     1  LIG1       -0.4914
     23 C          -0.2664   -6.2861   -0.7136 C.3     1  LIG1        0.0790
     24 C          -0.6085   -2.7191   -0.6433 C.ar    1  LIG1       -0.0056
     25 O           2.0620   -5.1338    0.0858 O.3     1  LIG1       -0.4915
     26 C           3.3765   -5.1195    0.6286 C.3     1  LIG1        0.0790
     27 H          -2.8488   -1.0916   -0.1071 H       1  LIG1        0.0693
     28 H          -4.4426    2.8613   -0.1246 H       1  LIG1        0.2922
     29 H          -2.3718    5.6309    0.0349 H       1  LIG1        0.0692
     30 H           0.5139    7.6783   -0.4342 H       1  LIG1        0.0660
     31 H          -1.0083    7.2487    0.3387 H       1  LIG1        0.0660
     32 H          -0.6965    6.8023   -1.3820 H       1  LIG1        0.0660
     33 H           2.3049    1.3890   -0.1448 H       1  LIG1        0.0660
     34 H           1.5926    1.6994    1.4920 H       1  LIG1        0.0660
     35 H           3.1370    2.4019    1.0297 H       1  LIG1        0.0660
     36 H           1.5726   -0.6910    0.9788 H       1  LIG1        0.0626
     37 H           2.8510   -2.7106    1.0466 H       1  LIG1        0.0655
     38 H          -0.9932   -6.9613   -1.1770 H       1  LIG1        0.0660
     39 H          -0.3940   -6.3550    0.3719 H       1  LIG1        0.0660
     40 H           0.7196   -6.6345   -1.0315 H       1  LIG1        0.0660
     41 H          -1.5694   -2.7352   -1.1540 H       1  LIG1        0.0662
     42 H           4.0589   -4.5792   -0.0358 H       1  LIG1        0.0660
     43 H           3.7220   -6.1545    0.7034 H       1  LIG1        0.0660
     44 H           3.3939   -4.7029    1.6410 H       1  LIG1        0.0660
@<TRIPOS>BOND
     1     1     2    2
     2     2     3   ar
     3     3     4   ar
     4     4     5   ar
     5     5     6   ar
     6     6     7   ar
     7     2     7   ar
     8     7     8   ar
     9     8     9    1
    10     8    10   ar
    11    10    11   ar
    12    11    12    1
    13    12    13    1
    14    11    14   ar
    15     6    14   ar
    16    14    15    1
    17    15    16    1
    18     4    17    1
    19    17    18   ar
    20    18    19   ar
    21    19    20   ar
    22    20    21   ar
    23    21    22    1
    24    22    23    1
    25    21    24   ar
    26    17    24   ar
    27    20    25    1
    28    25    26    1
    29     3    27    1
    30     9    28    1
    31    10    29    1
    32    13    30    1
    33    13    31    1
    34    13    32    1
    35    16    33    1
    36    16    34    1
    37    16    35    1
    38    18    36    1
    39    19    37    1
    40    23    38    1
    41    23    39    1
    42    23    40    1
    43    24    41    1
    44    26    42    1
    45    26    43    1
    46    26    44    1
