REMARK  Name = NuBBE_54
REMARK  14 active torsions:
REMARK  status: ('A' for Active; 'I' for Inactive)
REMARK    1  A    between atoms: O_1  and  C_2
REMARK    2  A    between atoms: C_3  and  O_50
REMARK    3  A    between atoms: C_4  and  O_5
REMARK    4  A    between atoms: C_10  and  O_11
REMARK    5  A    between atoms: C_12  and  O_13
REMARK    6  A    between atoms: C_14  and  O_15
REMARK    7  A    between atoms: C_25  and  O_47
REMARK    8  A    between atoms: C_27  and  O_35
REMARK    9  A    between atoms: C_32  and  O_34
REMARK   10  A    between atoms: O_35  and  C_36
REMARK   11  A    between atoms: C_36  and  C_37
REMARK   12  A    between atoms: C_39  and  O_40
REMARK   13  A    between atoms: C_41  and  O_45
REMARK   14  A    between atoms: C_42  and  O_43
REMARK                            x       y       z     vdW  Elec       q    Type
REMARK                         _______ _______ _______ _____ _____    ______ ____
ROOT
ATOM      1  C   LIG A   1      -5.704   0.426   1.499  0.00  0.00    +0.163 A 
ATOM      2  C   LIG A   1      -5.626   1.782   1.783  0.00  0.00    +0.201 A 
ATOM      3  C   LIG A   1      -4.468   2.504   1.496  0.00  0.00    +0.171 A 
ATOM      4  C   LIG A   1      -3.353   1.895   0.907  0.00  0.00    +0.046 A 
ATOM      5  C   LIG A   1      -2.158   2.719   0.600  0.00  0.00    +0.046 A 
ATOM      6  C   LIG A   1      -1.081   2.930   1.504  0.00  0.00    +0.074 A 
ATOM      7  C   LIG A   1      -0.043   3.839   1.194  0.00  0.00    +0.065 A 
ATOM      8  C   LIG A   1      -0.031   4.480  -0.035  0.00  0.00    +0.163 A 
ATOM      9  C   LIG A   1      -1.042   4.239  -0.952  0.00  0.00    +0.201 A 
ATOM     10  C   LIG A   1      -2.096   3.384  -0.638  0.00  0.00    +0.171 A 
ATOM     11  C   LIG A   1      -0.954   2.104   2.748  0.00  0.00    +0.340 C 
ATOM     12  O   LIG A   1       0.326   1.985   3.196  0.00  0.00    -0.458 OA
ATOM     13  C   LIG A   1       1.258   1.124   2.480  0.00  0.00    +0.267 C 
ATOM     14  O   LIG A   1      -1.866   1.482   3.267  0.00  0.00    -0.245 OA
ATOM     15  C   LIG A   1      -3.445   0.501   0.641  0.00  0.00    +0.074 A 
ATOM     16  C   LIG A   1      -2.288  -0.237   0.107  0.00  0.00    +0.340 C 
ATOM     17  O   LIG A   1      -2.057  -1.263   0.964  0.00  0.00    -0.452 OA
ATOM     18  C   LIG A   1      -0.753  -1.914   1.121  0.00  0.00    +0.242 C 
ATOM     19  C   LIG A   1       0.084  -2.205  -0.135  0.00  0.00    +0.226 C 
ATOM     20  C   LIG A   1       1.056  -1.049  -0.549  0.00  0.00    +0.344 C 
ATOM     21  O   LIG A   1       1.617  -0.276   0.525  0.00  0.00    -0.330 OA
ATOM     22  C   LIG A   1       0.645   0.113   1.500  0.00  0.00    +0.192 C 
ATOM     23  C   LIG A   1       0.099  -1.161   2.157  0.00  0.00    +0.190 C 
ATOM     24  O   LIG A   1      -1.586   0.136  -0.800  0.00  0.00    -0.245 OA
ATOM     25  C   LIG A   1      -4.621  -0.229   0.934  0.00  0.00    +0.065 A 
ENDROOT
BRANCH   1  26
ATOM     26  O   LIG A   1      -6.867  -0.222   1.805  0.00  0.00    -0.503 OA
ATOM     27  H   LIG A   1      -6.773  -1.161   1.565  0.00  0.00    +0.292 HD
ENDBRANCH   1  26
BRANCH   3  28
ATOM     28  O   LIG A   1      -4.442   3.839   1.819  0.00  0.00    -0.503 OA
ATOM     29  H   LIG A   1      -5.324   4.016   2.204  0.00  0.00    +0.292 HD
ENDBRANCH   3  28
BRANCH   8  30
ATOM     30  O   LIG A   1       0.968   5.338  -0.399  0.00  0.00    -0.503 OA
ATOM     31  H   LIG A   1       1.588   5.434   0.345  0.00  0.00    +0.292 HD
ENDBRANCH   8  30
BRANCH   9  32
ATOM     32  O   LIG A   1      -1.020   4.842  -2.182  0.00  0.00    -0.501 OA
ATOM     33  H   LIG A   1      -0.202   5.380  -2.174  0.00  0.00    +0.292 HD
ENDBRANCH   9  32
BRANCH  10  34
ATOM     34  O   LIG A   1      -3.075   3.193  -1.581  0.00  0.00    -0.503 OA
ATOM     35  H   LIG A   1      -2.792   3.731  -2.347  0.00  0.00    +0.292 HD
ENDBRANCH  10  34
BRANCH  23  36
ATOM     36  O   LIG A   1      -0.625  -0.967   3.363  0.00  0.00    -0.385 OA
ATOM     37  H   LIG A   1      -1.344  -0.315   3.227  0.00  0.00    +0.210 HD
ENDBRANCH  23  36
BRANCH  19  38
ATOM     38  O   LIG A   1      -0.712  -2.671  -1.232  0.00  0.00    -0.382 OA
ATOM     39  H   LIG A   1      -1.226  -3.434  -0.916  0.00  0.00    +0.210 HD
ENDBRANCH  19  38
BRANCH   2  40
ATOM     40  O   LIG A   1      -6.686   2.433   2.355  0.00  0.00    -0.501 OA
ATOM     41  H   LIG A   1      -7.364   1.735   2.469  0.00  0.00    +0.292 HD
ENDBRANCH   2  40
BRANCH  20  42
ATOM     42  O   LIG A   1       2.128  -1.562  -1.366  0.00  0.00    -0.429 OA
BRANCH  42  43
ATOM     43  C   LIG A   1       2.989  -2.411  -0.751  0.00  0.00    +0.342 C 
ATOM     44  O   LIG A   1       2.938  -2.795   0.397  0.00  0.00    -0.245 OA
BRANCH  43  45
ATOM     45  C   LIG A   1       4.003  -2.876  -1.729  0.00  0.00    +0.066 A 
ATOM     46  C   LIG A   1       4.019  -2.422  -3.059  0.00  0.00    +0.064 A 
ATOM     47  C   LIG A   1       4.978  -2.920  -3.931  0.00  0.00    +0.163 A 
ATOM     48  C   LIG A   1       5.908  -3.854  -3.487  0.00  0.00    +0.201 A 
ATOM     49  C   LIG A   1       5.892  -4.295  -2.171  0.00  0.00    +0.163 A 
ATOM     50  C   LIG A   1       4.944  -3.813  -1.282  0.00  0.00    +0.064 A 
BRANCH  47  51
ATOM     51  O   LIG A   1       5.040  -2.524  -5.237  0.00  0.00    -0.503 OA
ATOM     52  H   LIG A   1       4.325  -1.882  -5.399  0.00  0.00    +0.292 HD
ENDBRANCH  47  51
BRANCH  49  53
ATOM     53  O   LIG A   1       6.803  -5.213  -1.741  0.00  0.00    -0.503 OA
ATOM     54  H   LIG A   1       7.350  -5.408  -2.528  0.00  0.00    +0.292 HD
ENDBRANCH  49  53
BRANCH  48  55
ATOM     55  O   LIG A   1       6.847  -4.357  -4.345  0.00  0.00    -0.501 OA
ATOM     56  H   LIG A   1       6.653  -3.915  -5.197  0.00  0.00    +0.292 HD
ENDBRANCH  48  55
ENDBRANCH  43  45
ENDBRANCH  42  43
ENDBRANCH  20  42
TORSDOF 14
