@<TRIPOS>MOLECULE
NuBBE_1484
 40 43 0 0 0
SMALL
GASTEIGER

@<TRIPOS>ATOM
      1 C          -1.0052    0.5611    3.6842 C.3     1  LIG1       -0.0215
      2 C           0.5283    0.4737    3.5847 C.3     1  LIG1        0.1235
      3 C           1.1249    0.6585    4.9843 C.3     1  LIG1       -0.0215
      4 O           0.9058   -0.8548    3.1445 O.3     1  LIG1       -0.4814
      5 C           0.7072   -1.0767    1.7981 C.ar    1  LIG1        0.1343
      6 C           0.4897   -2.3924    1.4237 C.ar    1  LIG1        0.0230
      7 C           0.2272   -2.6754    0.0898 C.ar    1  LIG1        0.1332
      8 C           0.1280   -1.6378   -0.8619 C.ar    1  LIG1        0.0879
      9 C           0.2717   -0.2756   -0.4801 C.ar    1  LIG1        0.0672
     10 N          -0.0380    0.7441   -1.4254 N.ar    1  LIG1       -0.3421
     11 C          -0.3465    0.4718   -2.7839 C.ar    1  LIG1        0.0529
     12 C          -0.6363    1.4785   -3.7273 C.ar    1  LIG1       -0.0375
     13 C          -0.9250    1.1776   -5.0640 C.ar    1  LIG1       -0.0598
     14 C          -0.9050   -0.1397   -5.5015 C.ar    1  LIG1       -0.0610
     15 C          -0.6184   -1.1542   -4.5947 C.ar    1  LIG1       -0.0489
     16 C          -0.3537   -0.8484   -3.2484 C.ar    1  LIG1        0.0459
     17 C          -0.1119   -1.9547   -2.3002 C.ar    1  LIG1        0.2006
     18 O          -0.0962   -3.0960   -2.7392 O.2     1  LIG1       -0.2864
     19 C          -0.4769    2.0656   -0.9503 C.3     1  LIG1        0.0124
     20 O           0.0153   -3.9812   -0.2558 O.3     1  LIG1       -0.5059
     21 C           0.6969   -0.0302    0.8521 C.ar    1  LIG1        0.0409
     22 C           1.2183    1.2536    1.3436 C.2     1  LIG1       -0.0493
     23 C           1.0965    1.5154    2.6505 C.2     1  LIG1       -0.0408
     24 H          -1.3910   -0.2116    4.3598 H       1  LIG1        0.0271
     25 H          -1.4906    0.3833    2.7173 H       1  LIG1        0.0271
     26 H          -1.3345    1.5398    4.0476 H       1  LIG1        0.0271
     27 H           0.7780   -0.1287    5.6636 H       1  LIG1        0.0271
     28 H           0.8473    1.6280    5.4145 H       1  LIG1        0.0271
     29 H           2.2186    0.5927    4.9623 H       1  LIG1        0.0271
     30 H           0.5249   -3.1735    2.1761 H       1  LIG1        0.0691
     31 H          -0.6425    2.5288   -3.4509 H       1  LIG1        0.0638
     32 H          -1.1578    1.9785   -5.7616 H       1  LIG1        0.0618
     33 H          -1.1124   -0.3790   -6.5408 H       1  LIG1        0.0618
     34 H          -0.6062   -2.1888   -4.9322 H       1  LIG1        0.0625
     35 H          -0.6584    2.1277    0.1242 H       1  LIG1        0.0456
     36 H          -1.4453    2.3516   -1.3787 H       1  LIG1        0.0456
     37 H           0.2669    2.8241   -1.2234 H       1  LIG1        0.0456
     38 H           0.1919   -4.5673    0.4960 H       1  LIG1        0.2922
     39 H           1.6812    1.9460    0.6512 H       1  LIG1        0.0623
     40 H           1.4331    2.4656    3.0523 H       1  LIG1        0.0611
@<TRIPOS>BOND
     1     1     2    1
     2     2     3    1
     3     2     4    1
     4     4     5    1
     5     5     6   ar
     6     6     7   ar
     7     7     8   ar
     8     8     9   ar
     9     9    10   ar
    10    10    11   ar
    11    11    12   ar
    12    12    13   ar
    13    13    14   ar
    14    14    15   ar
    15    15    16   ar
    16    11    16   ar
    17    16    17   ar
    18     8    17   ar
    19    17    18    2
    20    10    19    1
    21     7    20    1
    22     5    21   ar
    23     9    21   ar
    24    21    22    1
    25    22    23    2
    26     2    23    1
    27     1    24    1
    28     1    25    1
    29     1    26    1
    30     3    27    1
    31     3    28    1
    32     3    29    1
    33     6    30    1
    34    12    31    1
    35    13    32    1
    36    14    33    1
    37    15    34    1
    38    19    35    1
    39    19    36    1
    40    19    37    1
    41    20    38    1
    42    22    39    1
    43    23    40    1
