@<TRIPOS>MOLECULE
NuBBE_1044
 84 87 0 0 0
SMALL
GASTEIGER

@<TRIPOS>ATOM
      1 C          -2.9794   -0.5880   -0.0405 C.3     1  LIG1       -0.0553
      2 C          -1.5081   -0.1604   -0.2658 C.3     1  LIG1       -0.0051
      3 C          -0.8638   -1.3017   -1.0945 C.2     1  LIG1       -0.0634
      4 C          -0.7717   -1.3131   -2.4372 C.2     1  LIG1       -0.0836
      5 C          -0.3474   -2.5017   -3.2317 C.3     1  LIG1       -0.0303
      6 C          -0.6603   -3.8415   -2.5385 C.3     1  LIG1       -0.0213
      7 H          -0.0731   -4.5803   -3.1083 H       1  LIG1        0.0318
      8 C          -0.0757   -3.8354   -1.0739 C.3     1  LIG1       -0.0213
      9 C          -0.4236   -2.5030   -0.2757 C.3     1  LIG1       -0.0137
     10 H          -1.2760   -2.7504    0.3662 H       1  LIG1        0.0351
     11 C           0.6800   -1.9789    0.6574 C.3     1  LIG1       -0.0455
     12 C           0.1161   -0.9678    1.6594 C.3     1  LIG1       -0.0460
     13 C          -0.7079    0.2174    1.0702 C.3     1  LIG1       -0.0199
     14 C          -1.7206    0.6200    2.1804 C.3     1  LIG1       -0.0585
     15 C           0.2723    1.4282    0.6407 C.3     1  LIG1       -0.0322
     16 H           1.3072    1.0588    0.6222 H       1  LIG1        0.0309
     17 C          -0.1161    1.7203   -0.8250 C.3     1  LIG1       -0.0486
     18 C          -1.5290    1.2013   -0.9840 C.3     1  LIG1       -0.0431
     19 C           0.2870    2.7284    1.5408 C.3     1  LIG1       -0.0402
     20 H          -0.7486    3.0749    1.6451 H       1  LIG1        0.0301
     21 C           1.1111    3.9148    0.9369 C.3     1  LIG1       -0.0467
     22 C           1.0121    5.2239    1.7447 C.3     1  LIG1       -0.0338
     23 C           1.8006    6.3491    1.1186 C.2     1  LIG1       -0.0743
     24 C           3.0706    6.7262    1.3698 C.2     1  LIG1        0.0296
     25 C           3.9484    5.9940    2.3388 C.2     1  LIG1        0.3343
     26 O           3.7821    4.8622    2.7373 O.2     1  LIG1       -0.2453
     27 O           4.8802    6.8783    2.7905 O.3     1  LIG1       -0.4647
     28 C           5.3351    6.6752    4.1259 C.3     1  LIG1        0.0820
     29 C           3.6651    7.9450    0.7080 C.3     1  LIG1       -0.0332
     30 C           0.8663    2.4480    2.9408 C.3     1  LIG1       -0.0621
     31 C           1.4618   -4.0400   -1.2027 C.3     1  LIG1       -0.0587
     32 C          -0.6361   -5.0536   -0.2699 C.3     1  LIG1       -0.0416
     33 C          -1.0685   -6.2150   -1.1559 C.3     1  LIG1       -0.0101
     34 C          -2.2339   -5.7657   -2.0233 C.2     1  LIG1        0.0633
     35 N          -3.3037   -6.4774   -2.2398 N.2     1  LIG1       -0.0960
     36 O          -3.2631   -7.7161   -1.5991 O.2     1  LIG1       -0.4092
     37 C          -2.1407   -4.3655   -2.6764 C.3     1  LIG1        0.0101
     38 C          -2.5170   -4.5086   -4.1712 C.3     1  LIG1       -0.0543
     39 C          -3.2132   -3.4881   -2.0198 C.3     1  LIG1       -0.0543
     40 H          -3.0559   -1.4886    0.5778 H       1  LIG1        0.0238
     41 H          -3.4810   -0.7901   -0.9927 H       1  LIG1        0.0238
     42 H          -3.5761    0.1921    0.4426 H       1  LIG1        0.0238
     43 H          -1.0825   -0.4650   -3.0372 H       1  LIG1        0.0572
     44 H           0.7287   -2.4167   -3.4272 H       1  LIG1        0.0311
     45 H          -0.8160   -2.4581   -4.2187 H       1  LIG1        0.0311
     46 H           1.4942   -1.5155    0.0851 H       1  LIG1        0.0271
     47 H           1.1159   -2.8021    1.2349 H       1  LIG1        0.0271
     48 H           0.9422   -0.5831    2.2706 H       1  LIG1        0.0271
     49 H          -0.5136   -1.5412    2.3531 H       1  LIG1        0.0271
     50 H          -2.3802   -0.2214    2.4280 H       1  LIG1        0.0235
     51 H          -2.3517    1.4611    1.8817 H       1  LIG1        0.0235
     52 H          -1.2532    0.8725    3.1302 H       1  LIG1        0.0235
     53 H           0.5675    1.1815   -1.4928 H       1  LIG1        0.0268
     54 H          -0.0798    2.7649   -1.1273 H       1  LIG1        0.0268
     55 H          -1.8348    1.1621   -2.0324 H       1  LIG1        0.0274
     56 H          -2.2256    1.8932   -0.4936 H       1  LIG1        0.0274
     57 H           2.1630    3.6134    0.8586 H       1  LIG1        0.0271
     58 H           0.7844    4.1493   -0.0785 H       1  LIG1        0.0271
     59 H           1.3162    5.0890    2.7857 H       1  LIG1        0.0308
     60 H          -0.0394    5.5395    1.7875 H       1  LIG1        0.0308
     61 H           1.2198    6.9545    0.4229 H       1  LIG1        0.0577
     62 H           5.0283    5.7211    4.5611 H       1  LIG1        0.0661
     63 H           4.9120    7.4885    4.7234 H       1  LIG1        0.0661
     64 H           6.4243    6.7590    4.1528 H       1  LIG1        0.0661
     65 H           2.9717    8.4141    0.0038 H       1  LIG1        0.0280
     66 H           4.5759    7.6856    0.1585 H       1  LIG1        0.0280
     67 H           3.9144    8.7034    1.4601 H       1  LIG1        0.0280
     68 H           1.9607    2.4281    2.9179 H       1  LIG1        0.0233
     69 H           0.5575    1.4999    3.3737 H       1  LIG1        0.0233
     70 H           0.5555    3.2281    3.6445 H       1  LIG1        0.0233
     71 H           1.9512   -3.1779   -1.6654 H       1  LIG1        0.0235
     72 H           1.6950   -4.9204   -1.8134 H       1  LIG1        0.0235
     73 H           1.9377   -4.2112   -0.2316 H       1  LIG1        0.0235
     74 H          -1.5131   -4.7605    0.3209 H       1  LIG1        0.0274
     75 H           0.1030   -5.4047    0.4604 H       1  LIG1        0.0274
     76 H          -1.3554   -7.0513   -0.5126 H       1  LIG1        0.0326
     77 H          -0.2560   -6.5592   -1.8029 H       1  LIG1        0.0326
     78 H          -4.1316   -8.0964   -1.8293 H       1  LIG1        0.3278
     79 H          -1.7848   -5.1214   -4.7078 H       1  LIG1        0.0239
     80 H          -2.5852   -3.5362   -4.6695 H       1  LIG1        0.0239
     81 H          -3.4954   -4.9857   -4.3026 H       1  LIG1        0.0239
     82 H          -3.0624   -3.3935   -0.9429 H       1  LIG1        0.0239
     83 H          -4.2139   -3.9200   -2.1456 H       1  LIG1        0.0239
     84 H          -3.2504   -2.4944   -2.4727 H       1  LIG1        0.0239
@<TRIPOS>BOND
     1     2     3    1
     2     3     4    2
     3     4     5    1
     4     5     6    1
     5     6     8    1
     6     8     9    1
     7     3     9    1
     8     9    11    1
     9    11    12    1
    10    12    13    1
    11     2    13    1
    12    13    15    1
    13    15    17    1
    14    17    18    1
    15     2    18    1
    16    21    22    1
    17    22    23    1
    18    23    24    2
    19    24    25    1
    20    25    26    2
    21    25    27    1
    22    27    28    1
    23    24    29    1
    24    19    30    1
    25     8    32    1
    26    32    33    1
    27    33    34    1
    28    35    36    1
    29    34    37    1
    30     6    37    1
    31     1     2    1
    32     6     7    1
    33     8    31    1
    34     9    10    1
    35    13    14    1
    36    15    16    1
    37    15    19    1
    38    34    35    2
    39    37    38    1
    40    37    39    1
    41    19    21    1
    42    19    20    1
    43     1    40    1
    44     1    41    1
    45     1    42    1
    46     4    43    1
    47     5    44    1
    48     5    45    1
    49    11    46    1
    50    11    47    1
    51    12    48    1
    52    12    49    1
    53    14    50    1
    54    14    51    1
    55    14    52    1
    56    17    53    1
    57    17    54    1
    58    18    55    1
    59    18    56    1
    60    21    57    1
    61    21    58    1
    62    22    59    1
    63    22    60    1
    64    23    61    1
    65    28    62    1
    66    28    63    1
    67    28    64    1
    68    29    65    1
    69    29    66    1
    70    29    67    1
    71    30    68    1
    72    30    69    1
    73    30    70    1
    74    31    71    1
    75    31    72    1
    76    31    73    1
    77    32    74    1
    78    32    75    1
    79    33    76    1
    80    33    77    1
    81    36    78    1
    82    38    79    1
    83    38    80    1
    84    38    81    1
    85    39    82    1
    86    39    83    1
    87    39    84    1
