@<TRIPOS>MOLECULE
NuBBE_2152
 62 65 0 0 0
SMALL
GASTEIGER

@<TRIPOS>ATOM
      1 C           0.9947   -4.8333    4.0151 C.3     1  LIG1        0.0790
      2 O           1.2812   -4.5087    2.6562 O.3     1  LIG1       -0.4913
      3 C           0.3147   -3.8053    1.9910 C.ar    1  LIG1        0.1656
      4 C          -1.0452   -3.8440    2.2252 C.ar    1  LIG1        0.2075
      5 O          -1.7116   -4.5874    3.1520 O.3     1  LIG1       -0.4489
      6 C          -3.0732   -4.1899    2.9179 C.3     1  LIG1        0.2334
      7 O          -3.2158   -3.2737    1.8184 O.3     1  LIG1       -0.4525
      8 C          -1.9132   -3.1021    1.4560 C.ar    1  LIG1        0.1702
      9 C          -1.4870   -2.2850    0.4234 C.ar    1  LIG1       -0.0123
     10 C          -0.1110   -2.1943    0.1512 C.ar    1  LIG1       -0.0336
     11 C           0.3972   -1.2878   -1.0028 C.3     1  LIG1        0.0275
     12 H           0.4843   -2.0282   -1.8164 H       1  LIG1        0.0385
     13 C           1.8387   -0.6387   -0.8317 C.3     1  LIG1       -0.0211
     14 H           2.3150   -1.0791    0.0516 H       1  LIG1        0.0314
     15 C           2.8046   -0.9509   -1.9704 C.3     1  LIG1       -0.0609
     16 C           1.5809    0.8653   -0.5175 C.3     1  LIG1        0.0411
     17 C           2.5349    1.3064    0.6206 C.3     1  LIG1       -0.0222
     18 C           2.4284    2.6993    1.1729 C.2     1  LIG1       -0.0902
     19 C           2.7338    3.0391    2.4317 C.2     1  LIG1       -0.1026
     20 C           0.1739    0.5505   -0.1461 C.2     1  LIG1        0.1759
     21 O          -0.2727    0.6664    0.9916 O.2     1  LIG1       -0.2936
     22 C           1.4196    1.8780   -1.6845 C.3     1  LIG1       -0.0100
     23 C          -0.0392    2.4378   -1.8365 C.3     1  LIG1        0.0993
     24 H          -0.1553    2.7851   -2.8730 H       1  LIG1        0.0634
     25 O          -0.3072    3.5419   -0.9628 O.3     1  LIG1       -0.3760
     26 C           0.3814    4.7441   -1.2561 C.3     1  LIG1        0.0370
     27 C          -1.1580    1.3422   -1.5806 C.3     1  LIG1        0.1651
     28 H          -1.7767    1.3929   -2.4788 H       1  LIG1        0.0794
     29 O          -2.0893    1.7062   -0.5302 O.3     1  LIG1       -0.4555
     30 C          -3.1053    2.5581   -0.9006 C.2     1  LIG1        0.3044
     31 C          -3.5727    3.2730    0.3285 C.3     1  LIG1        0.0332
     32 O          -3.5394    2.7081   -2.0053 O.2     1  LIG1       -0.2512
     33 C          -0.6030   -0.1205   -1.4470 C.3     1  LIG1        0.1730
     34 O          -0.2009   -0.2414   -2.8633 O.3     1  LIG1       -0.3646
     35 C          -1.2761   -0.3575   -3.8092 C.3     1  LIG1        0.0379
     36 C           0.7689   -2.9953    0.9294 C.ar    1  LIG1       -0.0125
     37 H           1.8886   -5.2988    4.4434 H       1  LIG1        0.0660
     38 H           0.1920   -5.5703    4.1040 H       1  LIG1        0.0660
     39 H           0.7764   -3.9313    4.5976 H       1  LIG1        0.0660
     40 H          -3.4584   -3.7165    3.8286 H       1  LIG1        0.1166
     41 H          -3.6710   -5.0850    2.7108 H       1  LIG1        0.1166
     42 H          -2.2286   -1.7286   -0.1384 H       1  LIG1        0.0658
     43 H           3.0278   -2.0252   -1.9778 H       1  LIG1        0.0233
     44 H           3.7552   -0.4260   -1.8287 H       1  LIG1        0.0233
     45 H           2.4074   -0.6947   -2.9545 H       1  LIG1        0.0233
     46 H           3.5630    1.1972    0.2477 H       1  LIG1        0.0317
     47 H           2.4315    0.6101    1.4635 H       1  LIG1        0.0317
     48 H           2.1186    3.4952    0.5173 H       1  LIG1        0.0567
     49 H           3.0848    2.3096    3.1534 H       1  LIG1        0.0532
     50 H           2.6425    4.0705    2.7608 H       1  LIG1        0.0532
     51 H           1.7088    1.4140   -2.6332 H       1  LIG1        0.0301
     52 H           2.1207    2.7102   -1.5704 H       1  LIG1        0.0301
     53 H          -0.1480    5.5650   -0.7645 H       1  LIG1        0.0524
     54 H           0.4403    4.9399   -2.3291 H       1  LIG1        0.0524
     55 H           1.3871    4.7168   -0.8405 H       1  LIG1        0.0524
     56 H          -4.6293    3.0576    0.5243 H       1  LIG1        0.0342
     57 H          -3.4263    4.3465    0.1574 H       1  LIG1        0.0342
     58 H          -2.9896    2.9973    1.2171 H       1  LIG1        0.0342
     59 H          -1.3626    0.5942   -4.3514 H       1  LIG1        0.0524
     60 H          -2.2329   -0.6003   -3.3349 H       1  LIG1        0.0524
     61 H          -1.0358   -1.1192   -4.5544 H       1  LIG1        0.0524
     62 H           1.8386   -2.9993    0.7320 H       1  LIG1        0.0658
@<TRIPOS>BOND
     1     1     2    1
     2     2     3    1
     3     3     4   ar
     4     4     5    1
     5     5     6    1
     6     6     7    1
     7     4     8   ar
     8     7     8    1
     9     8     9   ar
    10     9    10   ar
    11    11    13    1
    12    13    14    1
    13    13    15    1
    14    13    16    1
    15    16    17    1
    16    17    18    1
    17    18    19    2
    18    16    20    1
    19    20    21    2
    20    16    22    1
    21    22    23    1
    22    23    24    1
    23    23    25    1
    24    25    26    1
    25    23    27    1
    26    27    28    1
    27    27    29    1
    28    29    30    1
    29    30    31    1
    30    30    32    2
    31    27    33    1
    32    20    33    1
    33    11    33    1
    34    33    34    1
    35    34    35    1
    36    10    36   ar
    37     3    36   ar
    38    11    12    1
    39    11    10    1
    40     1    37    1
    41     1    38    1
    42     1    39    1
    43     6    40    1
    44     6    41    1
    45     9    42    1
    46    15    43    1
    47    15    44    1
    48    15    45    1
    49    17    46    1
    50    17    47    1
    51    18    48    1
    52    19    49    1
    53    19    50    1
    54    22    51    1
    55    22    52    1
    56    26    53    1
    57    26    54    1
    58    26    55    1
    59    31    56    1
    60    31    57    1
    61    31    58    1
    62    35    59    1
    63    35    60    1
    64    35    61    1
    65    36    62    1
