@<TRIPOS>MOLECULE
NuBBE_849
 34 36 0 0 0
SMALL
GASTEIGER

@<TRIPOS>ATOM
      1 HA         -1.8926    2.4879   -1.0209 H       2  PRO2        0.0597
      2 CA         -0.8401    2.2690   -0.7934 C.3     2  PRO2        0.1023
      3 C          -0.4642    1.0121   -1.5727 C.2     2  PRO2        0.2342
      4 N          -0.9802   -0.1378   -1.0066 N.am    1  PHE1       -0.3021
      5 CA         -0.9435   -0.3318    0.4506 C.3     1  PHE1        0.1036
      6 HA         -1.7561   -1.0310    0.6797 H       1  PHE1        0.0598
      7 CB          0.4189   -0.8907    0.9095 C.3     1  PHE1       -0.0007
      8 CG          0.6953   -2.2811    0.3867 C.ar    1  PHE1       -0.0451
      9 CD1         1.4613   -2.4673   -0.7723 C.ar    1  PHE1       -0.0585
     10 CE1         1.7033   -3.7523   -1.2590 C.ar    1  PHE1       -0.0615
     11 CZ          1.1843   -4.8609   -0.5928 C.ar    1  PHE1       -0.0617
     12 CE2         0.4209   -4.6862    0.5601 C.ar    1  PHE1       -0.0615
     13 CD2         0.1743   -3.4020    1.0474 C.ar    1  PHE1       -0.0585
     14 O          -0.0054    1.0103   -2.7089 O.2     2  PRO2       -0.2738
     15 CB          0.0200    3.4958   -1.0420 C.3     2  PRO2       -0.0243
     16 CG         -0.3069    4.3671    0.1747 C.3     2  PRO2       -0.0350
     17 CD         -0.5386    3.3686    1.3096 C.3     2  PRO2        0.0156
     18 N          -0.7382    2.0987    0.6435 N.am    2  PRO2       -0.2884
     19 C          -1.1924    0.9582    1.2705 C.2     1  PHE1        0.2368
     20 O          -1.5032    0.9292    2.4590 O.2     1  PHE1       -0.2735
     21 H          -0.8199   -0.9659   -1.5696 H       1  PHE1        0.1495
     22 HB1         1.2320   -0.2187    0.6025 H       1  PHE1        0.0336
     23 HB2         0.4678   -0.9199    2.0066 H       1  PHE1        0.0336
     24 HD1         1.8755   -1.6131   -1.3052 H       1  PHE1        0.0620
     25 HE1         2.2995   -3.8884   -2.1579 H       1  PHE1        0.0618
     26 HZ          1.3776   -5.8616   -0.9703 H       1  PHE1        0.0618
     27 HE2         0.0194   -5.5514    1.0816 H       1  PHE1        0.0618
     28 HD2        -0.4211   -3.2835    1.9506 H       1  PHE1        0.0620
     29 HB1        -0.2101    3.9924   -1.9890 H       2  PRO2        0.0288
     30 HB2         1.0857    3.2350   -1.0439 H       2  PRO2        0.0288
     31 HG1        -1.2291    4.9302   -0.0136 H       2  PRO2        0.0281
     32 HG2         0.4836    5.0869    0.4054 H       2  PRO2        0.0281
     33 HD1        -1.4124    3.6251    1.9168 H       2  PRO2        0.0465
     34 HD2         0.3347    3.2770    1.9631 H       2  PRO2        0.0465
@<TRIPOS>BOND
     1     2     3    1
     2     3     4   am
     3     4     5    1
     4     7     8    1
     5     8     9   ar
     6     9    10   ar
     7    10    11   ar
     8    11    12   ar
     9    12    13   ar
    10     8    13   ar
    11     2    15    1
    12    15    16    1
    13    16    17    1
    14    17    18    1
    15     2    18    1
    16    18    19   am
    17     5    19    1
    18     1     2    1
    19     3    14    2
    20    19    20    2
    21     5     7    1
    22     5     6    1
    23     4    21    1
    24     7    22    1
    25     7    23    1
    26     9    24    1
    27    10    25    1
    28    11    26    1
    29    12    27    1
    30    13    28    1
    31    15    29    1
    32    15    30    1
    33    16    31    1
    34    16    32    1
    35    17    33    1
    36    17    34    1
