@<TRIPOS>MOLECULE
NuBBE_1375
 24 23 0 0 0
SMALL
GASTEIGER

@<TRIPOS>ATOM
      1 C          -1.9962    1.5896    1.0954 C.3     1  LIG1       -0.0653
      2 C          -2.0785    0.1036    1.4144 C.3     1  LIG1       -0.0559
      3 C          -1.0836   -0.7317    0.6074 C.3     1  LIG1       -0.0533
      4 C           0.3747   -0.3603    0.8902 C.3     1  LIG1       -0.0530
      5 C           1.3771   -1.1882    0.0820 C.3     1  LIG1       -0.0510
      6 C           1.2293   -1.0526   -1.4399 C.3     1  LIG1       -0.0297
      7 C           1.3944    0.3761   -1.9431 C.3     1  LIG1        0.0442
      8 O           2.6840    0.8557   -1.5858 O.3     1  LIG1       -0.3950
      9 H          -2.7815    2.1363    1.6251 H       1  LIG1        0.0230
     10 H          -2.1185    1.7663    0.0218 H       1  LIG1        0.0230
     11 H          -1.0372    2.0144    1.4062 H       1  LIG1        0.0230
     12 H          -3.0925   -0.2485    1.1896 H       1  LIG1        0.0263
     13 H          -1.9159   -0.0532    2.4866 H       1  LIG1        0.0263
     14 H          -1.3142   -0.6061   -0.4560 H       1  LIG1        0.0265
     15 H          -1.2377   -1.7924    0.8416 H       1  LIG1        0.0265
     16 H           0.5814   -0.4994    1.9585 H       1  LIG1        0.0265
     17 H           0.5484    0.6998    0.6840 H       1  LIG1        0.0265
     18 H           1.2819   -2.2445    0.3582 H       1  LIG1        0.0266
     19 H           2.3901   -0.8841    0.3754 H       1  LIG1        0.0266
     20 H           0.2625   -1.4481   -1.7650 H       1  LIG1        0.0287
     21 H           1.9991   -1.6832   -1.9054 H       1  LIG1        0.0287
     22 H           0.6337    1.0420   -1.5185 H       1  LIG1        0.0557
     23 H           1.2980    0.4129   -3.0310 H       1  LIG1        0.0557
     24 H           2.6011    1.7957   -1.3918 H       1  LIG1        0.2094
@<TRIPOS>BOND
     1     1     2    1
     2     2     3    1
     3     3     4    1
     4     4     5    1
     5     5     6    1
     6     6     7    1
     7     7     8    1
     8     1     9    1
     9     1    10    1
    10     1    11    1
    11     2    12    1
    12     2    13    1
    13     3    14    1
    14     3    15    1
    15     4    16    1
    16     4    17    1
    17     5    18    1
    18     5    19    1
    19     6    20    1
    20     6    21    1
    21     7    22    1
    22     7    23    1
    23     8    24    1
