REMARK  Name = NuBBE_1057
REMARK  11 active torsions:
REMARK  status: ('A' for Active; 'I' for Inactive)
REMARK    1  A    between atoms: C_6  and  C_7
REMARK    2  A    between atoms: C_8  and  C_11
REMARK    3  A    between atoms: C_19  and  C_42
REMARK    4  A    between atoms: C_20  and  O_41
REMARK    5  A    between atoms: C_23  and  C_37
REMARK    6  A    between atoms: C_26  and  O_28
REMARK    7  A    between atoms: O_28  and  C_29
REMARK    8  A    between atoms: C_29  and  C_30
REMARK    9  A    between atoms: C_37  and  O_38
REMARK   10  A    between atoms: C_37  and  C_39
REMARK   11  A    between atoms: C_37  and  C_40
REMARK                            x       y       z     vdW  Elec       q    Type
REMARK                         _______ _______ _______ _____ _____    ______ ____
ROOT
ATOM      1  O   LIG A   1       4.096  -0.426  -4.204  0.00  0.00    -0.248 OA
ATOM      2  C   LIG A   1       3.211  -0.898  -3.495  0.00  0.00    +0.340 C 
ATOM      3  C   LIG A   1       2.236   0.008  -2.820  0.00  0.00    +0.260 C 
ATOM      4  C   LIG A   1       1.452  -0.478  -1.600  0.00  0.00    +0.124 C 
ATOM      5  C   LIG A   1       1.807  -1.916  -1.165  0.00  0.00    +0.042 C 
ATOM      6  C   LIG A   1       3.115  -1.944  -0.339  0.00  0.00    +0.018 C 
ATOM      7  C   LIG A   1       2.009  -2.765  -2.482  0.00  0.00    +0.218 C 
ATOM      8  O   LIG A   1       3.113  -2.238  -3.257  0.00  0.00    -0.454 OA
ATOM      9  C   LIG A   1       0.658  -2.488  -0.331  0.00  0.00    +0.014 C 
ATOM     10  C   LIG A   1       0.230  -1.573   0.814  0.00  0.00    +0.006 C 
ATOM     11  C   LIG A   1      -0.308  -0.234   0.275  0.00  0.00    +0.014 C 
ATOM     12  C   LIG A   1       0.790   0.533  -0.575  0.00  0.00    +0.030 C 
ATOM     13  C   LIG A   1       0.028   1.683  -1.323  0.00  0.00    +0.124 C 
ATOM     14  C   LIG A   1      -0.849   2.553  -0.418  0.00  0.00    +0.039 C 
ATOM     15  C   LIG A   1      -1.883   1.811   0.462  0.00  0.00    +0.036 C 
ATOM     16  C   LIG A   1      -1.194   0.634   1.308  0.00  0.00    +0.051 C 
ATOM     17  C   LIG A   1      -0.340   1.168   2.550  0.00  0.00    +0.197 C 
ATOM     18  C   LIG A   1      -0.836   0.739   3.939  0.00  0.00    +0.165 C 
ATOM     19  C   LIG A   1      -1.039  -0.733   3.978  0.00  0.00    +0.311 C 
ATOM     20  O   LIG A   1      -1.745  -1.216   2.933  0.00  0.00    -0.464 OA
ATOM     21  C   LIG A   1      -2.272  -0.287   1.964  0.00  0.00    +0.243 C 
ATOM     22  O   LIG A   1      -0.637  -1.444   4.889  0.00  0.00    -0.251 OA
ATOM     23  C   LIG A   1       1.940   1.153   0.250  0.00  0.00    +0.017 C 
ATOM     24  O   LIG A   1       0.868  -0.393  -2.916  0.00  0.00    -0.352 OA
ENDROOT
BRANCH   7  25
ATOM     25  C   LIG A   1       2.203  -4.242  -2.259  0.00  0.00    +0.031 A 
ATOM     26  C   LIG A   1       1.214  -5.207  -2.210  0.00  0.00    +0.202 A 
ATOM     27  O   LIG A   1       1.743  -6.436  -1.990  0.00  0.00    -0.471 OA
ATOM     28  C   LIG A   1       3.088  -6.278  -1.919  0.00  0.00    +0.195 A 
ATOM     29  C   LIG A   1       3.425  -4.957  -2.090  0.00  0.00    +0.048 A 
ENDBRANCH   7  25
BRANCH  15  30
ATOM     30  C   LIG A   1      -3.271   1.583  -0.287  0.00  0.00    +0.064 C 
ATOM     31  C   LIG A   1      -3.955   2.941  -0.562  0.00  0.00    +0.041 C 
ATOM     32  C   LIG A   1      -3.229   0.790  -1.593  0.00  0.00    +0.041 C 
BRANCH  30  33
ATOM     33  O   LIG A   1      -4.172   0.895   0.583  0.00  0.00    -0.389 OA
ATOM     34  H   LIG A   1      -5.055   0.869   0.172  0.00  0.00    +0.210 HD
ENDBRANCH  30  33
ENDBRANCH  15  30
BRANCH  13  35
ATOM     35  O   LIG A   1       0.949   2.567  -1.971  0.00  0.00    -0.391 OA
ATOM     36  H   LIG A   1       0.453   3.059  -2.650  0.00  0.00    +0.210 HD
ENDBRANCH  13  35
BRANCH  17  37
ATOM     37  O   LIG A   1      -0.020   2.590   2.562  0.00  0.00    -0.460 OA
BRANCH  37  38
ATOM     38  C   LIG A   1      -0.883   3.499   3.098  0.00  0.00    +0.304 C 
ATOM     39  C   LIG A   1      -0.239   4.841   3.255  0.00  0.00    +0.136 C 
ATOM     40  O   LIG A   1      -2.030   3.271   3.455  0.00  0.00    -0.251 OA
ENDBRANCH  37  38
ENDBRANCH  17  37
TORSDOF 6
