REMARK  Name = NuBBE_1173
REMARK  18 active torsions:
REMARK  status: ('A' for Active; 'I' for Inactive)
REMARK    1  A    between atoms: C_1  and  C_2
REMARK    2  A    between atoms: C_2  and  C_57
REMARK    3  A    between atoms: C_5  and  C_38
REMARK    4  A    between atoms: C_8  and  C_37
REMARK    5  A    between atoms: C_9  and  C_36
REMARK    6  A    between atoms: C_11  and  O_35
REMARK    7  A    between atoms: C_15  and  C_16
REMARK    8  A    between atoms: C_15  and  C_34
REMARK    9  A    between atoms: C_17  and  O_33
REMARK   10  A    between atoms: C_19  and  O_32
REMARK   11  A    between atoms: C_22  and  C_31
REMARK   12  A    between atoms: C_38  and  O_39
REMARK   13  A    between atoms: O_39  and  C_40
REMARK   14  A    between atoms: C_42  and  O_44
REMARK   15  A    between atoms: C_45  and  O_47
REMARK   16  A    between atoms: C_48  and  O_50
REMARK   17  A    between atoms: C_51  and  C_53
REMARK   18  A    between atoms: C_53  and  O_54
REMARK                            x       y       z     vdW  Elec       q    Type
REMARK                         _______ _______ _______ _____ _____    ______ ____
ROOT
ATOM      1  C   LIG A   1      -3.154   0.259   5.359  0.00  0.00    +0.011 C 
ATOM      2  C   LIG A   1      -2.198   1.398   4.952  0.00  0.00    -0.034 C 
ATOM      3  C   LIG A   1      -2.966   2.451   4.137  0.00  0.00    +0.007 C 
ATOM      4  C   LIG A   1      -3.393   1.934   2.760  0.00  0.00    +0.019 C 
ATOM      5  C   LIG A   1      -2.251   1.266   1.931  0.00  0.00    +0.074 C 
ATOM      6  C   LIG A   1      -2.085   2.077   0.630  0.00  0.00    +0.019 C 
ATOM      7  C   LIG A   1      -0.954   1.610  -0.278  0.00  0.00    +0.012 C 
ATOM      8  C   LIG A   1       0.431   1.261   0.382  0.00  0.00    -0.005 C 
ATOM      9  C   LIG A   1       1.131   0.022  -0.406  0.00  0.00    -0.017 C 
ATOM     10  C   LIG A   1       1.159   0.271  -1.952  0.00  0.00    +0.039 C 
ATOM     11  C   LIG A   1       2.486   0.176  -2.697  0.00  0.00    +0.119 C 
ATOM     12  C   LIG A   1       3.428  -0.876  -2.089  0.00  0.00    +0.032 C 
ATOM     13  C   LIG A   1       4.584  -1.364  -3.066  0.00  0.00    -0.001 C 
ATOM     14  C   LIG A   1       3.936  -2.142  -4.252  0.00  0.00    +0.014 C 
ATOM     15  C   LIG A   1       5.512  -2.368  -2.325  0.00  0.00    +0.149 C 
ATOM     16  C   LIG A   1       5.972  -1.868  -0.953  0.00  0.00    +0.144 C 
ATOM     17  C   LIG A   1       4.777  -1.583  -0.054  0.00  0.00    +0.041 C 
ATOM     18  C   LIG A   1       3.824  -0.483  -0.617  0.00  0.00    -0.020 C 
ATOM     19  C   LIG A   1       2.495  -0.478   0.254  0.00  0.00    +0.006 C 
ATOM     20  C   LIG A   1       2.674  -0.026   1.724  0.00  0.00    +0.031 C 
ATOM     21  C   LIG A   1       1.400   0.302   2.451  0.00  0.00    -0.026 C 
ATOM     22  C   LIG A   1       0.337   0.909   1.879  0.00  0.00    -0.063 C 
ATOM     23  C   LIG A   1      -0.887   1.377   2.684  0.00  0.00    +0.033 C 
ATOM     24  C   LIG A   1      -0.992   0.846   4.141  0.00  0.00    +0.015 C 
ATOM     25  C   LIG A   1       4.566   0.864  -0.474  0.00  0.00    +0.012 C 
ATOM     26  C   LIG A   1       5.408  -0.232  -3.711  0.00  0.00    +0.014 C 
ATOM     27  C   LIG A   1       0.191  -1.237  -0.224  0.00  0.00    +0.012 C 
ATOM     28  C   LIG A   1       1.278   2.563   0.278  0.00  0.00    +0.016 C 
ATOM     29  C   LIG A   1      -1.682   2.039   6.258  0.00  0.00    +0.011 C 
ENDROOT
BRANCH  16  30
ATOM     30  O   LIG A   1       6.767  -2.895  -0.343  0.00  0.00    -0.389 OA
ATOM     31  H   LIG A   1       7.396  -3.163  -1.043  0.00  0.00    +0.210 HD
ENDBRANCH  16  30
BRANCH  15  32
ATOM     32  O   LIG A   1       6.697  -2.682  -3.075  0.00  0.00    -0.389 OA
ATOM     33  H   LIG A   1       6.422  -3.144  -3.885  0.00  0.00    +0.210 HD
ENDBRANCH  15  32
BRANCH  11  34
ATOM     34  O   LIG A   1       3.085   1.464  -2.757  0.00  0.00    -0.392 OA
ATOM     35  H   LIG A   1       2.463   2.062  -3.206  0.00  0.00    +0.210 HD
ENDBRANCH  11  34
BRANCH   5  36
ATOM     36  C   LIG A   1      -2.660  -0.211   1.597  0.00  0.00    +0.316 C 
ATOM     37  O   LIG A   1      -2.075  -1.202   1.976  0.00  0.00    -0.250 OA
BRANCH  36  38
ATOM     38  O   LIG A   1      -3.794  -0.248   0.801  0.00  0.00    -0.432 OA
BRANCH  38  39
ATOM     39  C   LIG A   1      -3.956  -1.435  -0.023  0.00  0.00    +0.342 C 
ATOM     40  C   LIG A   1      -5.475  -1.788  -0.248  0.00  0.00    +0.214 C 
ATOM     41  C   LIG A   1      -6.188  -0.838  -1.245  0.00  0.00    +0.180 C 
ATOM     42  C   LIG A   1      -5.197   0.155  -1.856  0.00  0.00    +0.177 C 
ATOM     43  C   LIG A   1      -4.036  -0.709  -2.353  0.00  0.00    +0.179 C 
ATOM     44  O   LIG A   1      -3.243  -1.200  -1.256  0.00  0.00    -0.331 OA
BRANCH  40  45
ATOM     45  O   LIG A   1      -5.570  -3.130  -0.773  0.00  0.00    -0.383 OA
ATOM     46  H   LIG A   1      -6.514  -3.357  -0.868  0.00  0.00    +0.210 HD
ENDBRANCH  40  45
BRANCH  41  47
ATOM     47  O   LIG A   1      -7.304  -0.139  -0.679  0.00  0.00    -0.386 OA
ATOM     48  H   LIG A   1      -7.184  -0.050   0.281  0.00  0.00    +0.210 HD
ENDBRANCH  41  47
BRANCH  42  49
ATOM     49  O   LIG A   1      -5.818   0.914  -2.887  0.00  0.00    -0.387 OA
ATOM     50  H   LIG A   1      -6.560   1.387  -2.461  0.00  0.00    +0.210 HD
ENDBRANCH  42  49
BRANCH  43  51
ATOM     51  C   LIG A   1      -3.129   0.006  -3.355  0.00  0.00    +0.190 C 
BRANCH  51  52
ATOM     52  O   LIG A   1      -2.058  -0.860  -3.743  0.00  0.00    -0.392 OA
ATOM     53  H   LIG A   1      -1.758  -1.288  -2.918  0.00  0.00    +0.209 HD
ENDBRANCH  51  52
ENDBRANCH  43  51
ENDBRANCH  38  39
ENDBRANCH  36  38
ENDBRANCH   5  36
TORSDOF 11
