@<TRIPOS>MOLECULE
NuBBE_1967
 83 90 0 0 0
SMALL
GASTEIGER

@<TRIPOS>ATOM
      1 O          -1.2486    1.5002   -2.1476 O.3     1  LIG1       -0.5063
      2 C           0.1051    1.4143   -2.0526 C.ar    1  LIG1        0.1248
      3 C           0.7828    0.2333   -1.8585 C.ar    1  LIG1        0.0469
      4 C           0.2872   -1.1578   -1.6585 C.3     1  LIG1        0.0575
      5 H          -0.4521   -1.4229   -2.4248 H       1  LIG1        0.0439
      6 C           1.6206   -1.9304   -1.8762 C.3     1  LIG1        0.1361
      7 H           1.7306   -2.7428   -1.1452 H       1  LIG1        0.0794
      8 O           2.7256   -1.0061   -1.6362 O.3     1  LIG1       -0.4829
      9 C           2.1687    0.2430   -1.7787 C.ar    1  LIG1        0.1293
     10 C           2.9131    1.4081   -1.8529 C.ar    1  LIG1       -0.0122
     11 C           2.2368    2.6211   -2.0420 C.ar    1  LIG1       -0.0181
     12 C           0.8293    2.5987   -2.1568 C.ar    1  LIG1       -0.0125
     13 C           3.0072    3.8797   -2.1237 C.2     1  LIG1       -0.0538
     14 C           2.4522    5.0871   -2.2778 C.2     1  LIG1       -0.0540
     15 C           3.2218    6.3232   -2.3822 C.ar    1  LIG1       -0.0248
     16 C           3.6527    6.7686   -3.6360 C.ar    1  LIG1       -0.0511
     17 C           4.3371    7.9792   -3.7508 C.ar    1  LIG1       -0.0196
     18 C           4.5845    8.7333   -2.6074 C.ar    1  LIG1        0.1169
     19 C           4.1577    8.3004   -1.3567 C.ar    1  LIG1       -0.0196
     20 C           3.4721    7.0913   -1.2421 C.ar    1  LIG1       -0.0511
     21 O           5.2486    9.9220   -2.6737 O.3     1  LIG1       -0.5068
     22 C           1.7418   -2.5551   -3.2661 C.ar    1  LIG1       -0.0062
     23 C           2.3265   -1.8589   -4.3383 C.ar    1  LIG1       -0.0516
     24 C           2.4341   -2.4374   -5.6034 C.ar    1  LIG1       -0.0198
     25 C           1.9504   -3.7218   -5.8081 C.ar    1  LIG1        0.1169
     26 C           1.3626   -4.4326   -4.7689 C.ar    1  LIG1       -0.0198
     27 C           1.2542   -3.8520   -3.5011 C.ar    1  LIG1       -0.0516
     28 O           2.0377   -4.3221   -7.0286 O.3     1  LIG1       -0.5068
     29 C          -0.3064   -1.3615   -0.2696 C.ar    1  LIG1       -0.0290
     30 C          -1.6469   -1.7450   -0.1278 C.ar    1  LIG1       -0.0155
     31 C          -2.1430   -1.9231    1.1508 C.ar    1  LIG1        0.1291
     32 C          -1.3676   -1.7613    2.2932 C.ar    1  LIG1        0.0469
     33 C          -0.0586   -1.3547    2.1731 C.ar    1  LIG1        0.1245
     34 C           0.4687   -1.1511    0.8990 C.ar    1  LIG1       -0.0158
     35 O           0.7591   -1.1300    3.2345 O.3     1  LIG1       -0.5063
     36 C          -2.1805   -2.1292    3.4908 C.3     1  LIG1        0.0575
     37 H          -2.0603   -1.3963    4.2979 H       1  LIG1        0.0439
     38 C          -3.5965   -2.0166    2.8500 C.3     1  LIG1        0.1361
     39 H          -4.2637   -2.8041    3.2247 H       1  LIG1        0.0794
     40 O          -3.4548   -2.2445    1.4126 O.3     1  LIG1       -0.4829
     41 C          -4.2836   -0.6721    3.1096 C.ar    1  LIG1       -0.0062
     42 C          -4.1242    0.4266    2.2445 C.ar    1  LIG1       -0.0516
     43 C          -4.7533    1.6472    2.4962 C.ar    1  LIG1       -0.0198
     44 C          -5.5509    1.7813    3.6230 C.ar    1  LIG1        0.1169
     45 C          -5.7228    0.7170    4.4995 C.ar    1  LIG1       -0.0198
     46 C          -5.0889   -0.5050    4.2484 C.ar    1  LIG1       -0.0516
     47 O          -6.1868    2.9539    3.9026 O.3     1  LIG1       -0.5068
     48 C          -1.8401   -3.5291    4.0022 C.ar    1  LIG1       -0.0290
     49 C          -1.9961   -4.6736    3.1942 C.ar    1  LIG1       -0.0161
     50 C          -1.6586   -5.9370    3.6780 C.ar    1  LIG1        0.1206
     51 O          -1.8057   -7.0523    2.9060 O.3     1  LIG1       -0.5066
     52 C          -1.1609   -6.1012    4.9618 C.ar    1  LIG1        0.0213
     53 C          -0.9976   -4.9778    5.7628 C.ar    1  LIG1        0.1206
     54 C          -1.3274   -3.7029    5.2982 C.ar    1  LIG1       -0.0161
     55 O          -0.5093   -5.0839    7.0327 O.3     1  LIG1       -0.5066
     56 H          -1.6370    0.6457   -1.9039 H       1  LIG1        0.2921
     57 H           3.9948    1.3588   -1.7723 H       1  LIG1        0.0660
     58 H           0.2611    3.5084   -2.3181 H       1  LIG1        0.0660
     59 H           4.0915    3.7869   -2.0490 H       1  LIG1        0.0624
     60 H           1.3805    5.2457   -2.3482 H       1  LIG1        0.0624
     61 H           3.4422    6.1823   -4.5276 H       1  LIG1        0.0625
     62 H           4.6581    8.3149   -4.7311 H       1  LIG1        0.0654
     63 H           4.3517    8.9041   -0.4753 H       1  LIG1        0.0654
     64 H           3.1244    6.7612   -0.2662 H       1  LIG1        0.0625
     65 H           5.4872   10.0889   -3.5999 H       1  LIG1        0.2921
     66 H           2.7196   -0.8546   -4.2004 H       1  LIG1        0.0623
     67 H           2.9005   -1.8711   -6.4030 H       1  LIG1        0.0654
     68 H           0.9952   -5.4398   -4.9459 H       1  LIG1        0.0654
     69 H           0.7980   -4.4287   -2.6991 H       1  LIG1        0.0623
     70 H           2.4734   -3.7069   -7.6418 H       1  LIG1        0.2921
     71 H          -2.2985   -1.8930   -0.9831 H       1  LIG1        0.0657
     72 H           1.5048   -0.8233    0.8258 H       1  LIG1        0.0657
     73 H           0.2795   -1.3087    4.0589 H       1  LIG1        0.2921
     74 H          -3.5100    0.3512    1.3513 H       1  LIG1        0.0623
     75 H          -4.6082    2.4688    1.8018 H       1  LIG1        0.0654
     76 H          -6.3530    0.8389    5.3762 H       1  LIG1        0.0654
     77 H          -5.2406   -1.3248    4.9476 H       1  LIG1        0.0623
     78 H          -5.9674    3.5964    3.2074 H       1  LIG1        0.2921
     79 H          -2.3713   -4.5779    2.1791 H       1  LIG1        0.0657
     80 H          -2.1555   -6.7884    2.0386 H       1  LIG1        0.2921
     81 H          -0.9083   -7.0963    5.3119 H       1  LIG1        0.0691
     82 H          -1.1768   -2.8549    5.9619 H       1  LIG1        0.0657
     83 H          -0.3194   -6.0210    7.2109 H       1  LIG1        0.2921
@<TRIPOS>BOND
     1     1     2    1
     2     2     3   ar
     3     3     4    1
     4     4     5    1
     5     4     6    1
     6     6     8    1
     7     8     9    1
     8     3     9   ar
     9     9    10   ar
    10    10    11   ar
    11    11    12   ar
    12     2    12   ar
    13    11    13    1
    14    13    14    2
    15    14    15    1
    16    15    16   ar
    17    16    17   ar
    18    17    18   ar
    19    18    19   ar
    20    19    20   ar
    21    15    20   ar
    22    18    21    1
    23    22    23   ar
    24    23    24   ar
    25    24    25   ar
    26    25    26   ar
    27    26    27   ar
    28    22    27   ar
    29    25    28    1
    30     4    29    1
    31    29    30   ar
    32    30    31   ar
    33    31    32   ar
    34    32    33   ar
    35    33    34   ar
    36    29    34   ar
    37    33    35    1
    38    32    36    1
    39    36    37    1
    40    36    38    1
    41    38    40    1
    42    31    40    1
    43    41    42   ar
    44    42    43   ar
    45    43    44   ar
    46    44    45   ar
    47    45    46   ar
    48    41    46   ar
    49    44    47    1
    50    36    48    1
    51    48    49   ar
    52    49    50   ar
    53    50    51    1
    54    50    52   ar
    55    52    53   ar
    56    53    54   ar
    57    48    54   ar
    58    53    55    1
    59     6    22    1
    60     6     7    1
    61    38    41    1
    62    38    39    1
    63     1    56    1
    64    10    57    1
    65    12    58    1
    66    13    59    1
    67    14    60    1
    68    16    61    1
    69    17    62    1
    70    19    63    1
    71    20    64    1
    72    21    65    1
    73    23    66    1
    74    24    67    1
    75    26    68    1
    76    27    69    1
    77    28    70    1
    78    30    71    1
    79    34    72    1
    80    35    73    1
    81    42    74    1
    82    43    75    1
    83    45    76    1
    84    46    77    1
    85    47    78    1
    86    49    79    1
    87    51    80    1
    88    52    81    1
    89    54    82    1
    90    55    83    1
