REMARK  Name = NuBBE_331
REMARK  20 active torsions:
REMARK  status: ('A' for Active; 'I' for Inactive)
REMARK    1  A    between atoms: C_2  and  O_3
REMARK    2  A    between atoms: C_2  and  C_5
REMARK    3  A    between atoms: O_3  and  C_4
REMARK    4  A    between atoms: C_8  and  O_9
REMARK    5  A    between atoms: O_9  and  C_10
REMARK    6  A    between atoms: C_13  and  C_15
REMARK    7  A    between atoms: C_15  and  O_16
REMARK    8  A    between atoms: O_16  and  C_17
REMARK    9  A    between atoms: C_17  and  C_18
REMARK   10  A    between atoms: C_20  and  O_22
REMARK   11  A    between atoms: C_23  and  O_25
REMARK   12  A    between atoms: C_26  and  O_28
REMARK   13  A    between atoms: C_29  and  C_30
REMARK   14  A    between atoms: C_30  and  O_32
REMARK   15  A    between atoms: C_30  and  C_36
REMARK   16  A    between atoms: O_32  and  C_33
REMARK   17  A    between atoms: C_33  and  C_34
REMARK   18  A    between atoms: C_37  and  C_39
REMARK   19  A    between atoms: C_39  and  C_40
REMARK   20  A    between atoms: C_40  and  O_41
REMARK                            x       y       z     vdW  Elec       q    Type
REMARK                         _______ _______ _______ _____ _____    ______ ____
ROOT
ATOM      1  C   LIG A   1      -1.924   0.796  -0.382  0.00  0.00    +0.075 C 
ATOM      2  C   LIG A   1      -1.461   0.200   0.724  0.00  0.00    +0.201 C 
ATOM      3  O   LIG A   1      -0.517  -0.796   0.761  0.00  0.00    -0.470 OA
ATOM      4  C   LIG A   1       0.135  -1.147  -0.472  0.00  0.00    +0.316 C 
ATOM      5  C   LIG A   1      -0.844  -1.037  -1.666  0.00  0.00    +0.106 C 
ATOM      6  C   LIG A   1      -1.368   0.446  -1.741  0.00  0.00    +0.052 C 
ENDROOT
BRANCH   5   7
ATOM      7  C   LIG A   1      -2.046  -2.049  -1.526  0.00  0.00    +0.183 C 
ATOM      8  C   LIG A   1      -1.644  -3.527  -1.461  0.00  0.00    +0.052 C 
BRANCH   7   9
ATOM      9  O   LIG A   1      -2.909  -1.915  -2.686  0.00  0.00    -0.461 OA
BRANCH   9  10
ATOM     10  C   LIG A   1      -4.020  -1.140  -2.539  0.00  0.00    +0.304 C 
ATOM     11  C   LIG A   1      -4.690  -0.926  -3.857  0.00  0.00    +0.136 C 
ATOM     12  O   LIG A   1      -4.391  -0.613  -1.499  0.00  0.00    -0.251 OA
ENDBRANCH   9  10
ENDBRANCH   7   9
ENDBRANCH   5   7
BRANCH   1  14
ATOM     13  O   LIG A   1      -3.762   1.837   0.775  0.00  0.00    -0.245 OA
ATOM     14  C   LIG A   1      -3.059   1.738  -0.232  0.00  0.00    +0.338 C 
BRANCH  14  15
ATOM     15  O   LIG A   1      -3.126   2.529  -1.325  0.00  0.00    -0.465 OA
ATOM     16  C   LIG A   1      -3.926   3.699  -1.232  0.00  0.00    +0.280 C 
ENDBRANCH  14  15
ENDBRANCH   1  14
BRANCH   6  17
ATOM     17  C   LIG A   1      -0.355   1.542  -2.133  0.00  0.00    +0.129 C 
BRANCH  17  18
ATOM     18  C   LIG A   1       0.278   1.365  -3.479  0.00  0.00    +0.305 C 
ATOM     19  O   LIG A   1       1.308   0.763  -3.732  0.00  0.00    -0.251 OA
BRANCH  18  20
ATOM     20  O   LIG A   1      -0.399   1.987  -4.462  0.00  0.00    -0.481 OA
ATOM     21  H   LIG A   1       0.176   1.864  -5.248  0.00  0.00    +0.295 HD
ENDBRANCH  18  20
ENDBRANCH  17  18
ENDBRANCH   6  17
BRANCH   4  22
ATOM     22  O   LIG A   1       1.297  -0.352  -0.746  0.00  0.00    -0.309 OA
BRANCH  22  23
ATOM     23  C   LIG A   1       2.326  -0.467   0.241  0.00  0.00    +0.286 C 
ATOM     24  O   LIG A   1       1.827   0.051   1.471  0.00  0.00    -0.339 OA
ATOM     25  C   LIG A   1       2.736  -0.019   2.568  0.00  0.00    +0.190 C 
ATOM     26  C   LIG A   1       3.953   0.857   2.251  0.00  0.00    +0.178 C 
ATOM     27  C   LIG A   1       4.586   0.385   0.943  0.00  0.00    +0.179 C 
ATOM     28  C   LIG A   1       3.559   0.365  -0.194  0.00  0.00    +0.201 C 
BRANCH  26  29
ATOM     29  O   LIG A   1       4.949   0.804   3.273  0.00  0.00    -0.386 OA
ATOM     30  H   LIG A   1       4.949   1.664   3.730  0.00  0.00    +0.210 HD
ENDBRANCH  26  29
BRANCH  28  31
ATOM     31  O   LIG A   1       4.207  -0.168  -1.357  0.00  0.00    -0.384 OA
ATOM     32  H   LIG A   1       5.032   0.352  -1.445  0.00  0.00    +0.210 HD
ENDBRANCH  28  31
BRANCH  27  33
ATOM     33  O   LIG A   1       5.673   1.262   0.598  0.00  0.00    -0.386 OA
ATOM     34  H   LIG A   1       6.233   1.297   1.400  0.00  0.00    +0.210 HD
ENDBRANCH  27  33
BRANCH  25  35
ATOM     35  C   LIG A   1       1.998   0.521   3.801  0.00  0.00    +0.266 C 
BRANCH  35  36
ATOM     36  O   LIG A   1       0.824  -0.248   4.121  0.00  0.00    -0.462 OA
BRANCH  36  37
ATOM     37  C   LIG A   1       1.028  -1.375   4.852  0.00  0.00    +0.304 C 
ATOM     38  C   LIG A   1      -0.287  -2.000   5.208  0.00  0.00    +0.136 C 
ATOM     39  O   LIG A   1       2.119  -1.820   5.173  0.00  0.00    -0.251 OA
ENDBRANCH  36  37
ENDBRANCH  35  36
ENDBRANCH  25  35
ENDBRANCH  22  23
ENDBRANCH   4  22
TORSDOF 16
