@<TRIPOS>MOLECULE
NuBBE_496
 77 81 0 0 0
SMALL
GASTEIGER

@<TRIPOS>ATOM
      1 C           3.8087    1.2688   -2.1476 C.3     1  LIG1       -0.0411
      2 C           2.4580    0.7381   -1.7406 C.2     1  LIG1       -0.0446
      3 C           1.2925    1.0760   -2.3439 C.2     1  LIG1       -0.0649
      4 C           1.1395    2.1158   -3.4158 C.3     1  LIG1       -0.0431
      5 C           0.0636    0.3458   -1.8559 C.3     1  LIG1        0.0202
      6 C          -1.3637    0.6201   -2.3495 C.3     1  LIG1        0.0350
      7 N          -2.1307   -0.0534   -1.3192 N.am    1  LIG1       -0.3107
      8 C          -1.6205    0.0395   -3.7492 C.3     1  LIG1       -0.0066
      9 C          -3.0058    0.2916   -4.2596 C.ar    1  LIG1       -0.0206
     10 C          -3.4204    1.3883   -4.9898 C.ar    1  LIG1        0.0060
     11 N          -4.7458    1.2278   -5.2924 N.ar    1  LIG1       -0.3604
     12 C          -5.2129    0.0440   -4.7721 C.ar    1  LIG1        0.0467
     13 C          -6.4890   -0.5282   -4.8375 C.ar    1  LIG1       -0.0378
     14 C          -6.6791   -1.7624   -4.2094 C.ar    1  LIG1       -0.0598
     15 C          -5.6328   -2.3980   -3.5461 C.ar    1  LIG1       -0.0611
     16 C          -4.3619   -1.8144   -3.4953 C.ar    1  LIG1       -0.0523
     17 C          -4.1438   -0.5673   -4.1173 C.ar    1  LIG1        0.0029
     18 H           0.2457   -0.7130   -2.1198 H       1  LIG1        0.0378
     19 C          -0.0461    0.4194   -0.3128 C.3     1  LIG1        0.1216
     20 C           1.1769   -0.3002    0.2972 C.3     1  LIG1        0.0283
     21 H           1.4915    0.3091    1.1375 H       1  LIG1        0.0386
     22 C           0.9683   -1.6622    0.9337 C.2     1  LIG1       -0.0807
     23 C           0.5829   -1.7495    2.2173 C.2     1  LIG1       -0.0870
     24 C           0.7440   -2.9347    3.1071 C.3     1  LIG1       -0.0287
     25 C           1.9821   -2.8044    4.0289 C.3     1  LIG1       -0.0217
     26 H           1.9596   -3.7292    4.6278 H       1  LIG1        0.0343
     27 C           3.3094   -2.8948    3.2692 C.3     1  LIG1       -0.0587
     28 C           1.9523   -1.6958    5.0756 C.2     1  LIG1       -0.0746
     29 C           2.0621   -0.3469    5.0572 C.2     1  LIG1       -0.0091
     30 C           2.2346    0.5367    3.8386 C.2     1  LIG1        0.1869
     31 O           3.0292    0.2284    2.9501 O.2     1  LIG1       -0.2896
     32 C           2.1097    0.4090    6.3638 C.3     1  LIG1       -0.0366
     33 C           2.4585   -0.2996   -0.6184 C.3     1  LIG1        0.0838
     34 H           2.5807   -1.2814   -1.0935 H       1  LIG1        0.0646
     35 O           3.6314   -0.0996    0.1789 O.3     1  LIG1       -0.3869
     36 C          -0.0897    1.8631    0.2767 C.2     1  LIG1        0.1496
     37 C          -0.1412    2.0186    1.8043 C.3     1  LIG1        0.0097
     38 C           1.1877    2.4849    2.4149 C.3     1  LIG1       -0.0129
     39 C           1.4679    1.8930    3.8134 C.3     1  LIG1        0.1176
     40 O           2.2717    2.8406    4.5269 O.3     1  LIG1       -0.3839
     41 O          -0.1235    2.8711   -0.4331 O.2     1  LIG1       -0.2963
     42 C          -1.4472   -0.1517   -0.1198 C.2     1  LIG1        0.2279
     43 O          -1.9684   -0.5007    0.9274 O.2     1  LIG1       -0.2747
     44 H           3.7962    1.7966   -3.1040 H       1  LIG1        0.0275
     45 H           4.5194    0.4433   -2.2649 H       1  LIG1        0.0275
     46 H           4.1921    1.9567   -1.3872 H       1  LIG1        0.0275
     47 H           1.9779    2.8164   -3.4484 H       1  LIG1        0.0275
     48 H           0.2499    2.7288   -3.2421 H       1  LIG1        0.0275
     49 H           1.0525    1.6429   -4.3977 H       1  LIG1        0.0275
     50 H          -1.6230    1.6842   -2.3086 H       1  LIG1        0.0508
     51 H          -3.1382   -0.1762   -1.3485 H       1  LIG1        0.1490
     52 H          -1.4362   -1.0431   -3.7472 H       1  LIG1        0.0332
     53 H          -0.9104    0.4646   -4.4667 H       1  LIG1        0.0332
     54 H          -2.8824    2.2638   -5.3293 H       1  LIG1        0.0810
     55 H          -5.3045    1.8773   -5.8283 H       1  LIG1        0.1653
     56 H          -7.3057   -0.0380   -5.3572 H       1  LIG1        0.0638
     57 H          -7.6589   -2.2335   -4.2419 H       1  LIG1        0.0618
     58 H          -5.8017   -3.3583   -3.0649 H       1  LIG1        0.0618
     59 H          -3.5534   -2.3245   -2.9798 H       1  LIG1        0.0624
     60 H           1.3482   -2.5424    0.4198 H       1  LIG1        0.0573
     61 H           0.2075   -0.8719    2.7298 H       1  LIG1        0.0569
     62 H           0.8259   -3.8518    2.5105 H       1  LIG1        0.0313
     63 H          -0.1626   -3.0415    3.7158 H       1  LIG1        0.0313
     64 H           3.4369   -2.0990    2.5353 H       1  LIG1        0.0235
     65 H           3.3682   -3.8447    2.7253 H       1  LIG1        0.0235
     66 H           4.1601   -2.8583    3.9584 H       1  LIG1        0.0235
     67 H           1.8538   -2.1359    6.0724 H       1  LIG1        0.0578
     68 H           2.1835   -0.2610    7.2277 H       1  LIG1        0.0279
     69 H           1.2112    1.0177    6.4997 H       1  LIG1        0.0279
     70 H           2.9910    1.0589    6.3971 H       1  LIG1        0.0279
     71 H           3.4295   -0.2620    1.1241 H       1  LIG1        0.2102
     72 H          -0.4810    1.0861    2.2543 H       1  LIG1        0.0343
     73 H          -0.9285    2.7487    2.0299 H       1  LIG1        0.0343
     74 H           1.1467    3.5802    2.4925 H       1  LIG1        0.0298
     75 H           2.0319    2.2904    1.7435 H       1  LIG1        0.0298
     76 H           0.5253    1.7829    4.3598 H       1  LIG1        0.0676
     77 H           3.0927    2.9602    4.0125 H       1  LIG1        0.2104
@<TRIPOS>BOND
     1     1     2    1
     2     2     3    2
     3     3     4    1
     4     3     5    1
     5     5     6    1
     6     6     7    1
     7     6     8    1
     8     8     9    1
     9     9    10   ar
    10    10    11   ar
    11    11    12   ar
    12    12    13   ar
    13    13    14   ar
    14    14    15   ar
    15    15    16   ar
    16    16    17   ar
    17    12    17   ar
    18     9    17   ar
    19     5    18    1
    20     5    19    1
    21    19    20    1
    22    20    21    1
    23    20    22    1
    24    22    23    2
    25    23    24    1
    26    24    25    1
    27    25    28    1
    28    28    29    2
    29    29    30    1
    30    30    31    2
    31    29    32    1
    32    20    33    1
    33    33    34    1
    34     2    33    1
    35    33    35    1
    36    19    36    1
    37    36    37    1
    38    37    38    1
    39    38    39    1
    40    30    39    1
    41    39    40    1
    42    36    41    2
    43    19    42    1
    44     7    42   am
    45    42    43    2
    46    25    27    1
    47    25    26    1
    48     1    44    1
    49     1    45    1
    50     1    46    1
    51     4    47    1
    52     4    48    1
    53     4    49    1
    54     6    50    1
    55     7    51    1
    56     8    52    1
    57     8    53    1
    58    10    54    1
    59    11    55    1
    60    13    56    1
    61    14    57    1
    62    15    58    1
    63    16    59    1
    64    22    60    1
    65    23    61    1
    66    24    62    1
    67    24    63    1
    68    27    64    1
    69    27    65    1
    70    27    66    1
    71    28    67    1
    72    32    68    1
    73    32    69    1
    74    32    70    1
    75    35    71    1
    76    37    72    1
    77    37    73    1
    78    38    74    1
    79    38    75    1
    80    39    76    1
    81    40    77    1
