REMARK  Name = NuBBE_1154
REMARK  13 active torsions:
REMARK  status: ('A' for Active; 'I' for Inactive)
REMARK    1  A    between atoms: C_2  and  O_3
REMARK    2  A    between atoms: C_2  and  C_5
REMARK    3  A    between atoms: O_3  and  C_4
REMARK    4  A    between atoms: C_5  and  C_6
REMARK    5  A    between atoms: C_6  and  C_7
REMARK    6  A    between atoms: C_7  and  C_8
REMARK    7  A    between atoms: C_8  and  C_9
REMARK    8  A    between atoms: C_9  and  C_10
REMARK    9  A    between atoms: C_10  and  C_11
REMARK   10  A    between atoms: C_11  and  C_12
REMARK   11  A    between atoms: C_12  and  C_13
REMARK   12  A    between atoms: C_13  and  C_14
REMARK   13  A    between atoms: C_14  and  C_15
REMARK                            x       y       z     vdW  Elec       q    Type
REMARK                         _______ _______ _______ _____ _____    ______ ____
ROOT
ATOM      1  C   LIG A   1       0.655  -1.227  -0.947  0.00  0.00    -0.000 C 
ENDROOT
BRANCH   1   2
ATOM      2  C   LIG A   1      -0.818  -0.811  -0.945  0.00  0.00    -0.000 C 
BRANCH   2   3
ATOM      3  C   LIG A   1      -1.629  -1.605  -1.969  0.00  0.00    +0.000 C 
BRANCH   3   4
ATOM      4  C   LIG A   1      -3.100  -1.185  -1.941  0.00  0.00    +0.000 C 
BRANCH   4   5
ATOM      5  C   LIG A   1      -3.940  -1.994  -2.934  0.00  0.00    +0.011 C 
BRANCH   5   6
ATOM      6  C   LIG A   1      -5.413  -1.586  -2.930  0.00  0.00    +0.120 C 
BRANCH   6   8
ATOM      7  O   LIG A   1      -5.780  -2.725  -0.821  0.00  0.00    -0.251 OA
ATOM      8  C   LIG A   1      -6.079  -1.825  -1.601  0.00  0.00    +0.307 C 
BRANCH   8   9
ATOM      9  O   LIG A   1      -7.074  -0.919  -1.392  0.00  0.00    -0.468 OA
ATOM     10  C   LIG A   1      -7.774  -1.106  -0.161  0.00  0.00    +0.280 C 
ENDBRANCH   8   9
ENDBRANCH   6   8
ENDBRANCH   5   6
ENDBRANCH   4   5
ENDBRANCH   3   4
ENDBRANCH   2   3
ENDBRANCH   1   2
BRANCH   1  11
ATOM     11  C   LIG A   1       1.437  -0.419   0.087  0.00  0.00    +0.000 C 
BRANCH  11  12
ATOM     12  C   LIG A   1       2.920  -0.797   0.123  0.00  0.00    +0.000 C 
BRANCH  12  13
ATOM     13  C   LIG A   1       3.700   0.004   1.171  0.00  0.00    +0.005 C 
BRANCH  13  14
ATOM     14  C   LIG A   1       3.686   1.513   0.901  0.00  0.00    +0.035 C 
BRANCH  14  15
ATOM     15  C   LIG A   1       4.461   2.297   1.929  0.00  0.00    -0.047 A 
ATOM     16  C   LIG A   1       4.092   2.260   3.281  0.00  0.00    +0.003 A 
ATOM     17  C   LIG A   1       4.810   2.986   4.231  0.00  0.00    +0.000 A 
ATOM     18  C   LIG A   1       5.895   3.766   3.836  0.00  0.00    +0.000 A 
ATOM     19  C   LIG A   1       6.258   3.824   2.492  0.00  0.00    +0.000 A 
ATOM     20  C   LIG A   1       5.543   3.095   1.541  0.00  0.00    +0.003 A 
ENDBRANCH  14  15
ENDBRANCH  13  14
ENDBRANCH  12  13
ENDBRANCH  11  12
ENDBRANCH   1  11
TORSDOF 12
