REMARK  Name = NuBBE_1498
REMARK  18 active torsions:
REMARK  status: ('A' for Active; 'I' for Inactive)
REMARK    1  A    between atoms: C_1  and  C_2
REMARK    2  A    between atoms: C_1  and  C_15
REMARK    3  A    between atoms: C_2  and  C_3
REMARK    4  A    between atoms: C_3  and  C_4
REMARK    5  A    between atoms: C_4  and  C_5
REMARK    6  A    between atoms: C_5  and  C_6
REMARK    7  A    between atoms: C_6  and  C_7
REMARK    8  A    between atoms: C_7  and  C_8
REMARK    9  A    between atoms: C_8  and  C_9
REMARK   10  A    between atoms: C_9  and  C_10
REMARK   11  A    between atoms: C_10  and  C_11
REMARK   12  A    between atoms: C_11  and  C_12
REMARK   13  A    between atoms: C_12  and  C_13
REMARK   14  A    between atoms: C_13  and  C_14
REMARK   15  A    between atoms: C_15  and  C_16
REMARK   16  A    between atoms: C_16  and  O_18
REMARK   17  A    between atoms: O_18  and  C_19
REMARK   18  A    between atoms: C_19  and  C_20
REMARK                            x       y       z     vdW  Elec       q    Type
REMARK                         _______ _______ _______ _____ _____    ______ ____
ROOT
ATOM      1  C   LIG A   1       0.202   1.806  -1.190  0.00  0.00    -0.000 C 
ENDROOT
BRANCH   1   2
ATOM      2  C   LIG A   1      -1.203   2.100  -0.642  0.00  0.00    -0.000 C 
BRANCH   2   3
ATOM      3  C   LIG A   1      -1.265   1.853   0.870  0.00  0.00    -0.000 C 
BRANCH   3   4
ATOM      4  C   LIG A   1      -2.655   2.114   1.468  0.00  0.00    -0.000 C 
BRANCH   4   5
ATOM      5  C   LIG A   1      -2.720   1.867   2.986  0.00  0.00    -0.000 C 
BRANCH   5   6
ATOM      6  C   LIG A   1      -2.410   0.416   3.361  0.00  0.00    -0.000 C 
BRANCH   6   7
ATOM      7  C   LIG A   1      -2.466   0.158   4.868  0.00  0.00    -0.000 C 
BRANCH   7   8
ATOM      8  C   LIG A   1      -2.162  -1.307   5.220  0.00  0.00    -0.000 C 
BRANCH   8   9
ATOM      9  C   LIG A   1      -0.766  -1.765   4.778  0.00  0.00    -0.000 C 
BRANCH   9  10
ATOM     10  C   LIG A   1      -0.447  -3.217   5.141  0.00  0.00    -0.003 C 
ATOM     11  C   LIG A   1      -1.365  -4.225   4.466  0.00  0.00    +0.004 C 
ENDBRANCH   9  10
ENDBRANCH   8   9
ENDBRANCH   7   8
ENDBRANCH   6   7
ENDBRANCH   5   6
ENDBRANCH   4   5
ENDBRANCH   3   4
ENDBRANCH   2   3
ENDBRANCH   1   2
BRANCH   1  12
ATOM     12  C   LIG A   1       0.313   2.043  -2.703  0.00  0.00    +0.000 C 
BRANCH  12  13
ATOM     13  C   LIG A   1       1.726   1.724  -3.215  0.00  0.00    +0.000 C 
BRANCH  13  14
ATOM     14  C   LIG A   1       1.856   1.930  -4.729  0.00  0.00    +0.011 C 
BRANCH  14  15
ATOM     15  C   LIG A   1       3.265   1.638  -5.251  0.00  0.00    +0.120 C 
BRANCH  15  16
ATOM     16  C   LIG A   1       3.689   0.208  -5.087  0.00  0.00    +0.307 C 
ATOM     17  O   LIG A   1       4.646  -0.143  -4.399  0.00  0.00    -0.251 OA
BRANCH  16  18
ATOM     18  O   LIG A   1       2.906  -0.623  -5.824  0.00  0.00    -0.465 OA
BRANCH  18  19
ATOM     19  C   LIG A   1       3.257  -2.012  -5.758  0.00  0.00    +0.228 C 
ATOM     20  C   LIG A   1       2.653  -2.648  -4.519  0.00  0.00    +0.048 C 
ENDBRANCH  18  19
ENDBRANCH  16  18
ENDBRANCH  15  16
ENDBRANCH  14  15
ENDBRANCH  13  14
ENDBRANCH  12  13
ENDBRANCH   1  12
TORSDOF 16
