@<TRIPOS>MOLECULE
NuBBE_400
 30 31 0 0 0
SMALL
GASTEIGER

@<TRIPOS>ATOM
      1 C           3.0937    0.8706    0.1647 C.ar    1  LIG1       -0.0367
      2 C           1.7074    0.7170   -0.4173 C.3     1  LIG1        0.0290
      3 S           0.4812    1.8641    0.2840 S.3     1  LIG1       -0.0881
      4 S          -1.2470    1.2884   -0.7062 S.3     1  LIG1       -0.0881
      5 C          -1.8693   -0.0617    0.3477 C.3     1  LIG1        0.0290
      6 C          -3.1361   -0.6913   -0.1873 C.ar    1  LIG1       -0.0367
      7 C          -3.0944   -1.7989   -1.0531 C.ar    1  LIG1       -0.0578
      8 C          -4.2800   -2.3755   -1.5179 C.ar    1  LIG1       -0.0615
      9 C          -5.5135   -1.8991   -1.0904 C.ar    1  LIG1       -0.0617
     10 C          -5.5697   -0.8066   -0.2220 C.ar    1  LIG1       -0.0615
     11 C          -4.3883   -0.1892    0.1899 C.ar    1  LIG1       -0.0578
     12 C           3.9823    1.8130   -0.3785 C.ar    1  LIG1       -0.0578
     13 C           5.2666    1.9676    0.1502 C.ar    1  LIG1       -0.0615
     14 C           5.6877    1.1702    1.2085 C.ar    1  LIG1       -0.0617
     15 C           4.8306    0.2030    1.7341 C.ar    1  LIG1       -0.0615
     16 C           3.5328    0.0627    1.2235 C.ar    1  LIG1       -0.0578
     17 H           1.3601   -0.3082   -0.2544 H       1  LIG1        0.0433
     18 H           1.7574    0.8840   -1.4985 H       1  LIG1        0.0433
     19 H          -2.0658    0.3414    1.3486 H       1  LIG1        0.0433
     20 H          -1.0968   -0.8304    0.4552 H       1  LIG1        0.0433
     21 H          -2.1445   -2.2117   -1.3714 H       1  LIG1        0.0621
     22 H          -4.2395   -3.2071   -2.2235 H       1  LIG1        0.0618
     23 H          -6.4340   -2.3611   -1.4374 H       1  LIG1        0.0618
     24 H          -6.5298   -0.4388    0.1235 H       1  LIG1        0.0618
     25 H          -4.4562    0.7029    0.8204 H       1  LIG1        0.0621
     26 H           3.6847    2.4199   -1.2302 H       1  LIG1        0.0621
     27 H           5.9387    2.7129   -0.2723 H       1  LIG1        0.0618
     28 H           6.6858    1.2965    1.6220 H       1  LIG1        0.0618
     29 H           5.1724   -0.4397    2.5383 H       1  LIG1        0.0618
     30 H           2.8835   -0.6950    1.6499 H       1  LIG1        0.0621
@<TRIPOS>BOND
     1     1     2    1
     2     2     3    1
     3     3     4    1
     4     4     5    1
     5     5     6    1
     6     6     7   ar
     7     7     8   ar
     8     8     9   ar
     9     9    10   ar
    10    10    11   ar
    11     6    11   ar
    12     1    12   ar
    13    12    13   ar
    14    13    14   ar
    15    14    15   ar
    16    15    16   ar
    17     1    16   ar
    18     2    17    1
    19     2    18    1
    20     5    19    1
    21     5    20    1
    22     7    21    1
    23     8    22    1
    24     9    23    1
    25    10    24    1
    26    11    25    1
    27    12    26    1
    28    13    27    1
    29    14    28    1
    30    15    29    1
    31    16    30    1
