@<TRIPOS>MOLECULE
NuBBE_1231
 84 88 0 0 0
SMALL
GASTEIGER

@<TRIPOS>ATOM
      1 C          -4.6672   -1.6280    0.7410 C.3     1  LIG1       -0.0587
      2 C          -3.3071   -1.4678    1.5069 C.3     1  LIG1       -0.0218
      3 C          -2.3095   -0.7831    0.4589 C.3     1  LIG1       -0.0137
      4 H          -2.9760   -0.3666   -0.3121 H       1  LIG1        0.0351
      5 C          -1.4129   -1.7396   -0.3472 C.2     1  LIG1       -0.0634
      6 C          -0.5104   -1.0807   -1.4404 C.3     1  LIG1       -0.0051
      7 C           0.2328    0.2388   -0.9101 C.3     1  LIG1       -0.0198
      8 C          -0.2494    1.5154   -1.6167 C.3     1  LIG1       -0.0585
      9 C           1.7940   -0.0565   -0.9697 C.3     1  LIG1       -0.0298
     10 H           2.2175    0.1584    0.0232 H       1  LIG1        0.0310
     11 C           2.8162    0.6507   -1.9300 C.3     1  LIG1       -0.0116
     12 H           3.7618    0.1145   -1.7525 H       1  LIG1        0.0327
     13 C           2.5542    0.4922   -3.4285 C.3     1  LIG1       -0.0597
     14 C           3.1275    2.1092   -1.5062 C.3     1  LIG1        0.0906
     15 C           4.4435    2.6795   -2.0493 C.3     1  LIG1        0.1100
     16 H           4.5446    2.5091   -3.1252 H       1  LIG1        0.0646
     17 O           5.5990    2.1721   -1.3923 O.3     1  LIG1       -0.3866
     18 C           4.2513    4.1713   -1.7973 C.3     1  LIG1        0.1118
     19 H           4.8611    4.7975   -2.4567 H       1  LIG1        0.0649
     20 O           4.6492    4.4654   -0.4497 O.3     1  LIG1       -0.3863
     21 C           2.7347    4.3518   -2.0317 C.3     1  LIG1        0.0927
     22 C           2.4414    4.8618   -3.4435 C.3     1  LIG1       -0.0335
     23 C           2.0478    5.2391   -0.9940 C.3     1  LIG1       -0.0335
     24 O           2.1378    3.0356   -1.9550 O.3     1  LIG1       -0.3651
     25 C           1.8573   -1.5878   -1.0925 C.3     1  LIG1       -0.0486
     26 C           0.6679   -1.9547   -1.9497 C.3     1  LIG1       -0.0431
     27 C          -0.0703    0.4421    0.6053 C.3     1  LIG1       -0.0460
     28 C          -1.5528    0.4716    0.9349 C.3     1  LIG1       -0.0455
     29 C          -1.4301   -0.8617   -2.6693 C.3     1  LIG1       -0.0553
     30 C          -1.5155   -3.0710   -0.1842 C.2     1  LIG1       -0.0836
     31 C          -2.4491   -3.7560    0.7585 C.3     1  LIG1       -0.0306
     32 C          -2.8531   -2.9034    1.9695 C.3     1  LIG1       -0.0242
     33 H          -3.7730   -3.3907    2.3290 H       1  LIG1        0.0315
     34 C          -1.8628   -2.9642    3.2126 C.3     1  LIG1       -0.0053
     35 C          -0.5637   -3.7707    2.9633 C.3     1  LIG1       -0.0572
     36 C          -1.4537   -1.5495    3.6781 C.3     1  LIG1        0.0606
     37 C          -2.6386   -0.6187    3.8943 C.3     1  LIG1       -0.0258
     38 C          -3.6592   -0.6186    2.7578 C.3     1  LIG1       -0.0444
     39 H          -0.7753   -1.1288    2.9350 H       1  LIG1        0.0599
     40 O          -0.7006   -1.6025    4.8926 O.3     1  LIG1       -0.3912
     41 C          -2.5966   -3.7009    4.3690 C.3     1  LIG1       -0.0572
     42 H          -4.5485   -2.1609   -0.2078 H       1  LIG1        0.0235
     43 H          -5.1013   -0.6470    0.5117 H       1  LIG1        0.0235
     44 H          -5.4046   -2.1757    1.3392 H       1  LIG1        0.0235
     45 H           0.0568    1.5691   -2.6595 H       1  LIG1        0.0235
     46 H           0.0958    2.4128   -1.0976 H       1  LIG1        0.0235
     47 H          -1.3416    1.5933   -1.6183 H       1  LIG1        0.0235
     48 H           3.3731    0.9188   -4.0159 H       1  LIG1        0.0233
     49 H           1.6382    0.9771   -3.7619 H       1  LIG1        0.0233
     50 H           2.5108   -0.5617   -3.7127 H       1  LIG1        0.0233
     51 H           3.1513    2.1482   -0.4083 H       1  LIG1        0.0626
     52 H           5.4502    2.3019   -0.4367 H       1  LIG1        0.2100
     53 H           5.6244    4.4872   -0.4584 H       1  LIG1        0.2100
     54 H           2.8458    5.8666   -3.5995 H       1  LIG1        0.0258
     55 H           1.3611    4.8887   -3.6294 H       1  LIG1        0.0258
     56 H           2.8652    4.1918   -4.1999 H       1  LIG1        0.0258
     57 H           2.4653    6.2508   -0.9901 H       1  LIG1        0.0258
     58 H           2.1389    4.8154    0.0128 H       1  LIG1        0.0258
     59 H           0.9718    5.3078   -1.1917 H       1  LIG1        0.0258
     60 H           1.7539   -2.0481   -0.1018 H       1  LIG1        0.0268
     61 H           2.7959   -1.9514   -1.5218 H       1  LIG1        0.0268
     62 H           0.4970   -3.0318   -1.9378 H       1  LIG1        0.0274
     63 H           0.8890   -1.7202   -2.9961 H       1  LIG1        0.0274
     64 H           0.3877    1.3775    0.9547 H       1  LIG1        0.0271
     65 H           0.4009   -0.3542    1.1959 H       1  LIG1        0.0271
     66 H          -2.0176    1.3564    0.4808 H       1  LIG1        0.0271
     67 H          -1.6395    0.6616    1.9997 H       1  LIG1        0.0271
     68 H          -2.2992   -0.2366   -2.4426 H       1  LIG1        0.0238
     69 H          -1.8152   -1.8195   -3.0421 H       1  LIG1        0.0238
     70 H          -0.8932   -0.3919   -3.5010 H       1  LIG1        0.0238
     71 H          -0.9552   -3.7622   -0.8045 H       1  LIG1        0.0572
     72 H          -2.0281   -4.7155    1.0705 H       1  LIG1        0.0310
     73 H          -3.3436   -4.0350    0.1865 H       1  LIG1        0.0310
     74 H           0.0246   -3.3460    2.1443 H       1  LIG1        0.0236
     75 H          -0.7693   -4.8229    2.7414 H       1  LIG1        0.0236
     76 H           0.0815   -3.7734    3.8499 H       1  LIG1        0.0236
     77 H          -2.2700    0.4008    4.0682 H       1  LIG1        0.0290
     78 H          -3.1442   -0.8677    4.8367 H       1  LIG1        0.0290
     79 H          -3.8925    0.4139    2.4673 H       1  LIG1        0.0272
     80 H          -4.5959   -1.0011    3.1888 H       1  LIG1        0.0272
     81 H          -0.3728   -0.7043    5.0702 H       1  LIG1        0.2098
     82 H          -3.5218   -3.1880    4.6529 H       1  LIG1        0.0236
     83 H          -1.9722   -3.7781    5.2659 H       1  LIG1        0.0236
     84 H          -2.8655   -4.7214    4.0719 H       1  LIG1        0.0236
@<TRIPOS>BOND
     1     2     3    1
     2     3     5    1
     3     5     6    1
     4     6     7    1
     5     7     9    1
     6    11    12    1
     7    11    13    1
     8    11    14    1
     9    14    15    1
    10    15    18    1
    11    18    19    1
    12    18    20    1
    13    18    21    1
    14    21    22    1
    15    21    23    1
    16    21    24    1
    17    14    24    1
    18     9    25    1
    19    25    26    1
    20     7    27    1
    21    27    28    1
    22     3    28    1
    23    26     6    1
    24     5    30    2
    25    30    31    1
    26    31    32    1
    27     2    32    1
    28    32    34    1
    29    34    36    1
    30    36    37    1
    31    37    38    1
    32     2    38    1
    33     1     2    1
    34     3     4    1
    35     6    29    1
    36     7     8    1
    37     9    10    1
    38     9    11    1
    39    32    33    1
    40    34    35    1
    41    34    41    1
    42    36    39    1
    43    36    40    1
    44    15    17    1
    45    15    16    1
    46     1    42    1
    47     1    43    1
    48     1    44    1
    49     8    45    1
    50     8    46    1
    51     8    47    1
    52    13    48    1
    53    13    49    1
    54    13    50    1
    55    14    51    1
    56    17    52    1
    57    20    53    1
    58    22    54    1
    59    22    55    1
    60    22    56    1
    61    23    57    1
    62    23    58    1
    63    23    59    1
    64    25    60    1
    65    25    61    1
    66    26    62    1
    67    26    63    1
    68    27    64    1
    69    27    65    1
    70    28    66    1
    71    28    67    1
    72    29    68    1
    73    29    69    1
    74    29    70    1
    75    30    71    1
    76    31    72    1
    77    31    73    1
    78    35    74    1
    79    35    75    1
    80    35    76    1
    81    37    77    1
    82    37    78    1
    83    38    79    1
    84    38    80    1
    85    40    81    1
    86    41    82    1
    87    41    83    1
    88    41    84    1
