REMARK  Name = NuBBE_2351
REMARK  4 active torsions:
REMARK  status: ('A' for Active; 'I' for Inactive)
REMARK    1  A    between atoms: C_1  and  C_2
REMARK    2  A    between atoms: C_9  and  C_10
REMARK    3  A    between atoms: C_17  and  C_18
REMARK    4  A    between atoms: C_17  and  C_19
REMARK                            x       y       z     vdW  Elec       q    Type
REMARK                         _______ _______ _______ _____ _____    ______ ____
ROOT
ATOM      1  C   LIG A   1      -0.677   0.880  -1.398  0.00  0.00    +0.012 C 
ATOM      2  C   LIG A   1       0.075   0.867  -0.041  0.00  0.00    -0.025 C 
ATOM      3  C   LIG A   1      -0.955   0.869   1.127  0.00  0.00    +0.001 C 
ATOM      4  C   LIG A   1      -1.834  -0.402   1.049  0.00  0.00    +0.005 C 
ATOM      5  C   LIG A   1      -1.091  -1.745   0.766  0.00  0.00    +0.012 C 
ATOM      6  C   LIG A   1       0.213  -1.782  -0.085  0.00  0.00    -0.007 C 
ATOM      7  C   LIG A   1       0.970  -3.111   0.257  0.00  0.00    -0.021 C 
ATOM      8  C   LIG A   1       1.638  -3.597  -0.827  0.00  0.00    -0.073 C 
ATOM      9  C   LIG A   1       2.396  -4.833  -1.106  0.00  0.00    +0.039 C 
ATOM     10  C   LIG A   1       1.005  -0.446   0.085  0.00  0.00    +0.005 C 
ATOM     11  C   LIG A   1       2.212  -0.312  -0.890  0.00  0.00    +0.005 C 
ATOM     12  C   LIG A   1       2.708  -1.584  -1.550  0.00  0.00    +0.008 C 
ATOM     13  C   LIG A   1       1.569  -2.567  -1.895  0.00  0.00    +0.015 C 
ATOM     14  C   LIG A   1       0.142  -2.071  -1.603  0.00  0.00    +0.019 C 
ATOM     15  C   LIG A   1      -1.720   2.265   1.327  0.00  0.00    -0.032 C 
ATOM     16  C   LIG A   1      -2.680   2.727   0.203  0.00  0.00    +0.011 C 
ATOM     17  C   LIG A   1      -2.594   2.251   2.601  0.00  0.00    +0.011 C 
ATOM     18  C   LIG A   1      -0.641   3.364   1.516  0.00  0.00    +0.007 C 
ATOM     19  C   LIG A   1       0.329   3.447   0.347  0.00  0.00    +0.001 C 
ATOM     20  C   LIG A   1       1.000   2.115   0.060  0.00  0.00    +0.007 C 
ENDROOT
TORSDOF 0
