REMARK  Name = NuBBE_558
REMARK  14 active torsions:
REMARK  status: ('A' for Active; 'I' for Inactive)
REMARK    1  A    between atoms: O_1  and  C_2
REMARK    2  A    between atoms: C_6  and  O_7
REMARK    3  A    between atoms: C_10  and  O_11
REMARK    4  A    between atoms: O_11  and  C_12
REMARK    5  A    between atoms: C_15  and  C_37
REMARK    6  A    between atoms: C_17  and  O_25
REMARK    7  A    between atoms: C_19  and  O_24
REMARK    8  A    between atoms: C_21  and  O_23
REMARK    9  A    between atoms: O_25  and  C_26
REMARK   10  A    between atoms: C_26  and  C_27
REMARK   11  A    between atoms: C_28  and  C_29
REMARK   12  A    between atoms: C_31  and  O_32
REMARK   13  A    between atoms: C_38  and  C_40
REMARK   14  A    between atoms: C_43  and  O_46
REMARK                            x       y       z     vdW  Elec       q    Type
REMARK                         _______ _______ _______ _____ _____    ______ ____
ROOT
ATOM      1  O   LIG A   1      -0.973   0.126  -1.746  0.00  0.00    -0.453 OA
ENDROOT
BRANCH   1   9
ATOM      2  C   LIG A   1      -7.092  -1.440  -0.368  0.00  0.00    +0.124 A 
ATOM      3  C   LIG A   1      -6.443  -1.152  -1.566  0.00  0.00    +0.092 A 
ATOM      4  C   LIG A   1      -5.063  -0.931  -1.567  0.00  0.00    +0.146 A 
ATOM      5  C   LIG A   1      -4.359  -1.014  -0.373  0.00  0.00    +0.109 A 
ATOM      6  C   LIG A   1      -5.019  -1.321   0.825  0.00  0.00    +0.135 A 
ATOM      7  C   LIG A   1      -6.389  -1.516   0.835  0.00  0.00    +0.091 A 
ATOM      8  C   LIG A   1      -2.930  -0.770  -0.401  0.00  0.00    +0.238 A 
ATOM      9  C   LIG A   1      -2.301  -0.286  -1.672  0.00  0.00    +0.214 A 
ATOM     10  C   LIG A   1      -3.103  -0.298  -2.766  0.00  0.00    +0.181 A 
ATOM     11  O   LIG A   1      -4.453  -0.655  -2.755  0.00  0.00    -0.451 OA
ATOM     12  O   LIG A   1      -2.334  -0.962   0.659  0.00  0.00    -0.283 OA
BRANCH  10  13
ATOM     13  C   LIG A   1      -2.649   0.074  -4.142  0.00  0.00    +0.021 A 
ATOM     14  C   LIG A   1      -1.353  -0.210  -4.604  0.00  0.00    +0.015 A 
ATOM     15  C   LIG A   1      -0.948   0.123  -5.902  0.00  0.00    +0.046 A 
ATOM     16  C   LIG A   1      -1.855   0.716  -6.768  0.00  0.00    +0.117 A 
ATOM     17  C   LIG A   1      -3.148   0.996  -6.354  0.00  0.00    +0.046 A 
ATOM     18  C   LIG A   1      -3.546   0.666  -5.051  0.00  0.00    +0.015 A 
BRANCH  16  19
ATOM     19  O   LIG A   1      -1.518   1.014  -8.053  0.00  0.00    -0.507 OA
ATOM     20  H   LIG A   1      -0.740   0.483  -8.294  0.00  0.00    +0.292 HD
ENDBRANCH  16  19
ENDBRANCH  10  13
BRANCH   2  21
ATOM     21  O   LIG A   1      -8.432  -1.664  -0.314  0.00  0.00    -0.506 OA
ATOM     22  H   LIG A   1      -8.787  -1.697  -1.215  0.00  0.00    +0.292 HD
ENDBRANCH   2  21
BRANCH   6  23
ATOM     23  O   LIG A   1      -4.376  -1.443   2.026  0.00  0.00    -0.506 OA
ATOM     24  H   LIG A   1      -3.405  -1.373   1.857  0.00  0.00    +0.292 HD
ENDBRANCH   6  23
ENDBRANCH   1   9
BRANCH   1  25
ATOM     25  C   LIG A   1      -0.217   0.311  -0.540  0.00  0.00    +0.340 C 
ATOM     26  O   LIG A   1       0.051  -0.931   0.108  0.00  0.00    -0.333 OA
ATOM     27  C   LIG A   1       0.517  -0.714   1.444  0.00  0.00    +0.163 C 
ATOM     28  C   LIG A   1       1.902  -0.048   1.403  0.00  0.00    +0.236 C 
ATOM     29  C   LIG A   1       2.025   1.077   0.343  0.00  0.00    +0.192 C 
ATOM     30  C   LIG A   1       1.174   0.867  -0.917  0.00  0.00    +0.215 C 
ATOM     31  C   LIG A   1       0.567  -2.060   2.153  0.00  0.00    +0.042 C 
BRANCH  30  32
ATOM     32  O   LIG A   1       1.879  -0.065  -1.776  0.00  0.00    -0.383 OA
ATOM     33  H   LIG A   1       1.194  -0.455  -2.352  0.00  0.00    +0.210 HD
ENDBRANCH  30  32
BRANCH  29  34
ATOM     34  O   LIG A   1       3.409   1.194  -0.049  0.00  0.00    -0.385 OA
ATOM     35  H   LIG A   1       3.538   0.469  -0.698  0.00  0.00    +0.210 HD
ENDBRANCH  29  34
BRANCH  28  36
ATOM     36  O   LIG A   1       2.377   0.442   2.686  0.00  0.00    -0.453 OA
BRANCH  36  37
ATOM     37  C   LIG A   1       1.661   1.411   3.298  0.00  0.00    +0.332 C 
ATOM     38  O   LIG A   1       0.494   1.691   3.071  0.00  0.00    -0.246 OA
BRANCH  37  39
ATOM     39  C   LIG A   1       2.467   2.263   4.189  0.00  0.00    +0.092 C 
ATOM     40  C   LIG A   1       3.779   2.276   4.462  0.00  0.00    +0.015 C 
BRANCH  40  41
ATOM     41  C   LIG A   1       4.840   1.383   3.995  0.00  0.00    -0.021 A 
ATOM     42  C   LIG A   1       5.290   0.353   4.829  0.00  0.00    +0.053 A 
ATOM     43  C   LIG A   1       6.394  -0.408   4.457  0.00  0.00    +0.117 A 
ATOM     44  C   LIG A   1       7.030  -0.201   3.236  0.00  0.00    +0.045 A 
ATOM     45  C   LIG A   1       6.566   0.806   2.390  0.00  0.00    +0.004 A 
ATOM     46  C   LIG A   1       5.486   1.607   2.775  0.00  0.00    +0.008 A 
BRANCH  43  47
ATOM     47  O   LIG A   1       6.851  -1.342   5.341  0.00  0.00    -0.507 OA
ATOM     48  H   LIG A   1       7.736  -1.624   5.057  0.00  0.00    +0.292 HD
ENDBRANCH  43  47
ENDBRANCH  40  41
ENDBRANCH  37  39
ENDBRANCH  36  37
ENDBRANCH  28  36
ENDBRANCH   1  25
TORSDOF 13
