@<TRIPOS>MOLECULE
NuBBE_1467
 65 69 0 0 0
SMALL
GASTEIGER

@<TRIPOS>ATOM
      1 C          -1.8323    2.5440   -2.2489 C.3     1  LIG1       -0.0497
      2 C          -1.8904    1.5384   -1.0740 C.3     1  LIG1        0.0575
      3 C          -0.5445    1.0928   -0.4996 C.2     1  LIG1       -0.0362
      4 C          -0.3317    1.0948    0.8255 C.2     1  LIG1        0.0235
      5 C          -2.2868    0.1605   -1.6614 C.3     1  LIG1        0.0692
      6 H          -3.0410    0.2429   -2.4533 H       1  LIG1        0.0603
      7 O          -2.7984   -0.7446   -0.6883 O.3     1  LIG1       -0.3908
      8 C          -0.9664   -0.4524   -2.2370 C.3     1  LIG1       -0.0087
      9 C           0.2324    0.2437   -1.5213 C.3     1  LIG1        0.0650
     10 C           1.4456   -0.7021   -1.0331 C.3     1  LIG1        0.0464
     11 C           1.9014   -1.5907   -2.2512 C.3     1  LIG1       -0.0511
     12 C           2.4805    0.3960   -0.8708 C.2     1  LIG1        0.1159
     13 O           2.3224    1.3589   -1.8498 O.2     1  LIG1       -0.4635
     14 C           3.3080    0.6360    0.1368 C.2     1  LIG1        0.0200
     15 C           3.2922   -0.1939    1.3353 C.2     1  LIG1        0.1651
     16 C           2.4899   -1.4997    1.3731 C.3     1  LIG1        0.0317
     17 C           3.6010   -2.5803    1.2481 C.3     1  LIG1       -0.0525
     18 C           1.8957   -1.6003    2.7971 C.3     1  LIG1       -0.0525
     19 C           1.4111   -1.7183    0.2048 C.3     1  LIG1       -0.0054
     20 H           1.7941   -2.6455   -0.2463 H       1  LIG1        0.0325
     21 C           0.0055   -2.2136    0.6346 C.3     1  LIG1        0.0496
     22 C           0.0074   -3.5793    1.2941 C.2     1  LIG1        0.3071
     23 O          -0.9762   -3.6687    2.2252 O.3     1  LIG1       -0.4679
     24 C          -1.1301   -4.9671    2.8045 C.3     1  LIG1        0.0817
     25 O           0.7690   -4.4996    0.9848 O.2     1  LIG1       -0.2509
     26 O           3.9888    0.1866    2.2779 O.2     1  LIG1       -0.2920
     27 C           1.0751    1.1825   -2.4280 C.2     1  LIG1        0.1093
     28 C           0.8910    1.6487   -3.6692 C.2     1  LIG1       -0.0595
     29 C          -2.7747    2.1492    0.0628 C.3     1  LIG1        0.1426
     30 H          -3.8219    2.0585   -0.2626 H       1  LIG1        0.0796
     31 C          -2.5564    3.6363    0.3658 C.ar    1  LIG1        0.0313
     32 C          -3.2149    4.7086   -0.2122 C.ar    1  LIG1        0.0984
     33 O          -2.7792    5.8911    0.2889 O.2     1  LIG1       -0.4706
     34 C          -1.8544    5.6022    1.2336 C.ar    1  LIG1        0.0921
     35 C          -1.6908    4.2419    1.3351 C.ar    1  LIG1       -0.0172
     36 O          -2.6909    1.3926    1.2705 O.3     1  LIG1       -0.4524
     37 C          -1.4476    1.2086    1.7878 C.2     1  LIG1        0.3325
     38 O          -1.2517    1.0306    2.9792 O.2     1  LIG1       -0.2456
     39 H          -1.7078    2.0531   -3.2163 H       1  LIG1        0.0240
     40 H          -1.0363    3.2848   -2.1236 H       1  LIG1        0.0240
     41 H          -2.7830    3.0769   -2.3635 H       1  LIG1        0.0240
     42 H           0.5740    0.7408    1.2867 H       1  LIG1        0.0689
     43 H          -3.6939   -0.4557   -0.4356 H       1  LIG1        0.2098
     44 H          -0.9390   -0.2943   -3.3196 H       1  LIG1        0.0303
     45 H          -0.9636   -1.5357   -2.0958 H       1  LIG1        0.0303
     46 H           2.0064   -1.0423   -3.1921 H       1  LIG1        0.0240
     47 H           1.1809   -2.3968   -2.4323 H       1  LIG1        0.0240
     48 H           2.8783   -2.0512   -2.0572 H       1  LIG1        0.0240
     49 H           3.9389    1.5171    0.1617 H       1  LIG1        0.0686
     50 H           4.1152   -2.5019    0.2822 H       1  LIG1        0.0239
     51 H           3.1987   -3.5934    1.3378 H       1  LIG1        0.0239
     52 H           4.3670   -2.4647    2.0251 H       1  LIG1        0.0239
     53 H           1.0531   -0.9152    2.9286 H       1  LIG1        0.0239
     54 H           2.6292   -1.3358    3.5690 H       1  LIG1        0.0239
     55 H           1.5709   -2.6141    3.0423 H       1  LIG1        0.0239
     56 H          -0.6238   -2.3615   -0.2449 H       1  LIG1        0.0381
     57 H          -0.4931   -1.4986    1.2894 H       1  LIG1        0.0381
     58 H          -1.6648   -5.6108    2.0997 H       1  LIG1        0.0661
     59 H          -1.7294   -4.8732    3.7143 H       1  LIG1        0.0661
     60 H          -0.1670   -5.4133    3.0759 H       1  LIG1        0.0661
     61 H           0.0131    1.4511   -4.2674 H       1  LIG1        0.0568
     62 H           1.6728    2.2354   -4.1451 H       1  LIG1        0.0568
     63 H          -3.9805    4.7946   -0.9709 H       1  LIG1        0.1033
     64 H          -1.4184    6.4482    1.7479 H       1  LIG1        0.1029
     65 H          -1.0284    3.7669    2.0457 H       1  LIG1        0.0653
@<TRIPOS>BOND
     1     2     3    1
     2     3     4    2
     3     2     5    1
     4     5     8    1
     5     8     9    1
     6     9    10    1
     7    10    11    1
     8    10    12    1
     9    12    13    1
    10    12    14    2
    11    14    15    1
    12    15    16    1
    13    16    17    1
    14    16    18    1
    15    16    19    1
    16    19    20    1
    17    10    19    1
    18    19    21    1
    19    21    22    1
    20    22    23    1
    21    23    24    1
    22    22    25    2
    23    15    26    2
    24     3     9    1
    25     9    27    1
    26    13    27    1
    27    27    28    2
    28     2    29    1
    29    31    32   ar
    30    32    33   ar
    31    33    34   ar
    32    34    35   ar
    33    31    35   ar
    34    29    36    1
    35    36    37    1
    36     4    37    1
    37     1     2    1
    38    29    30    1
    39    29    31    1
    40    37    38    2
    41     5     7    1
    42     5     6    1
    43     1    39    1
    44     1    40    1
    45     1    41    1
    46     4    42    1
    47     7    43    1
    48     8    44    1
    49     8    45    1
    50    11    46    1
    51    11    47    1
    52    11    48    1
    53    14    49    1
    54    17    50    1
    55    17    51    1
    56    17    52    1
    57    18    53    1
    58    18    54    1
    59    18    55    1
    60    21    56    1
    61    21    57    1
    62    24    58    1
    63    24    59    1
    64    24    60    1
    65    28    61    1
    66    28    62    1
    67    32    63    1
    68    34    64    1
    69    35    65    1
