@<TRIPOS>MOLECULE
NuBBE_2342
 49 52 0 0 0
SMALL
GASTEIGER

@<TRIPOS>ATOM
      1 C          -2.2307   -0.8209   -4.1304 C.3     1  LIG1        0.0790
      2 O          -1.7673    0.0432   -3.1003 O.3     1  LIG1       -0.4913
      3 C          -2.4075   -0.0571   -1.8996 C.ar    1  LIG1        0.1657
      4 C          -3.7395   -0.3395   -1.6792 C.ar    1  LIG1        0.2075
      5 O          -4.6976   -0.5993   -2.6106 O.3     1  LIG1       -0.4489
      6 C          -5.8554   -0.8081   -1.7854 C.3     1  LIG1        0.2334
      7 O          -5.5900   -0.6449   -0.3803 O.3     1  LIG1       -0.4525
      8 C          -4.2581   -0.3578   -0.4012 C.ar    1  LIG1        0.1703
      9 C          -3.4889   -0.1078    0.7213 C.ar    1  LIG1       -0.0092
     10 C          -2.1261    0.1752    0.5454 C.ar    1  LIG1        0.0004
     11 C          -1.2243    0.3900    1.7635 C.3     1  LIG1        0.1320
     12 H          -1.8267    0.2277    2.6671 H       1  LIG1        0.0790
     13 O          -0.1769   -0.6275    1.7620 O.3     1  LIG1       -0.4829
     14 C           0.9273    0.0211    1.2532 C.ar    1  LIG1        0.1321
     15 C           2.0444   -0.6133    0.7218 C.ar    1  LIG1        0.0433
     16 C           2.1540   -2.1095    0.6953 C.3     1  LIG1       -0.0027
     17 C           2.8694   -2.6938    1.8908 C.2     1  LIG1       -0.0866
     18 C           3.9719   -3.4519    1.8223 C.2     1  LIG1       -0.1023
     19 C           3.0295    0.2257    0.1563 C.ar    1  LIG1        0.1655
     20 O           4.1822   -0.3426   -0.3187 O.3     1  LIG1       -0.5030
     21 C           2.8643    1.6277    0.0885 C.ar    1  LIG1        0.1621
     22 O           3.7466    2.5423   -0.4252 O.3     1  LIG1       -0.4914
     23 C           4.5316    2.1339   -1.5383 C.3     1  LIG1        0.0790
     24 C           1.7292    2.2175    0.6565 C.ar    1  LIG1       -0.0093
     25 C           0.7736    1.4032    1.2339 C.ar    1  LIG1        0.0049
     26 C          -0.5358    1.7744    1.8391 C.3     1  LIG1        0.0261
     27 H          -1.0697    2.5346    1.2585 H       1  LIG1        0.0387
     28 C          -0.3491    2.2514    3.2804 C.3     1  LIG1       -0.0546
     29 C          -1.6134    0.2131   -0.7769 C.ar    1  LIG1       -0.0094
     30 H          -1.6065   -0.6450   -5.0122 H       1  LIG1        0.0660
     31 H          -3.2570   -0.6011   -4.4306 H       1  LIG1        0.0660
     32 H          -2.1148   -1.8704   -3.8398 H       1  LIG1        0.0660
     33 H          -6.2282   -1.8240   -1.9601 H       1  LIG1        0.1166
     34 H          -6.6309   -0.0941   -2.0850 H       1  LIG1        0.1166
     35 H          -3.9439   -0.1455    1.7058 H       1  LIG1        0.0659
     36 H           2.6461   -2.4298   -0.2300 H       1  LIG1        0.0358
     37 H           1.1482   -2.5655    0.6402 H       1  LIG1        0.0358
     38 H           2.4168   -2.4977    2.8673 H       1  LIG1        0.0570
     39 H           4.4338   -3.7063    0.8745 H       1  LIG1        0.0532
     40 H           4.4206   -3.8601    2.7254 H       1  LIG1        0.0532
     41 H           4.4471   -1.0215    0.3260 H       1  LIG1        0.2923
     42 H           5.0577    3.0214   -1.9060 H       1  LIG1        0.0660
     43 H           3.9092    1.7547   -2.3558 H       1  LIG1        0.0660
     44 H           5.3065    1.4201   -1.2519 H       1  LIG1        0.0660
     45 H           1.5948    3.2940    0.6167 H       1  LIG1        0.0659
     46 H           0.1907    1.5166    3.8900 H       1  LIG1        0.0237
     47 H          -1.3182    2.4333    3.7570 H       1  LIG1        0.0237
     48 H           0.2228    3.1858    3.3143 H       1  LIG1        0.0237
     49 H          -0.5623    0.4283   -0.9556 H       1  LIG1        0.0659
@<TRIPOS>BOND
     1     1     2    1
     2     2     3    1
     3     3     4   ar
     4     4     5    1
     5     5     6    1
     6     6     7    1
     7     4     8   ar
     8     7     8    1
     9     8     9   ar
    10     9    10   ar
    11    10    11    1
    12    11    12    1
    13    11    13    1
    14    13    14    1
    15    14    15   ar
    16    15    16    1
    17    16    17    1
    18    17    18    2
    19    15    19   ar
    20    19    20    1
    21    19    21   ar
    22    21    22    1
    23    22    23    1
    24    21    24   ar
    25    24    25   ar
    26    14    25   ar
    27    25    26    1
    28    11    26    1
    29    10    29   ar
    30     3    29   ar
    31    26    28    1
    32    26    27    1
    33     1    30    1
    34     1    31    1
    35     1    32    1
    36     6    33    1
    37     6    34    1
    38     9    35    1
    39    16    36    1
    40    16    37    1
    41    17    38    1
    42    18    39    1
    43    18    40    1
    44    20    41    1
    45    23    42    1
    46    23    43    1
    47    23    44    1
    48    24    45    1
    49    28    46    1
    50    28    47    1
    51    28    48    1
    52    29    49    1
