@<TRIPOS>MOLECULE
NuBBE_2055
 36 38 0 0 0
SMALL
GASTEIGER

@<TRIPOS>ATOM
      1 O          -5.0363    3.6165    0.1977 O.2     1  LIG1       -0.2452
      2 C          -3.8186    3.5363    0.3027 C.ar    1  LIG1        0.3372
      3 O          -3.1392    2.3379    0.1435 O.2     1  LIG1       -0.4220
      4 C          -1.7403    2.2687    0.3128 C.ar    1  LIG1        0.1428
      5 C          -1.1629    1.0122    0.1789 C.ar    1  LIG1        0.0267
      6 C           0.2158    0.8466    0.3496 C.ar    1  LIG1        0.1655
      7 O           0.8151   -0.3752    0.1843 O.3     1  LIG1       -0.4855
      8 C           0.0238   -1.5268    0.4925 C.3     1  LIG1        0.1185
      9 C           0.8548   -2.7478    0.2716 C.3     1  LIG1        0.1216
     10 O           0.1262   -3.9765    0.4357 O.3     1  LIG1       -0.3618
     11 C           0.6646   -3.7398   -0.8732 C.3     1  LIG1        0.0938
     12 C          -0.3856   -3.5774   -1.9305 C.3     1  LIG1       -0.0335
     13 C           1.7989   -4.6544   -1.2212 C.3     1  LIG1       -0.0335
     14 C           1.0063    1.9794    0.6287 C.ar    1  LIG1        0.1623
     15 O           2.3652    2.0407    0.8143 O.3     1  LIG1       -0.4914
     16 C           3.1200    0.8394    0.7373 C.3     1  LIG1        0.0790
     17 C           0.3920    3.2449    0.7548 C.ar    1  LIG1       -0.0056
     18 C          -0.9889    3.3949    0.6032 C.ar    1  LIG1        0.0213
     19 C          -1.6709    4.6711    0.7397 C.ar    1  LIG1       -0.0442
     20 C          -3.0064    4.7199    0.6001 C.ar    1  LIG1        0.0236
     21 H          -1.8225    0.1930   -0.0794 H       1  LIG1        0.0692
     22 H          -0.8631   -1.5669   -0.1389 H       1  LIG1        0.0724
     23 H          -0.2861   -1.4861    1.5438 H       1  LIG1        0.0724
     24 H           1.8225   -2.6766    0.7520 H       1  LIG1        0.0659
     25 H          -1.2270   -2.9539   -1.6196 H       1  LIG1        0.0258
     26 H          -0.8003   -4.5542   -2.2023 H       1  LIG1        0.0258
     27 H           0.0494   -3.1311   -2.8304 H       1  LIG1        0.0258
     28 H           1.4201   -5.6261   -1.5548 H       1  LIG1        0.0258
     29 H           2.4597   -4.8288   -0.3655 H       1  LIG1        0.0258
     30 H           2.3978   -4.2221   -2.0289 H       1  LIG1        0.0258
     31 H           4.1739    1.0945    0.8873 H       1  LIG1        0.0660
     32 H           3.0431    0.3826   -0.2543 H       1  LIG1        0.0660
     33 H           2.8387    0.1441    1.5351 H       1  LIG1        0.0660
     34 H           1.0154    4.1094    0.9750 H       1  LIG1        0.0662
     35 H          -1.0979    5.5646    0.9540 H       1  LIG1        0.0627
     36 H          -3.5574    5.6472    0.7045 H       1  LIG1        0.0689
@<TRIPOS>BOND
     1     1     2    2
     2     2     3   ar
     3     3     4   ar
     4     4     5   ar
     5     5     6   ar
     6     6     7    1
     7     7     8    1
     8     8     9    1
     9     9    10    1
    10    10    11    1
    11    11    12    1
    12     9    11    1
    13    11    13    1
    14     6    14   ar
    15    14    15    1
    16    15    16    1
    17    14    17   ar
    18    17    18   ar
    19     4    18   ar
    20    18    19   ar
    21    19    20   ar
    22     2    20   ar
    23     5    21    1
    24     8    22    1
    25     8    23    1
    26     9    24    1
    27    12    25    1
    28    12    26    1
    29    12    27    1
    30    13    28    1
    31    13    29    1
    32    13    30    1
    33    16    31    1
    34    16    32    1
    35    16    33    1
    36    17    34    1
    37    19    35    1
    38    20    36    1
