@<TRIPOS>MOLECULE
NuBBE_870
 35 37 0 0 0
SMALL
GASTEIGER

@<TRIPOS>ATOM
      1 O          -1.7145   -0.9530   -2.2885 O.2     2  PHE2       -0.2735
      2 C          -1.3797   -0.7585   -1.1226 C.2     2  PHE2        0.2369
      3 N          -1.1897   -1.7804   -0.2169 N.am    1  HYP1       -0.2858
      4 CA         -1.2868   -1.5537    1.2108 C.3     1  HYP1        0.1047
      5 HA         -2.3524   -1.4410    1.4540 H       1  HYP1        0.0597
      6 CB         -0.7374   -2.8463    1.7944 C.3     1  HYP1        0.0018
      7 CG         -1.3196   -3.8948    0.8413 C.3     1  HYP1        0.0731
      8 HG         -0.7332   -4.8174    0.8042 H       1  HYP1        0.0610
      9 CD         -1.3715   -3.1878   -0.5255 C.3     1  HYP1        0.0416
     10 OD         -2.6405   -4.2264    1.2687 O.3     1  HYP1       -0.3902
     11 CA         -0.7885    0.5925   -0.6487 C.3     2  PHE2        0.1036
     12 HA         -1.4029    1.3942   -1.0739 H       2  PHE2        0.0598
     13 N          -0.8229    0.7872    0.8086 N.am    2  PHE2       -0.3021
     14 C          -0.5889   -0.2744    1.6598 C.2     1  HYP1        0.2343
     15 O          -0.0968   -0.1066    2.7694 O.2     1  HYP1       -0.2738
     16 CB          0.6553    0.6495   -1.1895 C.3     2  PHE2       -0.0007
     17 CG          1.3221    1.9882   -0.9775 C.ar    2  PHE2       -0.0451
     18 CD1         2.1805    2.1902    0.1122 C.ar    2  PHE2       -0.0585
     19 CE1         2.7882    3.4301    0.3117 C.ar    2  PHE2       -0.0615
     20 CZ          2.5445    4.4774   -0.5744 C.ar    2  PHE2       -0.0617
     21 CE2         1.6909    4.2872   -1.6595 C.ar    2  PHE2       -0.0615
     22 CD2         1.0796    3.0489   -1.8604 C.ar    2  PHE2       -0.0585
     23 HB1        -1.0440   -2.9850    2.8356 H       1  HYP1        0.0313
     24 HB2         0.3583   -2.8551    1.7442 H       1  HYP1        0.0313
     25 HD1        -2.3197   -3.3360   -1.0519 H       1  HYP1        0.0490
     26 HD2        -0.5403   -3.4874   -1.1713 H       1  HYP1        0.0490
     27 HD         -2.5643   -4.7173    2.1060 H       1  HYP1        0.2098
     28 H          -0.4427    1.6642    1.1476 H       2  PHE2        0.1495
     29 HB1         1.2674   -0.1368   -0.7269 H       2  PHE2        0.0336
     30 HB2         0.6657    0.4259   -2.2650 H       2  PHE2        0.0336
     31 HD1         2.3828    1.3835    0.8145 H       2  PHE2        0.0620
     32 HE1         3.4545    3.5777    1.1579 H       2  PHE2        0.0618
     33 HZ          3.0222    5.4415   -0.4206 H       2  PHE2        0.0618
     34 HE2         1.5041    5.1037   -2.3524 H       2  PHE2        0.0618
     35 HD2         0.4198    2.9161   -2.7154 H       2  PHE2        0.0620
@<TRIPOS>BOND
     1     2     3   am
     2     3     4    1
     3     4     6    1
     4     6     7    1
     5     7     9    1
     6     3     9    1
     7     2    11    1
     8    11    13    1
     9    13    14   am
    10     4    14    1
    11    16    17    1
    12    17    18   ar
    13    18    19   ar
    14    19    20   ar
    15    20    21   ar
    16    21    22   ar
    17    17    22   ar
    18     1     2    2
    19     4     5    1
    20    11    12    1
    21    11    16    1
    22    14    15    2
    23     7    10    1
    24     7     8    1
    25     6    23    1
    26     6    24    1
    27     9    25    1
    28     9    26    1
    29    10    27    1
    30    13    28    1
    31    16    29    1
    32    16    30    1
    33    18    31    1
    34    19    32    1
    35    20    33    1
    36    21    34    1
    37    22    35    1
