@<TRIPOS>MOLECULE
NuBBE_1239
 32 34 0 0 0
SMALL
GASTEIGER

@<TRIPOS>ATOM
      1 O          -3.0335    0.3653    0.5594 O.2     1  LIG1       -0.2863
      2 C          -1.8460    0.4601    0.2633 C.ar    1  LIG1        0.2040
      3 C          -0.9297   -0.7168    0.2109 C.ar    1  LIG1        0.1300
      4 C          -1.4447   -2.1023    0.3772 C.2     1  LIG1        0.3447
      5 O          -2.7492   -2.1576    0.0120 O.3     1  LIG1       -0.4643
      6 C          -3.4036   -3.4104    0.2041 C.3     1  LIG1        0.0820
      7 O          -0.7793   -3.0521    0.7506 O.2     1  LIG1       -0.2448
      8 C           0.3796   -0.4686    0.0243 C.ar    1  LIG1        0.0715
      9 N           0.8967    0.8056   -0.1511 N.ar    1  LIG1       -0.2728
     10 C           2.2828    0.7628   -0.3215 C.2     1  LIG1        0.2981
     11 C           2.6488   -0.6833   -0.2511 C.2     1  LIG1        0.1868
     12 O           3.9401   -1.1013   -0.3704 O.2     1  LIG1       -0.4898
     13 C           4.2387   -2.3604    0.2149 C.3     1  LIG1        0.0790
     14 C           1.5052   -1.3644   -0.0500 C.2     1  LIG1        0.0104
     15 O           3.0917    1.6665   -0.4819 O.2     1  LIG1       -0.2633
     16 C           0.0874    1.9636   -0.1850 C.ar    1  LIG1        0.0610
     17 C           0.5878    3.2524   -0.3977 C.ar    1  LIG1       -0.0370
     18 C          -0.2787    4.3503   -0.4536 C.ar    1  LIG1       -0.0598
     19 C          -1.6509    4.1753   -0.2968 C.ar    1  LIG1       -0.0610
     20 C          -2.1595    2.9009   -0.0694 C.ar    1  LIG1       -0.0489
     21 C          -1.2905    1.8028   -0.0097 C.ar    1  LIG1        0.0465
     22 H          -4.4768   -3.2501    0.0617 H       1  LIG1        0.0661
     23 H          -3.2463   -3.7921    1.2178 H       1  LIG1        0.0661
     24 H          -3.0550   -4.1263   -0.5441 H       1  LIG1        0.0661
     25 H           3.6429   -3.1668   -0.2236 H       1  LIG1        0.0660
     26 H           4.0926   -2.3146    1.2993 H       1  LIG1        0.0660
     27 H           5.2937   -2.5795    0.0246 H       1  LIG1        0.0660
     28 H           1.4359   -2.4387    0.0265 H       1  LIG1        0.0677
     29 H           1.6494    3.4417   -0.5290 H       1  LIG1        0.0638
     30 H           0.1247    5.3461   -0.6248 H       1  LIG1        0.0618
     31 H          -2.3229    5.0283   -0.3474 H       1  LIG1        0.0618
     32 H          -3.2314    2.7633    0.0605 H       1  LIG1        0.0625
@<TRIPOS>BOND
     1     1     2    2
     2     2     3   ar
     3     3     4    1
     4     4     5    1
     5     5     6    1
     6     4     7    2
     7     3     8   ar
     8     8     9   ar
     9     9    10   am
    10    10    11    1
    11    11    12    1
    12    12    13    1
    13    11    14    2
    14     8    14    1
    15    10    15    2
    16     9    16   ar
    17    16    17   ar
    18    17    18   ar
    19    18    19   ar
    20    19    20   ar
    21    20    21   ar
    22    16    21   ar
    23     2    21   ar
    24     6    22    1
    25     6    23    1
    26     6    24    1
    27    13    25    1
    28    13    26    1
    29    13    27    1
    30    14    28    1
    31    17    29    1
    32    18    30    1
    33    19    31    1
    34    20    32    1
