@<TRIPOS>MOLECULE
NuBBE_2054
 34 36 0 0 0
SMALL
GASTEIGER

@<TRIPOS>ATOM
      1 O          -6.5432    1.5104   -0.3983 O.2     1  LIG1       -0.2452
      2 C          -5.3299    1.6945   -0.3708 C.ar    1  LIG1        0.3372
      3 O          -4.4174    0.6469   -0.3859 O.2     1  LIG1       -0.4219
      4 C          -3.0276    0.8875   -0.3484 C.ar    1  LIG1        0.1463
      5 C          -2.1779   -0.2285   -0.3404 C.ar    1  LIG1        0.0270
      6 C          -0.7874   -0.0595   -0.2938 C.ar    1  LIG1        0.1697
      7 O          -0.0767   -1.2244   -0.2697 O.3     1  LIG1       -0.4840
      8 C           1.3477   -1.1334   -0.1832 C.3     1  LIG1        0.1082
      9 C           1.8856   -2.5376   -0.1503 C.2     1  LIG1       -0.0484
     10 C           3.0248   -2.9565    0.4373 C.2     1  LIG1       -0.0765
     11 C           4.0172   -2.0550    1.1191 C.3     1  LIG1       -0.0439
     12 C           3.4004   -4.4150    0.4427 C.3     1  LIG1       -0.0439
     13 C          -0.3047    1.2414   -0.2735 C.ar    1  LIG1        0.2084
     14 C          -1.1598    2.3308   -0.2833 C.ar    1  LIG1        0.1805
     15 O          -0.4912    3.5197   -0.2533 O.3     1  LIG1       -0.4518
     16 C           0.8732    3.0710   -0.2206 C.3     1  LIG1        0.2334
     17 O           0.9995    1.6385   -0.2384 O.3     1  LIG1       -0.4489
     18 C          -2.5351    2.1883   -0.3138 C.ar    1  LIG1        0.0632
     19 C          -3.4653    3.3028   -0.2967 C.ar    1  LIG1       -0.0407
     20 C          -4.7793    3.0606   -0.3187 C.ar    1  LIG1        0.0237
     21 H          -2.6016   -1.2298   -0.3631 H       1  LIG1        0.0692
     22 H           1.6191   -0.6075    0.7374 H       1  LIG1        0.0742
     23 H           1.7448   -0.6269   -1.0694 H       1  LIG1        0.0742
     24 H           1.2571   -3.2725   -0.6521 H       1  LIG1        0.0605
     25 H           3.7176   -1.0042    1.1213 H       1  LIG1        0.0274
     26 H           4.9845   -2.1129    0.6085 H       1  LIG1        0.0274
     27 H           4.1570   -2.3618    2.1606 H       1  LIG1        0.0274
     28 H           2.6473   -5.0403   -0.0481 H       1  LIG1        0.0274
     29 H           3.5043   -4.7724    1.4729 H       1  LIG1        0.0274
     30 H           4.3525   -4.5666   -0.0757 H       1  LIG1        0.0274
     31 H           1.3464    3.4538    0.6907 H       1  LIG1        0.1166
     32 H           1.4000    3.4822   -1.0892 H       1  LIG1        0.1166
     33 H          -3.0747    4.3139   -0.2559 H       1  LIG1        0.0628
     34 H          -5.5072    3.8628   -0.2979 H       1  LIG1        0.0689
@<TRIPOS>BOND
     1     1     2    2
     2     2     3   ar
     3     3     4   ar
     4     4     5   ar
     5     5     6   ar
     6     6     7    1
     7     7     8    1
     8     8     9    1
     9     9    10    2
    10    10    11    1
    11    10    12    1
    12     6    13   ar
    13    13    14   ar
    14    14    15    1
    15    15    16    1
    16    16    17    1
    17    13    17    1
    18    14    18   ar
    19     4    18   ar
    20    18    19   ar
    21    19    20   ar
    22     2    20   ar
    23     5    21    1
    24     8    22    1
    25     8    23    1
    26     9    24    1
    27    11    25    1
    28    11    26    1
    29    11    27    1
    30    12    28    1
    31    12    29    1
    32    12    30    1
    33    16    31    1
    34    16    32    1
    35    19    33    1
    36    20    34    1
