@<TRIPOS>MOLECULE
NuBBE_2004
 57 59 0 0 0
SMALL
GASTEIGER

@<TRIPOS>ATOM
      1 C          -2.8676   -0.4098   -1.7521 C.3     1  LIG1       -0.0327
      2 C          -1.4217   -0.8241   -1.8729 C.ar    1  LIG1        0.0347
      3 C          -0.4261    0.1543   -1.7135 C.ar    1  LIG1        0.1418
      4 C           0.9370   -0.1601   -1.8047 C.ar    1  LIG1        0.1021
      5 C           1.8681    0.9690   -1.5394 C.2     1  LIG1        0.1741
      6 C           1.3085    2.3267   -1.7842 C.3     1  LIG1        0.0520
      7 C           0.0314    2.3900   -0.9745 C.3     1  LIG1        0.1323
      8 H          -0.4343    3.3642   -1.1611 H       1  LIG1        0.0789
      9 C           0.1563    2.2804    0.5413 C.ar    1  LIG1       -0.0033
     10 C           1.2647    2.7857    1.2308 C.ar    1  LIG1       -0.0514
     11 C           1.3316    2.7228    2.6235 C.ar    1  LIG1       -0.0152
     12 C           0.2785    2.1667    3.3494 C.ar    1  LIG1        0.1730
     13 O           0.3159    2.0521    4.7610 O.3     1  LIG1       -0.4223
     14 C           1.0463    2.9101    5.5861 C.2     1  LIG1        0.3093
     15 C           0.8978    2.4625    7.0102 C.3     1  LIG1        0.0336
     16 O           1.6774    3.9019    5.2497 O.2     1  LIG1       -0.2507
     17 C          -0.8293    1.6206    2.6864 C.ar    1  LIG1        0.1626
     18 O          -1.8220    1.0493    3.4435 O.3     1  LIG1       -0.4914
     19 C          -2.6124    0.0675    2.7699 C.3     1  LIG1        0.0790
     20 C          -0.8888    1.7131    1.2926 C.ar    1  LIG1       -0.0096
     21 O          -0.8955    1.4294   -1.4959 O.3     1  LIG1       -0.4826
     22 O           2.9961    0.8240   -1.0846 O.2     1  LIG1       -0.2917
     23 C           1.3272   -1.4801   -2.0903 C.ar    1  LIG1        0.1520
     24 O           2.6964   -1.8578   -2.1036 O.3     1  LIG1       -0.4248
     25 C           3.6251   -1.0657   -2.8022 C.2     1  LIG1        0.3092
     26 C           4.9125   -1.0372   -2.0317 C.3     1  LIG1        0.0336
     27 O           3.3856   -0.4602   -3.8473 O.2     1  LIG1       -0.2507
     28 C           0.3551   -2.5016   -2.2478 C.ar    1  LIG1        0.0354
     29 C           0.7748   -3.9246   -2.5229 C.3     1  LIG1       -0.0327
     30 C          -1.0152   -2.1511   -2.1217 C.ar    1  LIG1        0.1444
     31 O          -1.9772   -3.1295   -2.5088 O.3     1  LIG1       -0.4252
     32 C          -3.1971   -3.3067   -1.8499 C.2     1  LIG1        0.3092
     33 C          -4.2554   -3.6098   -2.8751 C.3     1  LIG1        0.0336
     34 O          -3.4148   -3.1125   -0.6616 O.2     1  LIG1       -0.2507
     35 H          -3.0125    0.6724   -1.8035 H       1  LIG1        0.0280
     36 H          -3.2733   -0.7226   -0.7852 H       1  LIG1        0.0280
     37 H          -3.4586   -0.8150   -2.5757 H       1  LIG1        0.0280
     38 H           1.1184    2.4417   -2.8600 H       1  LIG1        0.0385
     39 H           2.0352    3.0889   -1.4903 H       1  LIG1        0.0385
     40 H           2.1016    3.2381    0.7043 H       1  LIG1        0.0623
     41 H           2.2192    3.1123    3.1124 H       1  LIG1        0.0656
     42 H           0.0616    2.9921    7.4713 H       1  LIG1        0.0342
     43 H           1.8226    2.6751    7.5547 H       1  LIG1        0.0342
     44 H           0.7279    1.3835    7.0560 H       1  LIG1        0.0342
     45 H          -3.2962   -0.3800    3.4964 H       1  LIG1        0.0660
     46 H          -1.9803   -0.7294    2.3615 H       1  LIG1        0.0660
     47 H          -3.2327    0.5146    1.9855 H       1  LIG1        0.0660
     48 H          -1.7616    1.3493    0.7608 H       1  LIG1        0.0659
     49 H           4.7098   -0.7790   -0.9873 H       1  LIG1        0.0342
     50 H           5.5641   -0.2576   -2.4333 H       1  LIG1        0.0342
     51 H           5.4180   -2.0020   -2.0757 H       1  LIG1        0.0342
     52 H           1.4918   -3.9624   -3.3497 H       1  LIG1        0.0280
     53 H          -0.0669   -4.5635   -2.8125 H       1  LIG1        0.0280
     54 H           1.2309   -4.3714   -1.6323 H       1  LIG1        0.0280
     55 H          -4.7663   -2.6818   -3.1525 H       1  LIG1        0.0342
     56 H          -4.9767   -4.3218   -2.4709 H       1  LIG1        0.0342
     57 H          -3.8045   -4.0409   -3.7729 H       1  LIG1        0.0342
@<TRIPOS>BOND
     1     1     2    1
     2     2     3   ar
     3     3     4   ar
     4     4     5    1
     5     5     6    1
     6     6     7    1
     7     9    10   ar
     8    10    11   ar
     9    11    12   ar
    10    12    13    1
    11    13    14    1
    12    14    15    1
    13    14    16    2
    14    12    17   ar
    15    17    18    1
    16    18    19    1
    17    17    20   ar
    18     9    20   ar
    19     7    21    1
    20     3    21    1
    21     5    22    2
    22     4    23   ar
    23    23    24    1
    24    24    25    1
    25    25    26    1
    26    25    27    2
    27    23    28   ar
    28    28    29    1
    29    28    30   ar
    30     2    30   ar
    31    30    31    1
    32    31    32    1
    33    32    33    1
    34    32    34    2
    35     7     9    1
    36     7     8    1
    37     1    35    1
    38     1    36    1
    39     1    37    1
    40     6    38    1
    41     6    39    1
    42    10    40    1
    43    11    41    1
    44    15    42    1
    45    15    43    1
    46    15    44    1
    47    19    45    1
    48    19    46    1
    49    19    47    1
    50    20    48    1
    51    26    49    1
    52    26    50    1
    53    26    51    1
    54    29    52    1
    55    29    53    1
    56    29    54    1
    57    33    55    1
    58    33    56    1
    59    33    57    1
