@<TRIPOS>MOLECULE
NuBBE_4
 42 42 0 0 0
SMALL
GASTEIGER

@<TRIPOS>ATOM
      1 O          -5.8563   -3.4589    0.0008 O.3     1  LIG1       -0.5068
      2 C          -4.7761   -2.6569    0.2402 C.ar    1  LIG1        0.1169
      3 C          -4.7041   -1.3753   -0.2796 C.ar    1  LIG1       -0.0194
      4 C          -3.5773   -0.5923   -0.0326 C.ar    1  LIG1       -0.0443
      5 C          -2.5263   -1.0987    0.7460 C.ar    1  LIG1        0.0592
      6 C          -1.3184   -0.2923    1.0557 C.2     1  LIG1        0.3395
      7 O          -1.3584    0.8923    0.3974 O.3     1  LIG1       -0.4570
      8 C          -0.4650    1.9389    0.8412 C.3     1  LIG1        0.1113
      9 C           0.9699    1.5730    0.6597 C.2     1  LIG1       -0.0480
     10 C           2.0909    2.2489    0.9699 C.2     1  LIG1       -0.0731
     11 C           2.0646    3.6079    1.6110 C.3     1  LIG1       -0.0437
     12 C           3.4878    1.6787    0.7259 C.3     1  LIG1       -0.0285
     13 C           3.6200    0.3007    0.0306 C.3     1  LIG1       -0.0308
     14 C           3.0421    0.2837   -1.3638 C.2     1  LIG1       -0.0850
     15 C           2.0437   -0.4888   -1.8341 C.2     1  LIG1       -0.0796
     16 C           1.3485   -1.5881   -1.0743 C.3     1  LIG1       -0.0440
     17 C           1.4421   -0.2312   -3.1941 C.3     1  LIG1       -0.0440
     18 O          -0.4524   -0.6751    1.8252 O.2     1  LIG1       -0.2450
     19 C          -2.6273   -2.3911    1.2839 C.ar    1  LIG1       -0.0443
     20 C          -3.7509   -3.1737    1.0287 C.ar    1  LIG1       -0.0194
     21 H          -6.4764   -2.9787   -0.5753 H       1  LIG1        0.2921
     22 H          -5.5125   -0.9606   -0.8795 H       1  LIG1        0.0654
     23 H          -3.5352    0.4169   -0.4378 H       1  LIG1        0.0627
     24 H          -0.7024    2.1677    1.8824 H       1  LIG1        0.0743
     25 H          -0.6992    2.8099    0.2197 H       1  LIG1        0.0743
     26 H           1.0800    0.5872    0.2451 H       1  LIG1        0.0605
     27 H           1.1280    3.7915    2.1463 H       1  LIG1        0.0274
     28 H           2.1922    4.3872    0.8534 H       1  LIG1        0.0274
     29 H           2.8732    3.7037    2.3434 H       1  LIG1        0.0274
     30 H           3.9812    1.5922    1.7045 H       1  LIG1        0.0313
     31 H           4.0659    2.4139    0.1512 H       1  LIG1        0.0313
     32 H           3.1773   -0.4613    0.6751 H       1  LIG1        0.0310
     33 H           4.6851    0.0476   -0.0444 H       1  LIG1        0.0310
     34 H           3.4386    1.0681   -2.0178 H       1  LIG1        0.0572
     35 H           1.7003   -1.7088   -0.0452 H       1  LIG1        0.0274
     36 H           1.4758   -2.5473   -1.5785 H       1  LIG1        0.0274
     37 H           0.2707   -1.3801   -1.0178 H       1  LIG1        0.0274
     38 H           1.9455    0.5834   -3.7225 H       1  LIG1        0.0274
     39 H           0.3880    0.0580   -3.0811 H       1  LIG1        0.0274
     40 H           1.4905   -1.1279   -3.8131 H       1  LIG1        0.0274
     41 H          -1.8327   -2.7885    1.9144 H       1  LIG1        0.0627
     42 H          -3.8310   -4.1760    1.4398 H       1  LIG1        0.0654
@<TRIPOS>BOND
     1     1     2    1
     2     2     3   ar
     3     3     4   ar
     4     4     5   ar
     5     5     6    1
     6     6     7    1
     7     7     8    1
     8     8     9    1
     9     9    10    2
    10    10    11    1
    11    10    12    1
    12    12    13    1
    13    13    14    1
    14    14    15    2
    15    15    16    1
    16    15    17    1
    17     6    18    2
    18     5    19   ar
    19    19    20   ar
    20     2    20   ar
    21     1    21    1
    22     3    22    1
    23     4    23    1
    24     8    24    1
    25     8    25    1
    26     9    26    1
    27    11    27    1
    28    11    28    1
    29    11    29    1
    30    12    30    1
    31    12    31    1
    32    13    32    1
    33    13    33    1
    34    14    34    1
    35    16    35    1
    36    16    36    1
    37    16    37    1
    38    17    38    1
    39    17    39    1
    40    17    40    1
    41    19    41    1
    42    20    42    1
