REMARK  Name = NuBBE_339
REMARK  13 active torsions:
REMARK  status: ('A' for Active; 'I' for Inactive)
REMARK    1  A    between atoms: C_4  and  O_13
REMARK    2  A    between atoms: C_8  and  C_9
REMARK    3  A    between atoms: C_9  and  O_10
REMARK    4  A    between atoms: O_10  and  C_11
REMARK    5  A    between atoms: O_13  and  C_14
REMARK    6  A    between atoms: C_17  and  C_25
REMARK    7  A    between atoms: C_19  and  O_24
REMARK    8  A    between atoms: C_21  and  O_23
REMARK    9  A    between atoms: C_25  and  O_26
REMARK   10  A    between atoms: C_27  and  O_29
REMARK   11  A    between atoms: C_33  and  C_34
REMARK   12  A    between atoms: C_33  and  O_36
REMARK   13  A    between atoms: C_34  and  O_35
REMARK                            x       y       z     vdW  Elec       q    Type
REMARK                         _______ _______ _______ _____ _____    ______ ____
ROOT
ATOM      1  C   LIG A   1      -0.393  -0.973  -2.514  0.00  0.00    +0.064 C 
ATOM      2  C   LIG A   1       0.039   0.379  -1.887  0.00  0.00    +0.107 C 
ATOM      3  C   LIG A   1       0.674  -0.008  -0.560  0.00  0.00    +0.316 C 
ATOM      4  O   LIG A   1       1.967  -0.584  -0.925  0.00  0.00    -0.470 OA
ATOM      5  C   LIG A   1       1.876  -1.619  -1.834  0.00  0.00    +0.201 C 
ATOM      6  C   LIG A   1       0.782  -1.891  -2.568  0.00  0.00    +0.078 C 
ATOM      7  C   LIG A   1      -1.062  -0.461  -3.750  0.00  0.00    -0.019 C 
ATOM      8  C   LIG A   1      -1.565   0.763  -3.500  0.00  0.00    +0.006 C 
ATOM      9  C   LIG A   1      -1.186   1.258  -2.109  0.00  0.00    +0.116 C 
ENDROOT
BRANCH   6  10
ATOM     10  C   LIG A   1       0.611  -3.247  -3.145  0.00  0.00    +0.338 C 
ATOM     11  O   LIG A   1      -0.106  -3.505  -4.087  0.00  0.00    -0.245 OA
BRANCH  10  12
ATOM     12  O   LIG A   1       1.222  -4.139  -2.317  0.00  0.00    -0.465 OA
ATOM     13  C   LIG A   1       0.933  -5.524  -2.512  0.00  0.00    +0.280 C 
ENDBRANCH  10  12
ENDBRANCH   6  10
BRANCH   9  14
ATOM     14  O   LIG A   1      -2.241   0.949  -1.206  0.00  0.00    -0.382 OA
ATOM     15  H   LIG A   1      -3.080   1.081  -1.683  0.00  0.00    +0.211 HD
ENDBRANCH   9  14
BRANCH   3  16
ATOM     16  O   LIG A   1       0.848   1.046   0.391  0.00  0.00    -0.309 OA
BRANCH  16  17
ATOM     17  C   LIG A   1       1.469   0.513   1.582  0.00  0.00    +0.286 C 
ATOM     18  O   LIG A   1       0.684  -0.503   2.223  0.00  0.00    -0.340 OA
ATOM     19  C   LIG A   1      -0.400  -0.071   3.056  0.00  0.00    +0.178 C 
ATOM     20  C   LIG A   1       0.033   0.986   4.087  0.00  0.00    +0.177 C 
ATOM     21  C   LIG A   1       0.787   2.147   3.428  0.00  0.00    +0.179 C 
ATOM     22  C   LIG A   1       1.936   1.614   2.561  0.00  0.00    +0.201 C 
BRANCH  21  23
ATOM     23  O   LIG A   1      -0.107   2.969   2.680  0.00  0.00    -0.386 OA
ATOM     24  H   LIG A   1       0.419   3.703   2.314  0.00  0.00    +0.210 HD
ENDBRANCH  21  23
BRANCH  20  25
ATOM     25  O   LIG A   1       0.911   0.360   5.048  0.00  0.00    -0.387 OA
ATOM     26  H   LIG A   1       0.351  -0.233   5.584  0.00  0.00    +0.210 HD
ENDBRANCH  20  25
BRANCH  22  27
ATOM     27  O   LIG A   1       2.970   1.094   3.422  0.00  0.00    -0.384 OA
ATOM     28  H   LIG A   1       2.522   0.516   4.080  0.00  0.00    +0.210 HD
ENDBRANCH  22  27
BRANCH  19  29
ATOM     29  C   LIG A   1      -1.649   0.318   2.258  0.00  0.00    +0.190 C 
BRANCH  29  30
ATOM     30  O   LIG A   1      -2.696   0.715   3.141  0.00  0.00    -0.392 OA
ATOM     31  H   LIG A   1      -3.052   1.552   2.790  0.00  0.00    +0.209 HD
ENDBRANCH  29  30
ENDBRANCH  19  29
ENDBRANCH  16  17
ENDBRANCH   3  16
BRANCH   9  32
ATOM     32  C   LIG A   1      -0.870   2.763  -2.059  0.00  0.00    +0.195 C 
BRANCH  32  33
ATOM     33  O   LIG A   1      -1.994   3.548  -2.478  0.00  0.00    -0.392 OA
ATOM     34  H   LIG A   1      -2.769   3.241  -1.978  0.00  0.00    +0.209 HD
ENDBRANCH  32  33
ENDBRANCH   9  32
TORSDOF 12
