REMARK  Name = NuBBE_158
REMARK  9 active torsions:
REMARK  status: ('A' for Active; 'I' for Inactive)
REMARK    1  A    between atoms: C_2  and  O_3
REMARK    2  A    between atoms: C_2  and  C_5
REMARK    3  A    between atoms: O_3  and  C_4
REMARK    4  A    between atoms: C_7  and  C_8
REMARK    5  A    between atoms: C_8  and  C_9
REMARK    6  A    between atoms: C_10  and  C_11
REMARK    7  A    between atoms: C_10  and  C_12
REMARK    8  A    between atoms: C_15  and  C_16
REMARK    9  A    between atoms: C_15  and  C_17
REMARK                            x       y       z     vdW  Elec       q    Type
REMARK                         _______ _______ _______ _____ _____    ______ ____
ROOT
ATOM      1  C   LIG A   1      -1.138  -0.089  -2.180  0.00  0.00    +0.060 A 
ATOM      2  C   LIG A   1      -0.430  -0.922  -1.307  0.00  0.00    +0.022 A 
ATOM      3  C   LIG A   1       0.310  -0.382  -0.243  0.00  0.00    -0.001 A 
ATOM      4  C   LIG A   1       0.297   1.010  -0.039  0.00  0.00    +0.128 A 
ATOM      5  O   LIG A   1       1.015   1.476   1.031  0.00  0.00    -0.486 OA
ATOM      6  C   LIG A   1       1.227   2.895   1.126  0.00  0.00    +0.105 C 
ATOM      7  C   LIG A   1       2.457   3.275   0.287  0.00  0.00    +0.055 C 
ATOM      8  C   LIG A   1       1.540   3.170   2.604  0.00  0.00    +0.055 C 
ATOM      9  C   LIG A   1      -0.029   3.681   0.730  0.00  0.00    +0.052 C 
ATOM     10  C   LIG A   1      -0.455   3.337  -0.688  0.00  0.00    +0.043 C 
ATOM     11  C   LIG A   1      -0.436   1.849  -0.891  0.00  0.00    -0.004 A 
ATOM     12  C   LIG A   1      -1.135   1.294  -1.973  0.00  0.00    +0.022 A 
ENDROOT
BRANCH   1  14
ATOM     13  O   LIG A   1      -2.845  -0.052  -3.850  0.00  0.00    -0.245 OA
ATOM     14  C   LIG A   1      -1.917  -0.642  -3.315  0.00  0.00    +0.339 C 
BRANCH  14  15
ATOM     15  O   LIG A   1      -1.427  -1.858  -3.651  0.00  0.00    -0.465 OA
ATOM     16  C   LIG A   1      -2.114  -2.555  -4.692  0.00  0.00    +0.280 C 
ENDBRANCH  14  15
ENDBRANCH   1  14
BRANCH   3  17
ATOM     17  C   LIG A   1       1.102  -1.320   0.645  0.00  0.00    +0.066 C 
BRANCH  17  18
ATOM     18  C   LIG A   1       0.296  -1.843   1.803  0.00  0.00    -0.023 C 
ATOM     19  C   LIG A   1      -0.004  -3.124   2.103  0.00  0.00    -0.079 C 
ATOM     20  C   LIG A   1       0.424  -4.330   1.312  0.00  0.00    +0.038 C 
ATOM     21  C   LIG A   1      -0.842  -3.446   3.313  0.00  0.00    +0.038 C 
ENDBRANCH  17  18
ENDBRANCH   3  17
TORSDOF 4
