REMARK  Name = NuBBE_270
REMARK  13 active torsions:
REMARK  status: ('A' for Active; 'I' for Inactive)
REMARK    1  A    between atoms: O_1  and  C_2
REMARK    2  A    between atoms: C_4  and  O_32
REMARK    3  A    between atoms: C_7  and  C_9
REMARK    4  A    between atoms: C_9  and  O_10
REMARK    5  A    between atoms: O_10  and  C_11
REMARK    6  A    between atoms: C_14  and  C_16
REMARK    7  A    between atoms: C_17  and  O_19
REMARK    8  A    between atoms: C_20  and  O_22
REMARK    9  A    between atoms: C_23  and  O_25
REMARK   10  A    between atoms: C_26  and  O_28
REMARK   11  A    between atoms: C_29  and  O_31
REMARK   12  A    between atoms: O_32  and  C_33
REMARK   13  A    between atoms: C_33  and  C_34
REMARK                            x       y       z     vdW  Elec       q    Type
REMARK                         _______ _______ _______ _____ _____    ______ ____
ROOT
ATOM      1  C   LIG A   1      -1.315   0.008   3.942  0.00  0.00    +0.201 C 
ATOM      2  C   LIG A   1      -1.054   1.301   3.118  0.00  0.00    +0.282 C 
ATOM      3  O   LIG A   1       0.339   1.628   3.059  0.00  0.00    -0.341 OA
ATOM      4  C   LIG A   1       1.212   0.580   2.590  0.00  0.00    +0.178 C 
ATOM      5  C   LIG A   1       1.060  -0.698   3.429  0.00  0.00    +0.177 C 
ATOM      6  C   LIG A   1      -0.405  -1.157   3.515  0.00  0.00    +0.179 C 
ENDROOT
BRANCH   1   7
ATOM      7  O   LIG A   1      -1.057   0.276   5.339  0.00  0.00    -0.384 OA
ATOM      8  H   LIG A   1      -1.783   0.842   5.660  0.00  0.00    +0.210 HD
ENDBRANCH   1   7
BRANCH   5   9
ATOM      9  O   LIG A   1       1.562  -0.449   4.755  0.00  0.00    -0.387 OA
ATOM     10  H   LIG A   1       0.898   0.111   5.210  0.00  0.00    +0.210 HD
ENDBRANCH   5   9
BRANCH   6  11
ATOM     11  O   LIG A   1      -0.870  -1.730   2.295  0.00  0.00    -0.386 OA
ATOM     12  H   LIG A   1      -0.211  -2.384   2.000  0.00  0.00    +0.210 HD
ENDBRANCH   6  11
BRANCH   4  13
ATOM     13  C   LIG A   1       1.091   0.351   1.073  0.00  0.00    +0.197 C 
BRANCH  13  14
ATOM     14  O   LIG A   1       1.979  -0.668   0.605  0.00  0.00    -0.346 OA
BRANCH  14  15
ATOM     15  C   LIG A   1       1.845  -0.849  -0.819  0.00  0.00    +0.282 C 
ATOM     16  O   LIG A   1       0.520  -1.311  -1.090  0.00  0.00    -0.343 OA
ATOM     17  C   LIG A   1       0.228  -1.538  -2.471  0.00  0.00    +0.149 C 
ATOM     18  C   LIG A   1       0.204  -0.249  -3.288  0.00  0.00    +0.040 C 
ATOM     19  C   LIG A   1       1.163  -2.630  -3.012  0.00  0.00    +0.174 C 
ATOM     20  C   LIG A   1       2.642  -2.322  -2.748  0.00  0.00    +0.179 C 
ATOM     21  C   LIG A   1       2.893  -1.881  -1.296  0.00  0.00    +0.201 C 
BRANCH  19  22
ATOM     22  O   LIG A   1       0.843  -3.873  -2.368  0.00  0.00    -0.387 OA
ATOM     23  H   LIG A   1       0.625  -3.671  -1.437  0.00  0.00    +0.210 HD
ENDBRANCH  19  22
BRANCH  20  24
ATOM     24  O   LIG A   1       3.127  -1.300  -3.636  0.00  0.00    -0.386 OA
ATOM     25  H   LIG A   1       3.204  -1.710  -4.519  0.00  0.00    +0.210 HD
ENDBRANCH  20  24
BRANCH  21  26
ATOM     26  O   LIG A   1       4.231  -1.361  -1.202  0.00  0.00    -0.384 OA
ATOM     27  H   LIG A   1       4.377  -0.868  -2.034  0.00  0.00    +0.210 HD
ENDBRANCH  21  26
ENDBRANCH  14  15
ENDBRANCH  13  14
ENDBRANCH   4  13
BRANCH   2  28
ATOM     28  O   LIG A   1      -1.669   1.255   1.835  0.00  0.00    -0.344 OA
BRANCH  28  29
ATOM     29  C   LIG A   1      -1.525   2.478   1.104  0.00  0.00    +0.198 C 
BRANCH  29  30
ATOM     30  C   LIG A   1      -2.179   2.391  -0.260  0.00  0.00    -0.022 A 
ATOM     31  C   LIG A   1      -2.887   1.252  -0.665  0.00  0.00    +0.006 A 
ATOM     32  C   LIG A   1      -3.475   1.178  -1.927  0.00  0.00    +0.000 A 
ATOM     33  C   LIG A   1      -3.355   2.251  -2.812  0.00  0.00    +0.000 A 
ATOM     34  C   LIG A   1      -2.656   3.392  -2.426  0.00  0.00    +0.000 A 
ATOM     35  C   LIG A   1      -2.072   3.466  -1.160  0.00  0.00    +0.006 A 
ENDBRANCH  29  30
ENDBRANCH  28  29
ENDBRANCH   2  28
TORSDOF 12
