@<TRIPOS>MOLECULE
NuBBE_2039
 48 49 0 0 0
SMALL
GASTEIGER

@<TRIPOS>ATOM
      1 C          -0.6576    1.2597   -1.2742 C.2     1  LIG1        0.1705
      2 O          -1.3101    2.2654   -1.5549 O.2     1  LIG1       -0.2918
      3 C          -1.3856   -0.0323   -0.9257 C.3     1  LIG1        0.0147
      4 C          -1.6335   -0.1305    0.5729 C.3     1  LIG1       -0.0207
      5 C          -2.3252   -1.4220    0.9370 C.ar    1  LIG1       -0.0467
      6 C          -3.7213   -1.5057    0.9108 C.ar    1  LIG1       -0.0551
      7 C          -4.3639   -2.6951    1.2622 C.ar    1  LIG1       -0.0197
      8 C          -3.6251   -3.8129    1.6516 C.ar    1  LIG1        0.1201
      9 C          -2.2322   -3.7500    1.6394 C.ar    1  LIG1       -0.0197
     10 C          -1.5859   -2.5616    1.2812 C.ar    1  LIG1       -0.0551
     11 O          -4.3633   -4.9147    1.9880 O.3     1  LIG1       -0.4951
     12 C          -3.7372   -5.8236    2.8871 C.3     1  LIG1        0.0788
     13 C           0.8357    1.3415   -1.1350 C.ar    1  LIG1        0.1014
     14 C           1.4371    2.5577   -0.7609 C.ar    1  LIG1        0.1491
     15 O           0.6962    3.7655   -0.8098 O.3     1  LIG1       -0.4251
     16 C           1.2927    4.9465   -1.2646 C.2     1  LIG1        0.3092
     17 O           2.4999    5.2165   -1.2814 O.2     1  LIG1       -0.2507
     18 C           0.2453    5.8902   -1.7553 C.3     1  LIG1        0.0336
     19 C           2.7744    2.5910   -0.3751 C.ar    1  LIG1        0.0234
     20 C           3.5794    1.4643   -0.4931 C.ar    1  LIG1        0.1271
     21 C           3.0276    0.2804   -0.9792 C.ar    1  LIG1        0.0227
     22 C           1.6635    0.2118   -1.2972 C.ar    1  LIG1        0.1376
     23 O           1.1534   -0.8912   -1.9307 O.3     1  LIG1       -0.4942
     24 C           1.5462   -2.1555   -1.4015 C.3     1  LIG1        0.0788
     25 O           4.9164    1.4411   -0.1959 O.3     1  LIG1       -0.4949
     26 C           5.4623    2.6926    0.2267 C.3     1  LIG1        0.0788
     27 H          -0.8686   -0.9228   -1.2661 H       1  LIG1        0.0348
     28 H          -2.3237   -0.0490   -1.4932 H       1  LIG1        0.0348
     29 H          -2.2352    0.7204    0.9154 H       1  LIG1        0.0317
     30 H          -0.6875   -0.0637    1.1260 H       1  LIG1        0.0317
     31 H          -4.3188   -0.6436    0.6226 H       1  LIG1        0.0621
     32 H          -5.4497   -2.7443    1.2478 H       1  LIG1        0.0654
     33 H          -1.6233   -4.6112    1.8925 H       1  LIG1        0.0654
     34 H          -0.4990   -2.5345    1.2781 H       1  LIG1        0.0621
     35 H          -4.4780   -6.5777    3.1699 H       1  LIG1        0.0660
     36 H          -3.4118   -5.3140    3.8008 H       1  LIG1        0.0660
     37 H          -2.9031   -6.3465    2.4095 H       1  LIG1        0.0660
     38 H           0.7251    6.6587   -2.3709 H       1  LIG1        0.0342
     39 H          -0.2645    6.3654   -0.9152 H       1  LIG1        0.0342
     40 H          -0.4602    5.3523   -2.3941 H       1  LIG1        0.0342
     41 H           3.1821    3.5206   -0.0003 H       1  LIG1        0.0691
     42 H           3.6785   -0.5752   -1.1341 H       1  LIG1        0.0691
     43 H           2.5014   -2.4665   -1.8306 H       1  LIG1        0.0660
     44 H           0.7874   -2.8862   -1.7025 H       1  LIG1        0.0660
     45 H           1.5834   -2.1495   -0.3068 H       1  LIG1        0.0660
     46 H           6.5215    2.5544    0.4525 H       1  LIG1        0.0660
     47 H           4.9729    3.0395    1.1447 H       1  LIG1        0.0660
     48 H           5.3817    3.4441   -0.5686 H       1  LIG1        0.0660
@<TRIPOS>BOND
     1     1     2    2
     2     1     3    1
     3     3     4    1
     4     4     5    1
     5     5     6   ar
     6     6     7   ar
     7     7     8   ar
     8     8     9   ar
     9     9    10   ar
    10     5    10   ar
    11     8    11    1
    12    11    12    1
    13     1    13    1
    14    13    14   ar
    15    14    15    1
    16    15    16    1
    17    16    17    2
    18    16    18    1
    19    14    19   ar
    20    19    20   ar
    21    20    21   ar
    22    21    22   ar
    23    13    22   ar
    24    22    23    1
    25    23    24    1
    26    20    25    1
    27    25    26    1
    28     3    27    1
    29     3    28    1
    30     4    29    1
    31     4    30    1
    32     6    31    1
    33     7    32    1
    34     9    33    1
    35    10    34    1
    36    12    35    1
    37    12    36    1
    38    12    37    1
    39    18    38    1
    40    18    39    1
    41    18    40    1
    42    19    41    1
    43    21    42    1
    44    24    43    1
    45    24    44    1
    46    24    45    1
    47    26    46    1
    48    26    47    1
    49    26    48    1
