REMARK  Name = NuBBE_1885
REMARK  18 active torsions:
REMARK  status: ('A' for Active; 'I' for Inactive)
REMARK    1  A    between atoms: C_4  and  O_5
REMARK    2  A    between atoms: O_5  and  C_6
REMARK    3  A    between atoms: C_6  and  C_7
REMARK    4  A    between atoms: C_9  and  O_10
REMARK    5  A    between atoms: O_10  and  C_11
REMARK    6  A    between atoms: C_11  and  C_12
REMARK    7  A    between atoms: C_14  and  O_15
REMARK    8  A    between atoms: O_15  and  C_16
REMARK    9  A    between atoms: C_20  and  C_21
REMARK   10  A    between atoms: C_23  and  O_24
REMARK   11  A    between atoms: O_24  and  C_25
REMARK   12  A    between atoms: C_26  and  O_27
REMARK   13  A    between atoms: O_27  and  C_28
REMARK   14  A    between atoms: C_29  and  O_30
REMARK   15  A    between atoms: O_30  and  C_31
REMARK   16  A    between atoms: C_31  and  C_32
REMARK   17  A    between atoms: C_35  and  O_36
REMARK   18  A    between atoms: O_36  and  C_37
REMARK                            x       y       z     vdW  Elec       q    Type
REMARK                         _______ _______ _______ _____ _____    ______ ____
ROOT
ATOM      1  O   LIG A   1      -0.681  -0.695   3.066  0.00  0.00    -0.283 OA
ATOM      2  C   LIG A   1      -0.655  -0.586   1.869  0.00  0.00    +0.238 A 
ATOM      3  C   LIG A   1      -0.393  -1.741   1.006  0.00  0.00    +0.114 A 
ATOM      4  C   LIG A   1      -0.689  -3.073   1.340  0.00  0.00    +0.192 A 
ATOM      5  C   LIG A   1      -0.109  -4.117   0.580  0.00  0.00    +0.216 A 
ATOM      6  C   LIG A   1       0.789  -3.800  -0.461  0.00  0.00    +0.169 A 
ATOM      7  C   LIG A   1       0.973  -2.456  -0.819  0.00  0.00    +0.096 A 
ATOM      8  C   LIG A   1       0.394  -1.442  -0.092  0.00  0.00    +0.147 A 
ATOM      9  O   LIG A   1       0.777  -0.175  -0.440  0.00  0.00    -0.451 OA
ATOM     10  C   LIG A   1       0.063   0.892   0.087  0.00  0.00    +0.181 A 
ATOM     11  C   LIG A   1      -0.744   0.736   1.171  0.00  0.00    +0.211 A 
ENDROOT
BRANCH  10  12
ATOM     12  C   LIG A   1       0.354   2.174  -0.614  0.00  0.00    +0.028 A 
ATOM     13  C   LIG A   1       1.240   2.233  -1.700  0.00  0.00    +0.061 A 
ATOM     14  C   LIG A   1       1.670   3.449  -2.274  0.00  0.00    +0.166 A 
ATOM     15  C   LIG A   1       1.160   4.665  -1.783  0.00  0.00    +0.204 A 
ATOM     16  C   LIG A   1       0.218   4.597  -0.741  0.00  0.00    +0.177 A 
ATOM     17  C   LIG A   1      -0.164   3.385  -0.182  0.00  0.00    +0.062 A 
BRANCH  14  18
ATOM     18  O   LIG A   1       2.649   3.460  -3.235  0.00  0.00    -0.491 OA
ATOM     19  C   LIG A   1       2.679   2.365  -4.146  0.00  0.00    +0.277 C 
ENDBRANCH  14  18
BRANCH  15  20
ATOM     20  O   LIG A   1       1.441   5.936  -2.216  0.00  0.00    -0.488 OA
ATOM     21  C   LIG A   1       2.514   6.159  -3.121  0.00  0.00    +0.277 C 
ENDBRANCH  15  20
BRANCH  16  22
ATOM     22  O   LIG A   1      -0.343   5.803  -0.240  0.00  0.00    -0.422 OA
BRANCH  22  23
ATOM     23  C   LIG A   1      -0.967   5.952   1.013  0.00  0.00    +0.309 C 
ATOM     24  C   LIG A   1      -1.199   7.408   1.221  0.00  0.00    +0.136 C 
ATOM     25  O   LIG A   1      -1.236   5.102   1.845  0.00  0.00    -0.251 OA
ENDBRANCH  22  23
ENDBRANCH  16  22
ENDBRANCH  10  12
BRANCH   6  26
ATOM     26  O   LIG A   1       1.575  -4.775  -1.016  0.00  0.00    -0.491 OA
ATOM     27  C   LIG A   1       2.530  -4.325  -1.982  0.00  0.00    +0.277 C 
ENDBRANCH   6  26
BRANCH  11  28
ATOM     28  O   LIG A   1      -1.493   1.741   1.708  0.00  0.00    -0.488 OA
ATOM     29  C   LIG A   1      -2.724   1.336   2.288  0.00  0.00    +0.277 C 
ENDBRANCH  11  28
BRANCH   4  30
ATOM     30  O   LIG A   1      -1.341  -3.350   2.579  0.00  0.00    -0.421 OA
BRANCH  30  31
ATOM     31  C   LIG A   1      -2.403  -4.250   2.636  0.00  0.00    +0.309 C 
ATOM     32  C   LIG A   1      -2.663  -4.730   4.042  0.00  0.00    +0.136 C 
ATOM     33  O   LIG A   1      -3.026  -4.669   1.671  0.00  0.00    -0.251 OA
ENDBRANCH  30  31
ENDBRANCH   4  30
BRANCH   5  34
ATOM     34  O   LIG A   1      -0.428  -5.445   1.028  0.00  0.00    -0.418 OA
BRANCH  34  35
ATOM     35  C   LIG A   1      -0.426  -6.678   0.353  0.00  0.00    +0.309 C 
ATOM     36  C   LIG A   1      -1.240  -7.688   1.129  0.00  0.00    +0.136 C 
ATOM     37  O   LIG A   1       0.082  -6.923  -0.728  0.00  0.00    -0.251 OA
ENDBRANCH  34  35
ENDBRANCH   5  34
TORSDOF 11
