@<TRIPOS>MOLECULE
NuBBE_316
 102 107 0 0 0
SMALL
GASTEIGER

@<TRIPOS>ATOM
      1 C          -3.4669   -1.7686    1.6680 C.3     1  LIG1       -0.0572
      2 C          -2.7157   -2.6132    0.5978 C.3     1  LIG1       -0.0052
      3 C          -3.1742   -2.1435   -0.8235 C.3     1  LIG1        0.0672
      4 H          -4.2513   -2.3204   -0.8969 H       1  LIG1        0.0602
      5 C          -2.4268   -2.9359   -1.9064 C.3     1  LIG1       -0.0255
      6 C          -0.9073   -2.7477   -1.8280 C.3     1  LIG1       -0.0447
      7 C          -0.2610   -3.0000   -0.4073 C.3     1  LIG1       -0.0249
      8 C          -1.1707   -2.3575    0.7000 C.3     1  LIG1       -0.0278
      9 H          -1.0792   -1.2709    0.5501 H       1  LIG1        0.0312
     10 C          -0.5836   -2.5942    2.0901 C.3     1  LIG1       -0.0486
     11 C           0.7351   -1.8448    2.2160 C.3     1  LIG1       -0.0457
     12 C           1.8517   -2.2185    1.2043 C.3     1  LIG1       -0.0090
     13 C           1.2292   -2.3570   -0.2736 C.3     1  LIG1       -0.0252
     14 H           1.9002   -3.0322   -0.8232 H       1  LIG1        0.0315
     15 C           1.2642   -1.0479   -1.0777 C.3     1  LIG1       -0.0306
     16 C           2.0764    0.0893   -0.6295 C.2     1  LIG1       -0.0831
     17 C           2.7702    0.1808    0.5111 C.2     1  LIG1       -0.0519
     18 C           3.0796   -1.1023    1.2974 C.3     1  LIG1        0.0944
     19 C           3.4741   -0.7933    2.7897 C.3     1  LIG1       -0.0319
     20 C           4.2001    0.5395    3.0642 C.3     1  LIG1       -0.0354
     21 C           3.4631    1.7620    2.4818 C.3     1  LIG1        0.0744
     22 C           3.3189    1.5515    0.9417 C.3     1  LIG1       -0.0003
     23 H           4.3509    1.5296    0.5500 H       1  LIG1        0.0359
     24 C           2.6590    2.8102    0.2419 C.3     1  LIG1       -0.0337
     25 H           2.8263    2.6961   -0.8385 H       1  LIG1        0.0307
     26 C           3.3939    4.1299    0.5914 C.3     1  LIG1       -0.0407
     27 H           4.3712    4.0877    0.0901 H       1  LIG1        0.0301
     28 C           3.6651    4.2817    2.0894 C.3     1  LIG1       -0.0492
     29 C           4.3362    3.0335    2.6662 C.3     1  LIG1       -0.0364
     30 C           2.6718    5.3689    0.0473 C.3     1  LIG1       -0.0622
     31 C           1.1309    2.9216    0.4252 C.3     1  LIG1       -0.0616
     32 C           2.1115    1.8823    3.2307 C.2     1  LIG1        0.3115
     33 O           2.1172    2.6270    4.3607 O.3     1  LIG1       -0.4802
     34 O           1.0923    1.3053    2.9123 O.2     1  LIG1       -0.2504
     35 C           4.3281   -1.6900    0.5713 C.2     1  LIG1        0.3156
     36 O           5.5163   -1.2830    1.0688 O.3     1  LIG1       -0.4800
     37 O           4.3443   -2.4148   -0.4129 O.2     1  LIG1       -0.2500
     38 C           2.4026   -3.6018    1.6680 C.3     1  LIG1       -0.0580
     39 C          -0.1297   -4.5411   -0.3043 C.3     1  LIG1       -0.0590
     40 O          -2.9318   -0.7254   -0.9191 O.3     1  LIG1       -0.3449
     41 C          -3.2768   -0.0456   -2.1313 C.3     1  LIG1        0.1882
     42 H          -2.6861   -0.4660   -2.9510 H       1  LIG1        0.0937
     43 O          -2.8529    1.3220   -1.9616 O.3     1  LIG1       -0.3405
     44 C          -3.1017    2.1463   -3.1027 C.3     1  LIG1        0.1130
     45 H          -2.6105    1.7170   -3.9866 H       1  LIG1        0.0647
     46 C          -4.6128    2.2487   -3.3565 C.3     1  LIG1        0.1119
     47 H          -5.1201    2.7201   -2.5060 H       1  LIG1        0.0647
     48 C          -5.1659    0.8429   -3.5681 C.3     1  LIG1        0.1141
     49 H          -4.8124    0.4443   -4.5282 H       1  LIG1        0.0648
     50 C          -4.7892   -0.1145   -2.4395 C.3     1  LIG1        0.1341
     51 H          -5.3624    0.1155   -1.5335 H       1  LIG1        0.0671
     52 O          -5.1953   -1.4308   -2.8607 O.3     1  LIG1       -0.3841
     53 O          -6.5997    0.8851   -3.6838 O.3     1  LIG1       -0.3864
     54 O          -4.9422    3.0125   -4.5246 O.3     1  LIG1       -0.3865
     55 C          -2.4781    3.5287   -2.8580 C.3     1  LIG1        0.0730
     56 O          -2.7050    4.3909   -3.9740 O.3     1  LIG1       -0.3924
     57 C          -3.1342   -4.0742    0.8672 C.3     1  LIG1       -0.0572
     58 H          -3.0952   -0.7403    1.7204 H       1  LIG1        0.0236
     59 H          -3.3693   -2.2093    2.6678 H       1  LIG1        0.0236
     60 H          -4.5411   -1.7277    1.4540 H       1  LIG1        0.0236
     61 H          -2.7562   -2.6156   -2.9009 H       1  LIG1        0.0290
     62 H          -2.6812   -3.9972   -1.8593 H       1  LIG1        0.0290
     63 H          -0.7428   -1.7358   -2.1970 H       1  LIG1        0.0271
     64 H          -0.4260   -3.3925   -2.5742 H       1  LIG1        0.0271
     65 H          -0.4694   -3.6554    2.3218 H       1  LIG1        0.0268
     66 H          -1.2379   -2.1965    2.8714 H       1  LIG1        0.0268
     67 H           1.0734   -2.0105    3.2448 H       1  LIG1        0.0271
     68 H           0.5091   -0.7823    2.1141 H       1  LIG1        0.0271
     69 H           0.2695   -0.5935   -1.0911 H       1  LIG1        0.0310
     70 H           1.5344   -1.2783   -2.1168 H       1  LIG1        0.0310
     71 H           1.9529    0.9394   -1.2912 H       1  LIG1        0.0572
     72 H           4.0993   -1.6032    3.1878 H       1  LIG1        0.0279
     73 H           2.5967   -0.7752    3.4359 H       1  LIG1        0.0279
     74 H           5.2223    0.4992    2.6723 H       1  LIG1        0.0276
     75 H           4.3061    0.6527    4.1518 H       1  LIG1        0.0276
     76 H           2.7331    4.4999    2.6230 H       1  LIG1        0.0268
     77 H           4.3202    5.1457    2.2538 H       1  LIG1        0.0268
     78 H           4.5978    3.2049    3.7155 H       1  LIG1        0.0276
     79 H           5.3017    2.8934    2.1603 H       1  LIG1        0.0276
     80 H           3.2914    6.2627    0.1677 H       1  LIG1        0.0233
     81 H           1.7277    5.5541    0.5718 H       1  LIG1        0.0233
     82 H           2.4505    5.2546   -1.0194 H       1  LIG1        0.0233
     83 H           0.8597    3.4495    1.3428 H       1  LIG1        0.0233
     84 H           0.6244    1.9535    0.4407 H       1  LIG1        0.0233
     85 H           0.6934    3.4740   -0.4147 H       1  LIG1        0.0233
     86 H           2.9497    3.0509    4.6213 H       1  LIG1        0.2951
     87 H           6.1643   -1.7141    0.4727 H       1  LIG1        0.2951
     88 H           1.6113   -4.3094    1.9192 H       1  LIG1        0.0236
     89 H           3.0125   -3.5091    2.5721 H       1  LIG1        0.0236
     90 H           3.0179   -4.0813    0.9012 H       1  LIG1        0.0236
     91 H          -1.0077   -5.0610   -0.6924 H       1  LIG1        0.0235
     92 H           0.0278   -4.9069    0.7077 H       1  LIG1        0.0235
     93 H           0.7060   -4.8969   -0.9189 H       1  LIG1        0.0235
     94 H          -6.1297   -1.3296   -3.1311 H       1  LIG1        0.2101
     95 H          -6.7784    1.6410   -4.2803 H       1  LIG1        0.2100
     96 H          -4.3064    3.7620   -4.5598 H       1  LIG1        0.2100
     97 H          -1.3982    3.4319   -2.7009 H       1  LIG1        0.0584
     98 H          -2.9015    3.9979   -1.9634 H       1  LIG1        0.0584
     99 H          -2.1633    5.1884   -3.8229 H       1  LIG1        0.2095
    100 H          -2.6748   -4.4629    1.7813 H       1  LIG1        0.0236
    101 H          -2.8891   -4.7622    0.0606 H       1  LIG1        0.0236
    102 H          -4.2215   -4.1449    0.9944 H       1  LIG1        0.0236
@<TRIPOS>BOND
     1     2     3    1
     2     3     5    1
     3     5     6    1
     4     6     7    1
     5     7     8    1
     6     8    10    1
     7    10    11    1
     8    11    12    1
     9    12    13    1
    10    13    15    1
    11    15    16    1
    12    16    17    2
    13    17    18    1
    14    18    19    1
    15    19    20    1
    16    20    21    1
    17    21    22    1
    18    17    22    1
    19    22    24    1
    20    24    26    1
    21    26    28    1
    22    28    29    1
    23    29    21    1
    24    32    33    1
    25    32    34    2
    26    12    18    1
    27    35    36    1
    28    35    37    2
    29    13     7    1
    30    41    43    1
    31    43    44    1
    32    44    45    1
    33    44    46    1
    34    46    48    1
    35    48    49    1
    36    48    50    1
    37    41    50    1
    38    48    53    1
    39    44    55    1
    40    55    56    1
    41     8     2    1
    42     1     2    1
    43     2    57    1
    44     7    39    1
    45     8     9    1
    46    12    38    1
    47    13    14    1
    48    18    35    1
    49    21    32    1
    50    22    23    1
    51     3    40    1
    52     3     4    1
    53    24    31    1
    54    24    25    1
    55    26    30    1
    56    26    27    1
    57    41    42    1
    58    41    40    1
    59    46    54    1
    60    46    47    1
    61    50    52    1
    62    50    51    1
    63     1    58    1
    64     1    59    1
    65     1    60    1
    66     5    61    1
    67     5    62    1
    68     6    63    1
    69     6    64    1
    70    10    65    1
    71    10    66    1
    72    11    67    1
    73    11    68    1
    74    15    69    1
    75    15    70    1
    76    16    71    1
    77    19    72    1
    78    19    73    1
    79    20    74    1
    80    20    75    1
    81    28    76    1
    82    28    77    1
    83    29    78    1
    84    29    79    1
    85    30    80    1
    86    30    81    1
    87    30    82    1
    88    31    83    1
    89    31    84    1
    90    31    85    1
    91    33    86    1
    92    36    87    1
    93    38    88    1
    94    38    89    1
    95    38    90    1
    96    39    91    1
    97    39    92    1
    98    39    93    1
    99    52    94    1
   100    53    95    1
   101    54    96    1
   102    55    97    1
   103    55    98    1
   104    56    99    1
   105    57   100    1
   106    57   101    1
   107    57   102    1
