@<TRIPOS>MOLECULE
NuBBE_355
 31 33 0 0 0
SMALL
GASTEIGER

@<TRIPOS>ATOM
      1 O          -4.8025   -1.7165    0.3864 O.3     1  LIG1       -0.5065
      2 C          -3.4464   -1.8408    0.3215 C.ar    1  LIG1        0.1238
      3 C          -2.8227   -3.0779    0.4498 C.ar    1  LIG1        0.0222
      4 C          -1.4285   -3.1542    0.3658 C.ar    1  LIG1        0.1343
      5 O          -0.8314   -4.3773    0.4757 O.3     1  LIG1       -0.5058
      6 C          -0.6620   -1.9969    0.1621 C.ar    1  LIG1        0.1007
      7 C           0.8180   -2.0140    0.0066 C.2     1  LIG1        0.1740
      8 C           1.4564   -0.7127   -0.3930 C.3     1  LIG1        0.0520
      9 C           0.7048    0.4097    0.2993 C.3     1  LIG1        0.1322
     10 H           0.7048    0.2717    1.3907 H       1  LIG1        0.0789
     11 C           1.3456    1.7503   -0.0124 C.ar    1  LIG1       -0.0069
     12 C           1.0473    2.4486   -1.1932 C.ar    1  LIG1       -0.0551
     13 C           1.6679    3.6666   -1.4761 C.ar    1  LIG1       -0.0614
     14 C           2.5989    4.1987   -0.5870 C.ar    1  LIG1       -0.0617
     15 C           2.9112    3.5136    0.5852 C.ar    1  LIG1       -0.0614
     16 C           2.2909    2.2958    0.8707 C.ar    1  LIG1       -0.0551
     17 O          -0.6644    0.4342   -0.1301 O.3     1  LIG1       -0.4828
     18 O           1.4971   -3.0261    0.1395 O.2     1  LIG1       -0.2917
     19 C          -1.3113   -0.7596    0.0600 C.ar    1  LIG1        0.1389
     20 C          -2.7030   -0.6844    0.1234 C.ar    1  LIG1        0.0225
     21 H          -5.2026   -2.5914    0.5200 H       1  LIG1        0.2921
     22 H          -3.4136   -3.9741    0.6054 H       1  LIG1        0.0691
     23 H          -1.4913   -5.0759    0.6044 H       1  LIG1        0.2922
     24 H           1.4102   -0.6355   -1.4856 H       1  LIG1        0.0385
     25 H           2.5077   -0.7240   -0.0837 H       1  LIG1        0.0385
     26 H           0.3238    2.0480   -1.9008 H       1  LIG1        0.0621
     27 H           1.4240    4.1996   -2.3914 H       1  LIG1        0.0618
     28 H           3.0818    5.1468   -0.8084 H       1  LIG1        0.0618
     29 H           3.6401    3.9274    1.2774 H       1  LIG1        0.0618
     30 H           2.5535    1.7749    1.7892 H       1  LIG1        0.0621
     31 H          -3.2042    0.2753    0.0284 H       1  LIG1        0.0691
@<TRIPOS>BOND
     1     1     2    1
     2     2     3   ar
     3     3     4   ar
     4     4     5    1
     5     4     6   ar
     6     6     7    1
     7     7     8    1
     8     8     9    1
     9     9    10    1
    10     9    11    1
    11    11    12   ar
    12    12    13   ar
    13    13    14   ar
    14    14    15   ar
    15    15    16   ar
    16    11    16   ar
    17     9    17    1
    18     7    18    2
    19     6    19   ar
    20    17    19    1
    21    19    20   ar
    22     2    20   ar
    23     1    21    1
    24     3    22    1
    25     5    23    1
    26     8    24    1
    27     8    25    1
    28    12    26    1
    29    13    27    1
    30    14    28    1
    31    15    29    1
    32    16    30    1
    33    20    31    1
