REMARK  Name = NuBBE_1910
REMARK  1 active torsions:
REMARK  status: ('A' for Active; 'I' for Inactive)
REMARK    1  A    between atoms: C_12  and  O_13
REMARK                            x       y       z     vdW  Elec       q    Type
REMARK                         _______ _______ _______ _____ _____    ______ ____
ROOT
ATOM      1  O   LIG A   1      -2.747   0.841   0.009  0.00  0.00    -0.286 OA
ATOM      2  C   LIG A   1      -1.525   0.799   0.008  0.00  0.00    +0.200 A 
ATOM      3  C   LIG A   1      -0.801  -0.478   0.008  0.00  0.00    +0.072 A 
ATOM      4  C   LIG A   1       0.604  -0.456   0.007  0.00  0.00    +0.184 A 
ATOM      5  O   LIG A   1       1.345   0.705   0.008  0.00  0.00    -0.451 OA
ATOM      6  C   LIG A   1       0.675   1.906   0.007  0.00  0.00    +0.139 A 
ATOM      7  C   LIG A   1      -0.713   2.022   0.006  0.00  0.00    +0.065 A 
ATOM      8  C   LIG A   1      -1.328   3.277   0.005  0.00  0.00    +0.015 A 
ATOM      9  C   LIG A   1      -0.544   4.429   0.005  0.00  0.00    +0.001 A 
ATOM     10  C   LIG A   1       0.848   4.322   0.006  0.00  0.00    +0.004 A 
ATOM     11  C   LIG A   1       1.458   3.063   0.007  0.00  0.00    +0.047 A 
ATOM     12  C   LIG A   1       1.309  -1.665   0.003  0.00  0.00    +0.206 A 
ATOM     13  C   LIG A   1       0.594  -2.848  -0.001  0.00  0.00    +0.211 A 
ATOM     14  C   LIG A   1      -0.782  -2.849   0.002  0.00  0.00    +0.171 A 
ATOM     15  O   LIG A   1      -1.304  -4.104  -0.004  0.00  0.00    -0.452 OA
ATOM     16  C   LIG A   1      -0.102  -4.899  -0.026  0.00  0.00    +0.467 C 
ATOM     17  O   LIG A   1       1.104  -4.111  -0.007  0.00  0.00    -0.449 OA
ATOM     18  C   LIG A   1      -1.514  -1.683   0.007  0.00  0.00    +0.065 A 
ENDROOT
BRANCH  12  19
ATOM     19  O   LIG A   1       2.673  -1.696   0.002  0.00  0.00    -0.501 OA
ATOM     20  H   LIG A   1       2.990  -0.776   0.005  0.00  0.00    +0.292 HD
ENDBRANCH  12  19
TORSDOF 1
