REMARK  Name = NuBBE_1745
REMARK  3 active torsions:
REMARK  status: ('A' for Active; 'I' for Inactive)
REMARK    1  A    between atoms: C_1  and  C_2
REMARK    2  A    between atoms: C_4  and  C_5
REMARK    3  A    between atoms: C_4  and  C_6
REMARK                            x       y       z     vdW  Elec       q    Type
REMARK                         _______ _______ _______ _____ _____    ______ ____
ROOT
ATOM      1  C   LIG A   1      -2.778   0.259   0.057  0.00  0.00    +0.041 C 
ATOM      2  C   LIG A   1      -1.256   0.359   0.078  0.00  0.00    +0.068 C 
ATOM      3  O   LIG A   1      -0.730  -0.953  -0.206  0.00  0.00    -0.367 OA
ATOM      4  C   LIG A   1       0.713  -1.006  -0.218  0.00  0.00    +0.068 C 
ATOM      5  C   LIG A   1       1.139  -2.049   0.827  0.00  0.00    +0.041 C 
ATOM      6  C   LIG A   1       1.138  -1.524  -1.600  0.00  0.00    +0.041 C 
ATOM      7  C   LIG A   1       1.301   0.404   0.087  0.00  0.00    +0.021 C 
ATOM      8  C   LIG A   1       0.779   0.892   1.452  0.00  0.00    +0.009 C 
ATOM      9  C   LIG A   1      -0.750   0.796   1.466  0.00  0.00    +0.035 C 
ATOM     10  C   LIG A   1       0.778   1.412  -0.955  0.00  0.00    +0.009 C 
ATOM     11  C   LIG A   1      -0.751   1.331  -1.006  0.00  0.00    +0.035 C 
ENDROOT
TORSDOF 0
