@<TRIPOS>MOLECULE
NuBBE_1970
 57 61 0 0 0
SMALL
GASTEIGER

@<TRIPOS>ATOM
      1 O          -3.0745    0.4797   -0.5335 O.3     1  LIG1       -0.5063
      2 C          -1.7199    0.4790   -0.4026 C.ar    1  LIG1        0.1248
      3 C          -0.9782   -0.6752   -0.2336 C.ar    1  LIG1        0.0469
      4 C          -1.3924   -2.0987   -0.0732 C.3     1  LIG1        0.0576
      5 H          -2.1274   -2.3625   -0.8428 H       1  LIG1        0.0439
      6 C          -0.0172   -2.7952   -0.3338 C.3     1  LIG1        0.1395
      7 H           0.1476   -3.6240    0.3679 H       1  LIG1        0.0795
      8 O           1.0335   -1.8157   -0.0616 O.3     1  LIG1       -0.4827
      9 C           0.4055   -0.5953   -0.1546 C.ar    1  LIG1        0.1293
     10 C           1.0807    0.6097   -0.1754 C.ar    1  LIG1       -0.0122
     11 C           0.3351    1.7841   -0.3323 C.ar    1  LIG1       -0.0181
     12 C          -1.0661    1.7108   -0.4574 C.ar    1  LIG1       -0.0125
     13 C           1.0194    3.0774   -0.3778 C.2     1  LIG1       -0.0538
     14 C           1.2331    3.8059    0.7341 C.2     1  LIG1       -0.0540
     15 C           1.9597    5.0757    0.6887 C.ar    1  LIG1       -0.0248
     16 C           3.3490    5.0935    0.8659 C.ar    1  LIG1       -0.0511
     17 C           4.0489    6.3007    0.8364 C.ar    1  LIG1       -0.0196
     18 C           3.3564    7.4895    0.6252 C.ar    1  LIG1        0.1169
     19 C           1.9775    7.4839    0.4387 C.ar    1  LIG1       -0.0196
     20 C           1.2780    6.2772    0.4675 C.ar    1  LIG1       -0.0511
     21 O           3.9979    8.6915    0.5942 O.3     1  LIG1       -0.5068
     22 C           0.1027   -3.4025   -1.7342 C.ar    1  LIG1        0.0352
     23 C           1.0863   -3.0642   -2.6769 C.ar    1  LIG1        0.1270
     24 O           2.1232   -2.2143   -2.4127 O.3     1  LIG1       -0.5063
     25 C           1.0855   -3.6088   -3.9633 C.ar    1  LIG1        0.0217
     26 C           0.1260   -4.5501   -4.3078 C.ar    1  LIG1        0.1203
     27 C          -0.8263   -4.9546   -3.3849 C.ar    1  LIG1       -0.0196
     28 C          -0.8368   -4.3874   -2.1079 C.ar    1  LIG1       -0.0481
     29 O           0.0968   -5.1181   -5.5465 O.3     1  LIG1       -0.5066
     30 C          -1.9681   -2.4022    1.3060 C.ar    1  LIG1       -0.0290
     31 C          -1.2210   -2.2116    2.4849 C.ar    1  LIG1       -0.0161
     32 C          -1.7789   -2.5029    3.7294 C.ar    1  LIG1        0.1206
     33 O          -1.0704   -2.3275    4.8821 O.3     1  LIG1       -0.5066
     34 C          -3.0755   -2.9851    3.8379 C.ar    1  LIG1        0.0213
     35 C          -3.8176   -3.1735    2.6791 C.ar    1  LIG1        0.1206
     36 C          -3.2812   -2.8861    1.4240 C.ar    1  LIG1       -0.0161
     37 O          -5.0947   -3.6508    2.7272 O.3     1  LIG1       -0.5066
     38 H          -3.4099   -0.4279   -0.4581 H       1  LIG1        0.2921
     39 H           2.1614    0.6396   -0.0868 H       1  LIG1        0.0660
     40 H          -1.6508    2.6175   -0.5963 H       1  LIG1        0.0660
     41 H           1.3619    3.4046   -1.3525 H       1  LIG1        0.0624
     42 H           0.8933    3.4773    1.7088 H       1  LIG1        0.0624
     43 H           3.8912    4.1653    1.0318 H       1  LIG1        0.0625
     44 H           5.1255    6.2957    0.9805 H       1  LIG1        0.0654
     45 H           1.4503    8.4198    0.2736 H       1  LIG1        0.0654
     46 H           0.2004    6.2811    0.3221 H       1  LIG1        0.0625
     47 H           4.9464    8.5417    0.7403 H       1  LIG1        0.2921
     48 H           2.1321   -2.0380   -1.4531 H       1  LIG1        0.2921
     49 H           1.8473   -3.2949   -4.6699 H       1  LIG1        0.0691
     50 H          -1.5598   -5.7083   -3.6581 H       1  LIG1        0.0654
     51 H          -1.5947   -4.7258   -1.4031 H       1  LIG1        0.0624
     52 H           0.8236   -4.7445   -6.0727 H       1  LIG1        0.2921
     53 H          -0.2039   -1.8325    2.4313 H       1  LIG1        0.0657
     54 H          -0.2025   -1.9490    4.6634 H       1  LIG1        0.2921
     55 H          -3.4829   -3.2022    4.8196 H       1  LIG1        0.0691
     56 H          -3.9012   -3.0503    0.5458 H       1  LIG1        0.0657
     57 H          -5.3241   -3.8212    3.6570 H       1  LIG1        0.2921
@<TRIPOS>BOND
     1     1     2    1
     2     2     3   ar
     3     3     4    1
     4     4     5    1
     5     4     6    1
     6     6     8    1
     7     8     9    1
     8     3     9   ar
     9     9    10   ar
    10    10    11   ar
    11    11    12   ar
    12     2    12   ar
    13    11    13    1
    14    13    14    2
    15    14    15    1
    16    15    16   ar
    17    16    17   ar
    18    17    18   ar
    19    18    19   ar
    20    19    20   ar
    21    15    20   ar
    22    18    21    1
    23    22    23   ar
    24    23    24    1
    25    23    25   ar
    26    25    26   ar
    27    26    27   ar
    28    27    28   ar
    29    22    28   ar
    30    26    29    1
    31     4    30    1
    32    30    31   ar
    33    31    32   ar
    34    32    33    1
    35    32    34   ar
    36    34    35   ar
    37    35    36   ar
    38    30    36   ar
    39    35    37    1
    40     6    22    1
    41     6     7    1
    42     1    38    1
    43    10    39    1
    44    12    40    1
    45    13    41    1
    46    14    42    1
    47    16    43    1
    48    17    44    1
    49    19    45    1
    50    20    46    1
    51    21    47    1
    52    24    48    1
    53    25    49    1
    54    27    50    1
    55    28    51    1
    56    29    52    1
    57    31    53    1
    58    33    54    1
    59    34    55    1
    60    36    56    1
    61    37    57    1
