@<TRIPOS>MOLECULE
NuBBE_1141
 48 53 0 0 0
SMALL
GASTEIGER

@<TRIPOS>ATOM
      1 C          -1.9667   -1.3270   -1.6714 C.3     1  LIG1        0.0013
      2 N          -0.8697   -0.8606   -0.8455 N.pl3   1  LIG1       -0.3245
      3 C          -0.3378   -1.8393    0.1388 C.3     1  LIG1        0.0557
      4 H          -0.6189   -2.8526   -0.1787 H       1  LIG1        0.0554
      5 C           1.1756   -1.7683    0.1220 C.ar    1  LIG1       -0.0153
      6 C           1.9599   -2.9303    0.2460 C.ar    1  LIG1       -0.0106
      7 C           3.3275   -2.7865    0.2248 C.ar    1  LIG1        0.1666
      8 C           3.9176   -1.5558    0.0848 C.ar    1  LIG1        0.1668
      9 C           3.1748   -0.3996   -0.0420 C.ar    1  LIG1       -0.0081
     10 C           1.7704   -0.4904   -0.0165 C.ar    1  LIG1       -0.0075
     11 C           0.8696    0.6770   -0.1713 C.ar    1  LIG1        0.0042
     12 C          -0.4684    0.4819   -0.6712 C.ar    1  LIG1        0.0457
     13 C          -1.2933    1.6487   -0.9187 C.ar    1  LIG1        0.0074
     14 C          -0.7717    2.9395   -0.5528 C.ar    1  LIG1       -0.0124
     15 C           0.4979    3.0663    0.0017 C.ar    1  LIG1       -0.0532
     16 C           1.3109    1.9588    0.1780 C.ar    1  LIG1       -0.0517
     17 C          -1.5080    4.1251   -0.7246 C.ar    1  LIG1       -0.0084
     18 C          -2.7573    4.0527   -1.2829 C.ar    1  LIG1        0.1668
     19 C          -3.2902    2.8541   -1.6537 C.ar    1  LIG1        0.1669
     20 O          -4.5305    2.9833   -2.1980 O.3     1  LIG1       -0.4526
     21 C          -4.7010    4.4153   -2.1420 C.3     1  LIG1        0.2332
     22 O          -3.5868    5.0984   -1.5319 O.3     1  LIG1       -0.4526
     23 C          -2.6058    1.6658   -1.4749 C.ar    1  LIG1       -0.0066
     24 O           5.2761   -1.6283    0.0799 O.3     1  LIG1       -0.4526
     25 C           5.4716   -3.0499    0.2303 C.3     1  LIG1        0.2332
     26 O           4.2375   -3.7907    0.3270 O.3     1  LIG1       -0.4526
     27 C          -0.9440   -1.5753    1.5249 C.3     1  LIG1        0.0282
     28 C          -0.4247   -2.5589    2.5435 C.2     1  LIG1        0.1324
     29 C           0.3667   -1.9924    3.6955 C.3     1  LIG1       -0.0060
     30 O          -0.6402   -3.7631    2.4399 O.2     1  LIG1       -0.2976
     31 H          -1.8620   -2.3954   -1.8947 H       1  LIG1        0.0428
     32 H          -1.9789   -0.8259   -2.6442 H       1  LIG1        0.0428
     33 H          -2.9238   -1.2104   -1.1535 H       1  LIG1        0.0428
     34 H           1.5111   -3.9133    0.3519 H       1  LIG1        0.0659
     35 H           3.6899    0.5433   -0.1852 H       1  LIG1        0.0661
     36 H           0.8845    4.0407    0.2955 H       1  LIG1        0.0624
     37 H           2.2957    2.1145    0.6105 H       1  LIG1        0.0624
     38 H          -1.1111    5.0932   -0.4346 H       1  LIG1        0.0661
     39 H          -5.6075    4.6381   -1.5680 H       1  LIG1        0.1166
     40 H          -4.8277    4.7957   -3.1625 H       1  LIG1        0.1166
     41 H          -3.1213    0.7756   -1.7926 H       1  LIG1        0.0662
     42 H           6.0590   -3.2280    1.1384 H       1  LIG1        0.1166
     43 H           6.0377   -3.4193   -0.6326 H       1  LIG1        0.1166
     44 H          -2.0360   -1.6689    1.4949 H       1  LIG1        0.0363
     45 H          -0.7337   -0.5614    1.8834 H       1  LIG1        0.0363
     46 H           0.7698   -2.8072    4.3031 H       1  LIG1        0.0306
     47 H          -0.2859   -1.3726    4.3146 H       1  LIG1        0.0306
     48 H           1.1993   -1.3964    3.3146 H       1  LIG1        0.0306
@<TRIPOS>BOND
     1     1     2    1
     2     2     3    1
     3     3     4    1
     4     3     5    1
     5     5     6   ar
     6     6     7   ar
     7     7     8   ar
     8     8     9   ar
     9     9    10   ar
    10     5    10   ar
    11    10    11    1
    12    11    12   ar
    13     2    12    1
    14    12    13   ar
    15    13    14   ar
    16    14    15   ar
    17    15    16   ar
    18    11    16   ar
    19    14    17   ar
    20    17    18   ar
    21    18    19   ar
    22    19    20    1
    23    20    21    1
    24    21    22    1
    25    18    22    1
    26    19    23   ar
    27    13    23   ar
    28     8    24    1
    29    24    25    1
    30    25    26    1
    31     7    26    1
    32     3    27    1
    33    27    28    1
    34    28    29    1
    35    28    30    2
    36     1    31    1
    37     1    32    1
    38     1    33    1
    39     6    34    1
    40     9    35    1
    41    15    36    1
    42    16    37    1
    43    17    38    1
    44    21    39    1
    45    21    40    1
    46    23    41    1
    47    25    42    1
    48    25    43    1
    49    27    44    1
    50    27    45    1
    51    29    46    1
    52    29    47    1
    53    29    48    1
