@<TRIPOS>MOLECULE
NuBBE_2254
 14 14 0 0 0
SMALL
GASTEIGER

@<TRIPOS>ATOM
      1 C          -2.3440   -0.0097    0.1768 C.2     1  LIG1        0.1502
      2 O          -2.9915   -1.0456    0.2629 O.2     1  LIG1       -0.2957
      3 C          -0.8716   -0.0069    0.0659 C.ar    1  LIG1        0.0142
      4 C          -0.1938    1.2121   -0.0265 C.ar    1  LIG1       -0.0515
      5 C           1.1983    1.2201   -0.1315 C.ar    1  LIG1       -0.0611
      6 C           1.9057    0.0167   -0.1441 C.ar    1  LIG1       -0.0617
      7 C           1.2257   -1.1986   -0.0518 C.ar    1  LIG1       -0.0611
      8 C          -0.1654   -1.2130    0.0535 C.ar    1  LIG1       -0.0515
      9 H          -2.8385    0.9761    0.1786 H       1  LIG1        0.1081
     10 H          -0.7330    2.1555   -0.0178 H       1  LIG1        0.0624
     11 H           1.7341    2.1636   -0.2037 H       1  LIG1        0.0618
     12 H           2.9902    0.0252   -0.2260 H       1  LIG1        0.0618
     13 H           1.7786   -2.1347   -0.0618 H       1  LIG1        0.0618
     14 H          -0.6947   -2.1609    0.1255 H       1  LIG1        0.0624
@<TRIPOS>BOND
     1     1     2    2
     2     1     3    1
     3     3     4   ar
     4     4     5   ar
     5     5     6   ar
     6     6     7   ar
     7     7     8   ar
     8     3     8   ar
     9     1     9    1
    10     4    10    1
    11     5    11    1
    12     6    12    1
    13     7    13    1
    14     8    14    1
