REMARK  Name = NuBBE_1036
REMARK  13 active torsions:
REMARK  status: ('A' for Active; 'I' for Inactive)
REMARK    1  A    between atoms: C_1  and  C_2
REMARK    2  A    between atoms: C_5  and  O_6
REMARK    3  A    between atoms: O_6  and  C_7
REMARK    4  A    between atoms: C_7  and  C_8
REMARK    5  A    between atoms: C_10  and  C_11
REMARK    6  A    between atoms: C_10  and  C_12
REMARK    7  A    between atoms: C_17  and  C_42
REMARK    8  A    between atoms: C_22  and  C_40
REMARK    9  A    between atoms: C_25  and  C_36
REMARK   10  A    between atoms: C_27  and  C_34
REMARK   11  A    between atoms: C_29  and  C_30
REMARK   12  A    between atoms: C_36  and  O_37
REMARK   13  A    between atoms: O_37  and  C_38
REMARK                            x       y       z     vdW  Elec       q    Type
REMARK                         _______ _______ _______ _____ _____    ______ ____
ROOT
ATOM      1  C   LIG A   1      -0.391  -1.877  -0.823  0.00  0.00    +0.012 C 
ATOM      2  C   LIG A   1      -0.142  -1.097  -2.130  0.00  0.00    -0.025 C 
ATOM      3  C   LIG A   1       0.682  -2.030  -3.073  0.00  0.00    +0.011 C 
ATOM      4  C   LIG A   1      -0.065  -3.209  -3.704  0.00  0.00    +0.046 C 
ATOM      5  C   LIG A   1      -1.561  -3.337  -3.408  0.00  0.00    +0.182 C 
ATOM      6  C   LIG A   1      -2.326  -1.972  -3.392  0.00  0.00    +0.005 C 
ATOM      7  C   LIG A   1      -2.739  -1.685  -4.866  0.00  0.00    +0.015 C 
ATOM      8  C   LIG A   1      -3.647  -2.107  -2.596  0.00  0.00    +0.015 C 
ATOM      9  C   LIG A   1      -1.435  -0.746  -2.932  0.00  0.00    +0.004 C 
ATOM     10  C   LIG A   1      -2.235   0.411  -2.314  0.00  0.00    +0.005 C 
ATOM     11  C   LIG A   1      -1.403   1.681  -2.133  0.00  0.00    +0.008 C 
ATOM     12  C   LIG A   1      -0.054   1.529  -1.374  0.00  0.00    -0.019 C 
ATOM     13  C   LIG A   1       0.693   0.244  -1.912  0.00  0.00    +0.006 C 
ATOM     14  C   LIG A   1       2.033   0.060  -1.183  0.00  0.00    +0.031 C 
ATOM     15  C   LIG A   1       1.967   0.249   0.293  0.00  0.00    -0.026 C 
ATOM     16  C   LIG A   1       1.008   0.904   0.975  0.00  0.00    -0.063 C 
ATOM     17  C   LIG A   1      -0.193   1.586   0.253  0.00  0.00    -0.005 C 
ATOM     18  C   LIG A   1      -0.265   3.066   0.769  0.00  0.00    +0.012 C 
ATOM     19  C   LIG A   1      -0.248   3.219   2.301  0.00  0.00    +0.019 C 
ATOM     20  C   LIG A   1       0.910   2.453   3.020  0.00  0.00    +0.074 C 
ATOM     21  C   LIG A   1       1.005   0.998   2.514  0.00  0.00    +0.035 C 
ATOM     22  C   LIG A   1       1.965   0.095   3.364  0.00  0.00    -0.003 C 
ATOM     23  C   LIG A   1       1.551   0.108   4.867  0.00  0.00    -0.011 C 
ATOM     24  C   LIG A   1       0.266  -0.690   5.134  0.00  0.00    +0.008 C 
ATOM     25  C   LIG A   1       1.427   1.544   5.403  0.00  0.00    +0.004 C 
ATOM     26  C   LIG A   1       0.530   2.436   4.543  0.00  0.00    +0.019 C 
ATOM     27  C   LIG A   1       3.470   0.400   3.278  0.00  0.00    +0.008 C 
ATOM     28  C   LIG A   1      -1.531   0.948   0.726  0.00  0.00    +0.016 C 
ATOM     29  C   LIG A   1       0.806   2.753  -1.865  0.00  0.00    +0.012 C 
ENDROOT
BRANCH  20  30
ATOM     30  C   LIG A   1       2.198   3.326   2.863  0.00  0.00    +0.314 C 
ATOM     31  O   LIG A   1       2.720   3.978   3.747  0.00  0.00    -0.250 OA
BRANCH  30  32
ATOM     32  O   LIG A   1       2.551   3.367   1.539  0.00  0.00    -0.468 OA
ATOM     33  C   LIG A   1       3.356   4.486   1.167  0.00  0.00    +0.280 C 
ENDBRANCH  30  32
ENDBRANCH  20  30
BRANCH   5  34
ATOM     34  O   LIG A   1      -1.798  -4.096  -2.197  0.00  0.00    -0.461 OA
BRANCH  34  35
ATOM     35  C   LIG A   1      -1.715  -5.448  -2.332  0.00  0.00    +0.304 C 
ATOM     36  C   LIG A   1      -2.287  -6.167  -1.152  0.00  0.00    +0.136 C 
ATOM     37  O   LIG A   1      -1.249  -6.039  -3.311  0.00  0.00    -0.251 OA
ENDBRANCH  34  35
ENDBRANCH   5  34
TORSDOF 4
