@<TRIPOS>MOLECULE
NuBBE_1183
 60 65 0 0 0
SMALL
GASTEIGER

@<TRIPOS>ATOM
      1 C          -1.3091   -0.6457    0.9072 C.3     1  LIG1       -0.0563
      2 C          -1.4412   -0.4395   -0.6083 C.3     1  LIG1        0.0072
      3 C          -1.4186    1.0408   -0.9529 C.3     1  LIG1        0.1120
      4 C          -2.4890    1.2864   -1.9740 C.3     1  LIG1        0.0902
      5 H          -2.3830    1.9866   -2.7861 H       1  LIG1        0.0625
      6 C          -3.1941    0.0042   -2.2816 C.3     1  LIG1       -0.0162
      7 C          -2.9021   -0.9025   -1.0588 C.3     1  LIG1        0.0013
      8 H          -3.6033   -0.5795   -0.2726 H       1  LIG1        0.0358
      9 C          -3.2006   -2.3551   -1.2782 C.2     1  LIG1        0.0423
     10 C          -2.5340   -3.4722   -0.9870 C.2     1  LIG1       -0.0063
     11 C          -3.2670   -4.6707   -1.4191 C.3     1  LIG1        0.2232
     12 O          -4.4537   -4.1746   -1.9993 O.3     1  LIG1       -0.4283
     13 C          -4.4560   -2.8181   -1.9015 C.2     1  LIG1        0.3377
     14 O          -5.3682   -2.1019   -2.2675 O.2     1  LIG1       -0.2452
     15 O          -2.4862   -5.3443   -2.3793 O.3     1  LIG1       -0.3545
     16 O          -2.6125    1.7735   -0.6362 O.3     1  LIG1       -0.3634
     17 C          -0.1418    1.8370   -1.0324 C.3     1  LIG1        0.0610
     18 H          -0.2005    2.3940   -1.9826 H       1  LIG1        0.0414
     19 C           1.1269    0.9895   -1.1689 C.3     1  LIG1       -0.0156
     20 C           2.0951    0.8138    0.0917 C.3     1  LIG1        0.0156
     21 C           1.7825    1.7655    1.2872 C.2     1  LIG1       -0.0018
     22 C           2.5486    1.4810    2.6346 C.3     1  LIG1        0.0528
     23 C           4.0572    1.7937    2.5417 C.3     1  LIG1       -0.0488
     24 C           2.3878   -0.0179    2.9715 C.2     1  LIG1        0.1655
     25 C           2.3007   -0.9997    1.8685 C.2     1  LIG1       -0.0214
     26 C           2.1977   -0.6175    0.5909 C.2     1  LIG1       -0.0704
     27 O           2.4238   -0.4697    4.1167 O.2     1  LIG1       -0.2918
     28 C           2.0393    2.2417    3.8889 C.3     1  LIG1       -0.0488
     29 C           0.8562    2.7423    1.1757 C.2     1  LIG1        0.1606
     30 O           0.6358    3.6848    2.1613 O.2     1  LIG1       -0.5034
     31 C          -0.0086    2.9288   -0.0166 C.2     1  LIG1        0.2033
     32 O          -0.6415    3.9871   -0.0842 O.2     1  LIG1       -0.2884
     33 C           3.5140    1.1275   -0.4797 C.3     1  LIG1       -0.0519
     34 H           1.7236    1.5932   -1.8742 H       1  LIG1        0.0320
     35 C           0.7888   -0.2731   -1.9833 C.3     1  LIG1       -0.0478
     36 C          -0.3171   -1.1640   -1.3993 C.3     1  LIG1       -0.0440
     37 H          -0.4167   -0.1655    1.3056 H       1  LIG1        0.0236
     38 H          -1.2736   -1.7070    1.1711 H       1  LIG1        0.0236
     39 H          -2.1542   -0.1986    1.4438 H       1  LIG1        0.0236
     40 H          -2.7939   -0.4292   -3.2053 H       1  LIG1        0.0297
     41 H          -4.2651    0.1837   -2.4141 H       1  LIG1        0.0297
     42 H          -1.5734   -3.5366   -0.5026 H       1  LIG1        0.0638
     43 H          -3.4987   -5.3367   -0.5819 H       1  LIG1        0.1105
     44 H          -2.9891   -6.1466   -2.5979 H       1  LIG1        0.2139
     45 H           4.4895    1.9921    3.5306 H       1  LIG1        0.0242
     46 H           4.2479    2.6802    1.9273 H       1  LIG1        0.0242
     47 H           4.6366    0.9529    2.1501 H       1  LIG1        0.0242
     48 H           2.3810   -2.0422    2.1564 H       1  LIG1        0.0650
     49 H           2.2657   -1.4139   -0.1456 H       1  LIG1        0.0582
     50 H           2.5435    1.8989    4.8020 H       1  LIG1        0.0242
     51 H           0.9678    2.0820    4.0543 H       1  LIG1        0.0242
     52 H           2.2481    3.3156    3.8258 H       1  LIG1        0.0242
     53 H          -0.0427    4.2947    1.7934 H       1  LIG1        0.2923
     54 H           3.6542    2.2050   -0.6262 H       1  LIG1        0.0241
     55 H           3.6684    0.6388   -1.4511 H       1  LIG1        0.0241
     56 H           4.3300    0.7617    0.1462 H       1  LIG1        0.0241
     57 H           1.6855   -0.8669   -2.1942 H       1  LIG1        0.0269
     58 H           0.4443    0.0591   -2.9742 H       1  LIG1        0.0269
     59 H           0.1336   -1.9401   -0.7712 H       1  LIG1        0.0272
     60 H          -0.7385   -1.7070   -2.2543 H       1  LIG1        0.0272
@<TRIPOS>BOND
     1     1     2    1
     2     2     3    1
     3     3     4    1
     4     4     5    1
     5     4     6    1
     6     6     7    1
     7     2     7    1
     8     9    10    2
     9    10    11    1
    10    11    12    1
    11    12    13    1
    12     9    13    1
    13    13    14    2
    14    11    15    1
    15     4    16    1
    16     3    16    1
    17     3    17    1
    18    17    18    1
    19    17    19    1
    20    19    20    1
    21    20    21    1
    22    21    22    1
    23    22    23    1
    24    22    24    1
    25    24    25    1
    26    25    26    2
    27    24    27    2
    28    22    28    1
    29    21    29    2
    30    29    30    1
    31    29    31    1
    32    17    31    1
    33    31    32    2
    34    26    20    1
    35    20    33    1
    36    19    34    1
    37    19    35    1
    38    35    36    1
    39     2    36    1
    40     7     9    1
    41     7     8    1
    42     1    37    1
    43     1    38    1
    44     1    39    1
    45     6    40    1
    46     6    41    1
    47    10    42    1
    48    11    43    1
    49    15    44    1
    50    23    45    1
    51    23    46    1
    52    23    47    1
    53    25    48    1
    54    26    49    1
    55    28    50    1
    56    28    51    1
    57    28    52    1
    58    30    53    1
    59    33    54    1
    60    33    55    1
    61    33    56    1
    62    35    57    1
    63    35    58    1
    64    36    59    1
    65    36    60    1
