REMARK  Name = NuBBE_2215
REMARK  5 active torsions:
REMARK  status: ('A' for Active; 'I' for Inactive)
REMARK    1  A    between atoms: O_1  and  C_2
REMARK    2  A    between atoms: C_5  and  C_10
REMARK    3  A    between atoms: C_6  and  O_8
REMARK    4  A    between atoms: O_8  and  C_9
REMARK    5  A    between atoms: C_12  and  C_17
REMARK                            x       y       z     vdW  Elec       q    Type
REMARK                         _______ _______ _______ _____ _____    ______ ____
ROOT
ATOM      1  C   LIG A   1      -1.836  -0.696   0.327  0.00  0.00    +0.135 A 
ATOM      2  C   LIG A   1      -1.170   0.532   0.400  0.00  0.00    +0.104 A 
ATOM      3  C   LIG A   1       0.236   0.564   0.384  0.00  0.00    -0.020 A 
ATOM      4  C   LIG A   1       0.968  -0.648   0.332  0.00  0.00    -0.004 A 
ATOM      5  C   LIG A   1       0.275  -1.874   0.219  0.00  0.00    +0.127 A 
ATOM      6  C   LIG A   1      -1.122  -1.887   0.222  0.00  0.00    +0.092 A 
ATOM      7  C   LIG A   1       2.478  -0.631   0.347  0.00  0.00    +0.048 C 
ATOM      8  C   LIG A   1       0.911   1.908   0.481  0.00  0.00    +0.080 C 
ATOM      9  C   LIG A   1       0.044   2.991  -0.152  0.00  0.00    +0.178 C 
ATOM     10  O   LIG A   1      -1.291   2.962   0.384  0.00  0.00    -0.458 OA
ATOM     11  C   LIG A   1      -1.954   1.788   0.519  0.00  0.00    +0.343 C 
ATOM     12  O   LIG A   1      -3.160   1.744   0.741  0.00  0.00    -0.245 OA
ATOM     13  C   LIG A   1      -0.008   2.932  -1.677  0.00  0.00    +0.052 C 
ENDROOT
BRANCH   1  14
ATOM     14  O   LIG A   1      -3.201  -0.818   0.350  0.00  0.00    -0.506 OA
ATOM     15  H   LIG A   1      -3.593   0.068   0.520  0.00  0.00    +0.292 HD
ENDBRANCH   1  14
BRANCH   5  16
ATOM     16  O   LIG A   1       1.054  -2.998   0.113  0.00  0.00    -0.495 OA
ATOM     17  C   LIG A   1       0.393  -4.250  -0.020  0.00  0.00    +0.277 C 
ENDBRANCH   5  16
TORSDOF 2
