REMARK  Name = NuBBE_2280
REMARK  5 active torsions:
REMARK  status: ('A' for Active; 'I' for Inactive)
REMARK    1  A    between atoms: O_1  and  C_2
REMARK    2  A    between atoms: C_7  and  C_8
REMARK    3  A    between atoms: C_11  and  O_12
REMARK    4  A    between atoms: C_22  and  C_23
REMARK    5  A    between atoms: C_22  and  C_24
REMARK                            x       y       z     vdW  Elec       q    Type
REMARK                         _______ _______ _______ _____ _____    ______ ____
ROOT
ATOM      1  C   LIG A   1      -0.913   1.150   0.161  0.00  0.00    +0.142 A 
ATOM      2  C   LIG A   1      -0.226  -0.071   0.068  0.00  0.00    +0.107 A 
ATOM      3  C   LIG A   1       1.159  -0.079  -0.068  0.00  0.00    +0.145 A 
ATOM      4  O   LIG A   1       1.893  -1.234  -0.167  0.00  0.00    -0.462 OA
ATOM      5  C   LIG A   1       1.216  -2.428  -0.131  0.00  0.00    +0.208 A 
ATOM      6  C   LIG A   1      -0.109  -2.598   0.004  0.00  0.00    +0.064 A 
ATOM      7  C   LIG A   1      -0.934  -1.363   0.107  0.00  0.00    +0.204 A 
ATOM      8  O   LIG A   1      -2.156  -1.380   0.222  0.00  0.00    -0.286 OA
ATOM      9  C   LIG A   1       1.865   1.121  -0.112  0.00  0.00    +0.093 A 
ATOM     10  C   LIG A   1       1.185   2.337  -0.022  0.00  0.00    +0.136 A 
ATOM     11  C   LIG A   1      -0.208   2.364   0.115  0.00  0.00    +0.059 A 
ATOM     12  C   LIG A   1      -0.882   3.652   0.208  0.00  0.00    +0.015 C 
ATOM     13  C   LIG A   1      -0.144   4.764   0.142  0.00  0.00    +0.020 C 
ATOM     14  C   LIG A   1       1.356   4.755  -0.022  0.00  0.00    +0.123 C 
ATOM     15  C   LIG A   1       1.728   5.464  -1.329  0.00  0.00    +0.060 C 
ATOM     16  C   LIG A   1       1.999   5.486   1.163  0.00  0.00    +0.060 C 
ATOM     17  O   LIG A   1       1.973   3.452  -0.075  0.00  0.00    -0.481 OA
ENDROOT
BRANCH   6  18
ATOM     18  C   LIG A   1      -0.699  -3.950   0.012  0.00  0.00    -0.011 A 
ATOM     19  C   LIG A   1      -1.797  -4.253  -0.809  0.00  0.00    +0.012 A 
ATOM     20  C   LIG A   1      -2.360  -5.532  -0.811  0.00  0.00    +0.046 A 
ATOM     21  C   LIG A   1      -1.825  -6.516   0.011  0.00  0.00    +0.117 A 
ATOM     22  C   LIG A   1      -0.742  -6.240   0.835  0.00  0.00    +0.046 A 
ATOM     23  C   LIG A   1      -0.181  -4.960   0.839  0.00  0.00    +0.012 A 
BRANCH  21  24
ATOM     24  O   LIG A   1      -2.341  -7.777   0.042  0.00  0.00    -0.507 OA
ATOM     25  H   LIG A   1      -3.108  -7.812  -0.554  0.00  0.00    +0.292 HD
ENDBRANCH  21  24
ENDBRANCH   6  18
BRANCH   1  26
ATOM     26  O   LIG A   1      -2.282   1.196   0.296  0.00  0.00    -0.505 OA
ATOM     27  H   LIG A   1      -2.624   0.273   0.321  0.00  0.00    +0.292 HD
ENDBRANCH   1  26
TORSDOF 3
