@<TRIPOS>MOLECULE
NuBBE_1694
 53 56 0 0 0
SMALL
GASTEIGER

@<TRIPOS>ATOM
      1 C          -2.6073    0.0843   -2.2601 C.3     1  LIG1        0.0791
      2 O          -1.5244    0.0732   -1.3385 O.3     1  LIG1       -0.4885
      3 C          -1.1316   -1.1164   -0.7633 C.ar    1  LIG1        0.2058
      4 C          -1.6204   -2.4092   -1.0604 C.ar    1  LIG1        0.1775
      5 O          -2.6191   -2.5241   -1.9852 O.3     1  LIG1       -0.4777
      6 C          -3.0839   -3.8094   -2.4331 C.3     1  LIG1        0.1237
      7 C          -2.6923   -3.9274   -3.9111 C.3     1  LIG1       -0.0215
      8 C          -4.6105   -3.7544   -2.3078 C.3     1  LIG1       -0.0215
      9 C          -2.5484   -4.9873   -1.6657 C.2     1  LIG1       -0.0408
     10 C          -1.6117   -4.8695   -0.7230 C.2     1  LIG1       -0.0477
     11 C          -1.0843   -3.5403   -0.4101 C.ar    1  LIG1        0.0625
     12 C          -0.0659   -3.3781    0.5319 C.ar    1  LIG1        0.1420
     13 O           0.4505   -4.4969    1.1488 O.3     1  LIG1       -0.5052
     14 C           0.4160   -2.1009    0.8427 C.ar    1  LIG1        0.1097
     15 C          -0.1089   -0.9684    0.1946 C.ar    1  LIG1        0.1879
     16 O           0.3414    0.3002    0.4821 O.2     1  LIG1       -0.4507
     17 C           1.3462    0.4818    1.4124 C.ar    1  LIG1        0.1396
     18 C           1.8173    1.8748    1.5889 C.ar    1  LIG1        0.0245
     19 C           2.3567    2.3398    2.8074 C.ar    1  LIG1       -0.0054
     20 C           2.9100    3.6192    2.9336 C.ar    1  LIG1        0.1656
     21 O           3.4784    3.8690    4.1547 O.3     1  LIG1       -0.4913
     22 C           3.3693    5.2047    4.6346 C.3     1  LIG1        0.0790
     23 C           2.9287    4.4522    1.8163 C.ar    1  LIG1        0.2010
     24 O           3.5693    5.6639    1.8359 O.3     1  LIG1       -0.5009
     25 C           2.3356    4.0446    0.6108 C.ar    1  LIG1        0.1656
     26 O           2.4406    4.9385   -0.4290 O.3     1  LIG1       -0.4913
     27 C           1.3745    4.9046   -1.3747 C.3     1  LIG1        0.0790
     28 C           1.7862    2.7643    0.5004 C.ar    1  LIG1       -0.0054
     29 C           1.9365   -0.5242    2.0661 C.ar    1  LIG1        0.0288
     30 C           1.4790   -1.8932    1.8165 C.ar    1  LIG1        0.1968
     31 O           1.9788   -2.8465    2.4137 O.2     1  LIG1       -0.2869
     32 H          -2.7752    1.1231   -2.5730 H       1  LIG1        0.0660
     33 H          -3.5284   -0.2649   -1.7811 H       1  LIG1        0.0660
     34 H          -2.3712   -0.4798   -3.1711 H       1  LIG1        0.0660
     35 H          -3.0633   -3.0668   -4.4806 H       1  LIG1        0.0271
     36 H          -3.0862   -4.8401   -4.3718 H       1  LIG1        0.0271
     37 H          -1.6021   -3.9250   -4.0300 H       1  LIG1        0.0271
     38 H          -5.0109   -2.8943   -2.8581 H       1  LIG1        0.0271
     39 H          -4.9099   -3.6128   -1.2623 H       1  LIG1        0.0271
     40 H          -5.0933   -4.6611   -2.6877 H       1  LIG1        0.0271
     41 H          -2.9395   -5.9736   -1.9050 H       1  LIG1        0.0611
     42 H          -1.2294   -5.7339   -0.1886 H       1  LIG1        0.0624
     43 H           1.1456   -4.2218    1.7851 H       1  LIG1        0.2922
     44 H           2.3751    1.6941    3.6842 H       1  LIG1        0.0662
     45 H           3.6883    5.2010    5.6842 H       1  LIG1        0.0660
     46 H           2.3311    5.5560    4.6040 H       1  LIG1        0.0660
     47 H           4.0421    5.8878    4.1091 H       1  LIG1        0.0660
     48 H           3.5598    5.9750    0.9055 H       1  LIG1        0.2924
     49 H           1.5718    5.6822   -2.1210 H       1  LIG1        0.0660
     50 H           0.4198    5.1352   -0.8885 H       1  LIG1        0.0660
     51 H           1.3250    3.9516   -1.9108 H       1  LIG1        0.0660
     52 H           1.3911    2.4143   -0.4462 H       1  LIG1        0.0662
     53 H           2.7531   -0.4149    2.7742 H       1  LIG1        0.0693
@<TRIPOS>BOND
     1     1     2    1
     2     2     3    1
     3     3     4   ar
     4     4     5    1
     5     5     6    1
     6     6     7    1
     7     6     8    1
     8     6     9    1
     9     9    10    2
    10     4    11   ar
    11    10    11    1
    12    11    12   ar
    13    12    13    1
    14    12    14   ar
    15    14    15   ar
    16     3    15   ar
    17    15    16   ar
    18    16    17   ar
    19    17    18    1
    20    18    19   ar
    21    19    20   ar
    22    20    21    1
    23    21    22    1
    24    20    23   ar
    25    23    24    1
    26    23    25   ar
    27    25    26    1
    28    26    27    1
    29    25    28   ar
    30    18    28   ar
    31    17    29   ar
    32    29    30   ar
    33    14    30   ar
    34    30    31    2
    35     1    32    1
    36     1    33    1
    37     1    34    1
    38     7    35    1
    39     7    36    1
    40     7    37    1
    41     8    38    1
    42     8    39    1
    43     8    40    1
    44     9    41    1
    45    10    42    1
    46    13    43    1
    47    19    44    1
    48    22    45    1
    49    22    46    1
    50    22    47    1
    51    24    48    1
    52    27    49    1
    53    27    50    1
    54    27    51    1
    55    28    52    1
    56    29    53    1
