REMARK  Name = NuBBE_2174
REMARK  10 active torsions:
REMARK  status: ('A' for Active; 'I' for Inactive)
REMARK    1  A    between atoms: C_6  and  O_7
REMARK    2  A    between atoms: O_7  and  C_8
REMARK    3  A    between atoms: C_8  and  C_9
REMARK    4  A    between atoms: C_10  and  C_11
REMARK    5  A    between atoms: C_10  and  C_12
REMARK    6  A    between atoms: C_17  and  C_18
REMARK    7  A    between atoms: C_20  and  O_21
REMARK    8  A    between atoms: O_21  and  C_22
REMARK    9  A    between atoms: C_23  and  O_24
REMARK   10  A    between atoms: O_24  and  C_25
REMARK                            x       y       z     vdW  Elec       q    Type
REMARK                         _______ _______ _______ _____ _____    ______ ____
ROOT
ATOM      1  O   LIG A   1      -2.044   1.141   0.460  0.00  0.00    -0.286 OA
ATOM      2  C   LIG A   1      -0.848   0.917   0.350  0.00  0.00    +0.200 A 
ATOM      3  C   LIG A   1      -0.365  -0.405  -0.103  0.00  0.00    +0.065 A 
ATOM      4  C   LIG A   1      -1.275  -1.407  -0.434  0.00  0.00    +0.019 A 
ATOM      5  C   LIG A   1      -0.813  -2.652  -0.869  0.00  0.00    +0.046 A 
ATOM      6  C   LIG A   1       0.555  -2.893  -0.999  0.00  0.00    +0.124 A 
ATOM      7  C   LIG A   1       1.465  -1.878  -0.659  0.00  0.00    +0.092 A 
ATOM      8  C   LIG A   1       1.000  -0.640  -0.203  0.00  0.00    +0.142 A 
ATOM      9  O   LIG A   1       1.933   0.314   0.136  0.00  0.00    -0.462 OA
ATOM     10  C   LIG A   1       1.472   1.546   0.550  0.00  0.00    +0.208 A 
ATOM     11  C   LIG A   1       0.191   1.932   0.666  0.00  0.00    +0.064 A 
ENDROOT
BRANCH  11  12
ATOM     12  C   LIG A   1      -0.174   3.289   1.116  0.00  0.00    -0.008 A 
ATOM     13  C   LIG A   1      -0.351   4.339   0.202  0.00  0.00    +0.058 A 
ATOM     14  C   LIG A   1      -0.724   5.631   0.626  0.00  0.00    +0.162 A 
ATOM     15  C   LIG A   1      -0.891   5.890   1.997  0.00  0.00    +0.162 A 
ATOM     16  C   LIG A   1      -0.722   4.838   2.907  0.00  0.00    +0.050 A 
ATOM     17  C   LIG A   1      -0.362   3.555   2.474  0.00  0.00    +0.012 A 
BRANCH  14  18
ATOM     18  O   LIG A   1      -0.785   6.546  -0.397  0.00  0.00    -0.491 OA
ATOM     19  C   LIG A   1      -1.739   7.597  -0.290  0.00  0.00    +0.277 C 
ENDBRANCH  14  18
BRANCH  15  20
ATOM     20  O   LIG A   1      -1.242   7.152   2.397  0.00  0.00    -0.491 OA
ATOM     21  C   LIG A   1      -0.799   7.573   3.682  0.00  0.00    +0.277 C 
ENDBRANCH  15  20
ENDBRANCH  11  12
BRANCH   6  22
ATOM     22  O   LIG A   1       1.113  -4.055  -1.473  0.00  0.00    -0.488 OA
BRANCH  22  23
ATOM     23  C   LIG A   1       0.238  -5.176  -1.605  0.00  0.00    +0.256 C 
BRANCH  23  24
ATOM     24  C   LIG A   1       0.910  -6.204  -2.461  0.00  0.00    +0.012 C 
ATOM     25  C   LIG A   1       1.181  -7.487  -2.153  0.00  0.00    -0.076 C 
ATOM     26  C   LIG A   1       0.921  -8.122  -0.816  0.00  0.00    +0.038 C 
ATOM     27  C   LIG A   1       1.777  -8.412  -3.180  0.00  0.00    +0.038 C 
ENDBRANCH  23  24
ENDBRANCH  22  23
ENDBRANCH   6  22
TORSDOF 6
