@<TRIPOS>MOLECULE
NuBBE_1745
 29 30 0 0 0
SMALL
GASTEIGER

@<TRIPOS>ATOM
      1 C          -2.7782    0.2589    0.0570 C.3     1  LIG1       -0.0358
      2 C          -1.2565    0.3590    0.0781 C.3     1  LIG1        0.0675
      3 O          -0.7297   -0.9534   -0.2061 O.3     1  LIG1       -0.3675
      4 C           0.7130   -1.0057   -0.2178 C.3     1  LIG1        0.0675
      5 C           1.1388   -2.0486    0.8268 C.3     1  LIG1       -0.0358
      6 C           1.1381   -1.5238   -1.6002 C.3     1  LIG1       -0.0358
      7 C           1.3006    0.4036    0.0867 C.3     1  LIG1       -0.0122
      8 C           0.7794    0.8917    1.4522 C.3     1  LIG1       -0.0450
      9 C          -0.7505    0.7962    1.4661 C.3     1  LIG1       -0.0236
     10 C           0.7785    1.4121   -0.9546 C.3     1  LIG1       -0.0450
     11 C          -0.7514    1.3309   -1.0055 C.3     1  LIG1       -0.0236
     12 H          -3.1310   -0.4673    0.7980 H       1  LIG1        0.0257
     13 H          -3.1317   -0.0962   -0.9177 H       1  LIG1        0.0257
     14 H          -3.2490    1.2249    0.2662 H       1  LIG1        0.0257
     15 H           0.7673   -3.0442    0.5562 H       1  LIG1        0.0257
     16 H           0.7121   -1.8392    1.8126 H       1  LIG1        0.0257
     17 H           2.2286   -2.1018    0.9177 H       1  LIG1        0.0257
     18 H           0.7667   -2.5423   -1.7649 H       1  LIG1        0.0257
     19 H           2.2277   -1.5345   -1.7056 H       1  LIG1        0.0257
     20 H           0.7107   -0.9259   -2.4112 H       1  LIG1        0.0257
     21 H           2.3963    0.3899    0.0836 H       1  LIG1        0.0328
     22 H           1.0894    1.9289    1.6300 H       1  LIG1        0.0270
     23 H           1.2062    0.3081    2.2750 H       1  LIG1        0.0270
     24 H          -1.1823    1.7606    1.7585 H       1  LIG1        0.0293
     25 H          -1.0506    0.0618    2.2240 H       1  LIG1        0.0293
     26 H           1.2044    1.2206   -1.9454 H       1  LIG1        0.0270
     27 H           1.0887    2.4303   -0.6884 H       1  LIG1        0.0270
     28 H          -1.0524    0.9756   -1.9989 H       1  LIG1        0.0293
     29 H          -1.1832    2.3299   -0.8725 H       1  LIG1        0.0293
@<TRIPOS>BOND
     1     1     2    1
     2     2     3    1
     3     3     4    1
     4     4     5    1
     5     4     6    1
     6     4     7    1
     7     7     8    1
     8     8     9    1
     9     2     9    1
    10     7    10    1
    11    10    11    1
    12     2    11    1
    13     1    12    1
    14     1    13    1
    15     1    14    1
    16     5    15    1
    17     5    16    1
    18     5    17    1
    19     6    18    1
    20     6    19    1
    21     6    20    1
    22     7    21    1
    23     8    22    1
    24     8    23    1
    25     9    24    1
    26     9    25    1
    27    10    26    1
    28    10    27    1
    29    11    28    1
    30    11    29    1
