REMARK  Name = NuBBE_1227
REMARK  16 active torsions:
REMARK  status: ('A' for Active; 'I' for Inactive)
REMARK    1  A    between atoms: C_1  and  C_2
REMARK    2  A    between atoms: C_3  and  O_39
REMARK    3  A    between atoms: C_10  and  O_12
REMARK    4  A    between atoms: C_13  and  O_15
REMARK    5  A    between atoms: C_17  and  C_18
REMARK    6  A    between atoms: C_25  and  C_27
REMARK    7  A    between atoms: C_27  and  C_28
REMARK    8  A    between atoms: C_27  and  O_37
REMARK    9  A    between atoms: C_27  and  C_38
REMARK   10  A    between atoms: C_28  and  O_30
REMARK   11  A    between atoms: C_28  and  C_31
REMARK   12  A    between atoms: C_31  and  C_32
REMARK   13  A    between atoms: C_32  and  C_33
REMARK   14  A    between atoms: C_33  and  C_34
REMARK   15  A    between atoms: C_33  and  C_35
REMARK   16  A    between atoms: C_33  and  O_36
REMARK                            x       y       z     vdW  Elec       q    Type
REMARK                         _______ _______ _______ _____ _____    ______ ____
ROOT
ATOM      1  C   LIG A   1      -3.310  -0.217  -1.681  0.00  0.00    +0.014 C 
ATOM      2  C   LIG A   1      -1.779  -0.188  -1.316  0.00  0.00    +0.006 C 
ATOM      3  C   LIG A   1      -1.018   0.857  -2.190  0.00  0.00    +0.093 C 
ATOM      4  C   LIG A   1       0.499   0.655  -2.257  0.00  0.00    -0.031 C 
ATOM      5  C   LIG A   1       1.384   1.660  -2.111  0.00  0.00    +0.049 C 
ATOM      6  C   LIG A   1       2.823   1.499  -2.441  0.00  0.00    +0.160 C 
ATOM      7  C   LIG A   1       3.227   0.232  -3.175  0.00  0.00    +0.069 C 
ATOM      8  C   LIG A   1       4.749   0.077  -3.260  0.00  0.00    +0.045 C 
ATOM      9  C   LIG A   1       5.132  -1.163  -4.066  0.00  0.00    +0.144 C 
ATOM     10  C   LIG A   1       4.418  -2.443  -3.599  0.00  0.00    +0.144 C 
ATOM     11  C   LIG A   1       2.913  -2.251  -3.386  0.00  0.00    +0.042 C 
ATOM     12  C   LIG A   1       2.528  -0.994  -2.544  0.00  0.00    -0.013 C 
ATOM     13  C   LIG A   1       3.011  -1.192  -1.078  0.00  0.00    +0.012 C 
ATOM     14  C   LIG A   1       0.954  -0.764  -2.619  0.00  0.00    +0.025 C 
ATOM     15  C   LIG A   1       0.206  -1.810  -1.776  0.00  0.00    +0.009 C 
ATOM     16  C   LIG A   1      -1.298  -1.609  -1.654  0.00  0.00    +0.011 C 
ATOM     17  O   LIG A   1       3.590   2.432  -2.236  0.00  0.00    -0.292 OA
ATOM     18  C   LIG A   1      -1.537   2.176  -1.606  0.00  0.00    +0.040 C 
ATOM     19  C   LIG A   1      -1.611   1.946  -0.098  0.00  0.00    +0.010 C 
ATOM     20  C   LIG A   1      -1.724   0.406   0.162  0.00  0.00    +0.032 C 
ENDROOT
BRANCH   9  21
ATOM     21  O   LIG A   1       6.545  -1.381  -3.966  0.00  0.00    -0.389 OA
ATOM     22  H   LIG A   1       6.985  -0.531  -4.148  0.00  0.00    +0.210 HD
ENDBRANCH   9  21
BRANCH  10  23
ATOM     23  O   LIG A   1       5.022  -2.920  -2.394  0.00  0.00    -0.389 OA
ATOM     24  H   LIG A   1       5.982  -2.776  -2.526  0.00  0.00    +0.210 HD
ENDBRANCH  10  23
BRANCH  20  25
ATOM     25  C   LIG A   1      -0.720  -0.061   1.271  0.00  0.00    +0.092 C 
ATOM     26  C   LIG A   1      -0.796  -1.565   1.582  0.00  0.00    +0.044 C 
BRANCH  25  27
ATOM     27  O   LIG A   1       0.607   0.223   0.812  0.00  0.00    -0.386 OA
ATOM     28  H   LIG A   1       1.174   0.143   1.607  0.00  0.00    +0.210 HD
ENDBRANCH  25  27
BRANCH  25  29
ATOM     29  C   LIG A   1      -0.873   0.724   2.645  0.00  0.00    +0.146 C 
BRANCH  29  30
ATOM     30  O   LIG A   1       0.259   0.346   3.459  0.00  0.00    -0.389 OA
ATOM     31  H   LIG A   1       0.271   0.912   4.249  0.00  0.00    +0.210 HD
ENDBRANCH  29  30
BRANCH  29  32
ATOM     32  C   LIG A   1      -2.181   0.457   3.422  0.00  0.00    +0.037 C 
BRANCH  32  33
ATOM     33  C   LIG A   1      -2.275   1.242   4.748  0.00  0.00    +0.036 C 
BRANCH  33  34
ATOM     34  C   LIG A   1      -3.569   1.002   5.561  0.00  0.00    +0.061 C 
ATOM     35  C   LIG A   1      -3.535   1.824   6.856  0.00  0.00    +0.041 C 
ATOM     36  C   LIG A   1      -4.834   1.342   4.774  0.00  0.00    +0.041 C 
BRANCH  34  37
ATOM     37  O   LIG A   1      -3.651  -0.380   5.916  0.00  0.00    -0.389 OA
ATOM     38  H   LIG A   1      -2.858  -0.613   6.429  0.00  0.00    +0.210 HD
ENDBRANCH  34  37
ENDBRANCH  33  34
ENDBRANCH  32  33
ENDBRANCH  29  32
ENDBRANCH  25  29
ENDBRANCH  20  25
BRANCH   3  39
ATOM     39  O   LIG A   1      -1.456   0.768  -3.551  0.00  0.00    -0.384 OA
ATOM     40  H   LIG A   1      -1.076   1.526  -4.025  0.00  0.00    +0.211 HD
ENDBRANCH   3  39
TORSDOF 11
