REMARK  Name = NuBBE_595
REMARK  4 active torsions:
REMARK  status: ('A' for Active; 'I' for Inactive)
REMARK    1  A    between atoms: C_1  and  C_2
REMARK    2  A    between atoms: C_5  and  O_7
REMARK    3  A    between atoms: C_11  and  O_12
REMARK    4  A    between atoms: C_13  and  O_14
REMARK                            x       y       z     vdW  Elec       q    Type
REMARK                         _______ _______ _______ _____ _____    ______ ____
ROOT
ATOM      1  C   LIG A   1      -1.944  -0.887  -1.942  0.00  0.00    +0.055 C 
ATOM      2  C   LIG A   1      -2.246  -0.724  -0.451  0.00  0.00    +0.206 C 
ATOM      3  O   LIG A   1      -1.712  -1.848   0.266  0.00  0.00    -0.455 OA
ATOM      4  C   LIG A   1      -1.773   0.589   0.179  0.00  0.00    +0.186 C 
ATOM      5  C   LIG A   1      -0.281   0.565   0.398  0.00  0.00    +0.002 A 
ATOM      6  C   LIG A   1       0.427   1.772   0.572  0.00  0.00    +0.011 A 
ATOM      7  C   LIG A   1       1.804   1.769   0.788  0.00  0.00    +0.049 A 
ATOM      8  C   LIG A   1       2.470   0.554   0.837  0.00  0.00    +0.159 A 
ATOM      9  C   LIG A   1       1.781  -0.655   0.695  0.00  0.00    +0.173 A 
ATOM     10  C   LIG A   1       0.396  -0.670   0.492  0.00  0.00    +0.110 A 
ATOM     11  C   LIG A   1      -0.362  -1.964   0.424  0.00  0.00    +0.344 C 
ATOM     12  O   LIG A   1       0.142  -3.065   0.557  0.00  0.00    -0.245 OA
ENDROOT
BRANCH   4  13
ATOM     13  O   LIG A   1      -2.166   1.699  -0.627  0.00  0.00    -0.384 OA
ATOM     14  H   LIG A   1      -1.539   1.768  -1.368  0.00  0.00    +0.210 HD
ENDBRANCH   4  13
BRANCH   8  15
ATOM     15  O   LIG A   1       3.823   0.489   1.039  0.00  0.00    -0.503 OA
ATOM     16  H   LIG A   1       4.167   1.394   1.138  0.00  0.00    +0.292 HD
ENDBRANCH   8  15
BRANCH   9  17
ATOM     17  O   LIG A   1       2.522  -1.803   0.765  0.00  0.00    -0.503 OA
ATOM     18  H   LIG A   1       3.443  -1.519   0.927  0.00  0.00    +0.292 HD
ENDBRANCH   9  17
TORSDOF 3
