@<TRIPOS>MOLECULE
NuBBE_1543
 39 39 0 0 0
SMALL
GASTEIGER

@<TRIPOS>ATOM
      1 C          -4.2631    0.7338    2.9635 C.3     1  LIG1       -0.0440
      2 C          -3.7174   -0.1657    1.8852 C.2     1  LIG1       -0.0793
      3 C          -4.7590   -0.7145    0.9494 C.3     1  LIG1       -0.0440
      4 C          -2.3942   -0.4087    1.7952 C.2     1  LIG1       -0.0815
      5 C          -1.6773   -1.2742    0.7941 C.3     1  LIG1       -0.0161
      6 C          -1.2568   -0.4813   -0.4136 C.2     1  LIG1       -0.0810
      7 C          -0.0178   -0.2961   -0.9234 C.2     1  LIG1       -0.0729
      8 C           1.2461   -0.9322   -0.3297 C.3     1  LIG1       -0.0164
      9 C           1.9363   -0.0421    0.7171 C.3     1  LIG1       -0.0426
     10 C           2.7612    1.1020    0.1208 C.3     1  LIG1       -0.0315
     11 C           3.5268    0.7249   -1.1243 C.2     1  LIG1       -0.0765
     12 C           4.5384    1.7286   -1.6016 C.3     1  LIG1       -0.0438
     13 C           3.3115   -0.4301   -1.7719 C.2     1  LIG1       -0.0845
     14 C           2.2787   -1.4429   -1.3617 C.3     1  LIG1       -0.0280
     15 C           0.1288    0.5601   -2.1610 C.3     1  LIG1       -0.0435
     16 H          -5.0182    0.2040    3.5539 H       1  LIG1        0.0274
     17 H          -4.7279    1.6196    2.5187 H       1  LIG1        0.0274
     18 H          -3.4850    1.0736    3.6549 H       1  LIG1        0.0274
     19 H          -5.6124   -1.1042    1.5147 H       1  LIG1        0.0274
     20 H          -4.3907   -1.5311    0.3244 H       1  LIG1        0.0274
     21 H          -5.1208    0.0799    0.2882 H       1  LIG1        0.0274
     22 H          -1.7298    0.0662    2.5170 H       1  LIG1        0.0575
     23 H          -2.3055   -2.1102    0.4701 H       1  LIG1        0.0350
     24 H          -0.8274   -1.7310    1.3090 H       1  LIG1        0.0350
     25 H          -2.0965   -0.0077   -0.9246 H       1  LIG1        0.0575
     26 H           0.9220   -1.8396    0.1957 H       1  LIG1        0.0349
     27 H           2.6123   -0.6765    1.3079 H       1  LIG1        0.0274
     28 H           1.2083    0.3645    1.4300 H       1  LIG1        0.0274
     29 H           3.4654    1.4464    0.8884 H       1  LIG1        0.0310
     30 H           2.1071    1.9512   -0.1066 H       1  LIG1        0.0310
     31 H           5.2571    1.9561   -0.8082 H       1  LIG1        0.0274
     32 H           4.0382    2.6565   -1.8959 H       1  LIG1        0.0274
     33 H           5.1035    1.3632   -2.4657 H       1  LIG1        0.0274
     34 H           3.8924   -0.6761   -2.6594 H       1  LIG1        0.0572
     35 H           2.8180   -2.2953   -0.9290 H       1  LIG1        0.0313
     36 H           1.7680   -1.8300   -2.2514 H       1  LIG1        0.0313
     37 H          -0.8388    0.9182   -2.5315 H       1  LIG1        0.0274
     38 H           0.5816   -0.0038   -2.9814 H       1  LIG1        0.0274
     39 H           0.7368    1.4445   -1.9575 H       1  LIG1        0.0274
@<TRIPOS>BOND
     1     1     2    1
     2     2     3    1
     3     2     4    2
     4     4     5    1
     5     5     6    1
     6     6     7    2
     7     7     8    1
     8     8     9    1
     9     9    10    1
    10    10    11    1
    11    11    12    1
    12    11    13    2
    13    13    14    1
    14     8    14    1
    15     7    15    1
    16     1    16    1
    17     1    17    1
    18     1    18    1
    19     3    19    1
    20     3    20    1
    21     3    21    1
    22     4    22    1
    23     5    23    1
    24     5    24    1
    25     6    25    1
    26     8    26    1
    27     9    27    1
    28     9    28    1
    29    10    29    1
    30    10    30    1
    31    12    31    1
    32    12    32    1
    33    12    33    1
    34    13    34    1
    35    14    35    1
    36    14    36    1
    37    15    37    1
    38    15    38    1
    39    15    39    1
