@<TRIPOS>MOLECULE
NuBBE_135
 24 24 0 0 0
SMALL
GASTEIGER

@<TRIPOS>ATOM
      1 O          -1.9569   -3.3818    3.3931 O.3     1  LIG1       -0.4775
      2 C          -1.4771   -2.1333    3.2750 C.2     1  LIG1        0.3296
      3 C          -0.9648   -1.9228    1.9158 C.2     1  LIG1        0.0229
      4 C          -0.4082   -0.7497    1.5783 C.2     1  LIG1       -0.0477
      5 C           0.1309   -0.4548    0.2409 C.ar    1  LIG1       -0.0211
      6 C           0.1167    0.8740   -0.2217 C.ar    1  LIG1       -0.0092
      7 C           0.6269    1.1920   -1.4832 C.ar    1  LIG1        0.1618
      8 O           0.6570    2.4372   -2.0578 O.3     1  LIG1       -0.4914
      9 C           0.1161    3.5078   -1.2925 C.3     1  LIG1        0.0790
     10 C           1.1664    0.1695   -2.2705 C.ar    1  LIG1        0.1585
     11 C           1.2106   -1.1430   -1.8255 C.ar    1  LIG1       -0.0160
     12 C           0.6992   -1.4527   -0.5662 C.ar    1  LIG1       -0.0509
     13 O           1.6736    0.4462   -3.5108 O.3     1  LIG1       -0.5033
     14 O          -1.4878   -1.3407    4.1947 O.2     1  LIG1       -0.2458
     15 H          -2.2671   -3.4296    4.3211 H       1  LIG1        0.2954
     16 H          -1.0699   -2.7502    1.2257 H       1  LIG1        0.0689
     17 H          -0.3522    0.0563    2.3089 H       1  LIG1        0.0626
     18 H          -0.3078    1.6424    0.4167 H       1  LIG1        0.0661
     19 H           0.1815    4.4167   -1.8983 H       1  LIG1        0.0660
     20 H           0.6995    3.6708   -0.3804 H       1  LIG1        0.0660
     21 H          -0.9410    3.3379   -1.0631 H       1  LIG1        0.0660
     22 H           1.6425   -1.9179   -2.4514 H       1  LIG1        0.0655
     23 H           0.7607   -2.4830   -0.2253 H       1  LIG1        0.0625
     24 H           1.5510    1.4088   -3.6235 H       1  LIG1        0.2923
@<TRIPOS>BOND
     1     1     2    1
     2     2     3    1
     3     3     4    2
     4     4     5    1
     5     5     6   ar
     6     6     7   ar
     7     7     8    1
     8     8     9    1
     9     7    10   ar
    10    10    11   ar
    11    11    12   ar
    12     5    12   ar
    13    10    13    1
    14     2    14    2
    15     1    15    1
    16     3    16    1
    17     4    17    1
    18     6    18    1
    19     9    19    1
    20     9    20    1
    21     9    21    1
    22    11    22    1
    23    12    23    1
    24    13    24    1
