REMARK  Name = NuBBE_2449
REMARK  4 active torsions:
REMARK  status: ('A' for Active; 'I' for Inactive)
REMARK    1  A    between atoms: O_1  and  C_2
REMARK    2  A    between atoms: C_3  and  C_14
REMARK    3  A    between atoms: C_11  and  O_13
REMARK    4  A    between atoms: C_17  and  O_20
REMARK                            x       y       z     vdW  Elec       q    Type
REMARK                         _______ _______ _______ _____ _____    ______ ____
ROOT
ATOM      1  C   LIG A   1      -1.261  -1.187   0.128  0.00  0.00    +0.208 A 
ATOM      2  C   LIG A   1      -0.617  -0.007   0.056  0.00  0.00    +0.181 A 
ATOM      3  O   LIG A   1       0.766   0.119  -0.019  0.00  0.00    -0.451 OA
ATOM      4  C   LIG A   1       1.536  -1.015   0.001  0.00  0.00    +0.143 A 
ATOM      5  C   LIG A   1       0.997  -2.295   0.080  0.00  0.00    +0.068 A 
ATOM      6  C   LIG A   1      -0.461  -2.436   0.144  0.00  0.00    +0.234 A 
ATOM      7  O   LIG A   1      -1.026  -3.523   0.205  0.00  0.00    -0.283 OA
ATOM      8  C   LIG A   1       1.828  -3.420   0.095  0.00  0.00    +0.019 A 
ATOM      9  C   LIG A   1       3.213  -3.254   0.030  0.00  0.00    +0.046 A 
ATOM     10  C   LIG A   1       3.745  -1.969  -0.049  0.00  0.00    +0.120 A 
ATOM     11  C   LIG A   1       2.918  -0.848  -0.064  0.00  0.00    +0.092 A 
ENDROOT
BRANCH   2  12
ATOM     12  C   LIG A   1      -1.315   1.297   0.022  0.00  0.00    +0.021 A 
ATOM     13  C   LIG A   1      -0.924   2.273  -0.910  0.00  0.00    +0.015 A 
ATOM     14  C   LIG A   1      -1.549   3.524  -0.945  0.00  0.00    +0.046 A 
ATOM     15  C   LIG A   1      -2.565   3.805  -0.039  0.00  0.00    +0.117 A 
ATOM     16  C   LIG A   1      -2.962   2.861   0.898  0.00  0.00    +0.046 A 
ATOM     17  C   LIG A   1      -2.337   1.611   0.931  0.00  0.00    +0.015 A 
BRANCH  15  18
ATOM     18  O   LIG A   1      -3.201   5.011  -0.036  0.00  0.00    -0.507 OA
ATOM     19  H   LIG A   1      -2.828   5.560  -0.745  0.00  0.00    +0.292 HD
ENDBRANCH  15  18
ENDBRANCH   2  12
BRANCH   1  20
ATOM     20  O   LIG A   1      -2.636  -1.326   0.173  0.00  0.00    -0.501 OA
ATOM     21  H   LIG A   1      -2.792  -2.295   0.197  0.00  0.00    +0.292 HD
ENDBRANCH   1  20
BRANCH  10  22
ATOM     22  O   LIG A   1       5.090  -1.762  -0.114  0.00  0.00    -0.507 OA
ATOM     23  H   LIG A   1       5.545  -2.620  -0.088  0.00  0.00    +0.292 HD
ENDBRANCH  10  22
TORSDOF 4
