@<TRIPOS>MOLECULE
NuBBE_835
 55 57 0 0 0
SMALL
GASTEIGER

@<TRIPOS>ATOM
      1 O          -2.7041    3.5661   -3.1574 O.2     1  LIG1       -0.2448
      2 C          -1.7854    2.7901   -3.0334 C.2     1  LIG1        0.3443
      3 O          -1.0504    2.3159   -4.0849 O.3     1  LIG1       -0.4418
      4 C           0.0241    1.5351   -3.5939 C.3     1  LIG1        0.2000
      5 C          -0.1421    1.5973   -2.1209 C.2     1  LIG1        0.0312
      6 C           0.7425    0.7195   -1.3949 C.2     1  LIG1        0.0269
      7 C           1.5115    1.1081   -0.3615 C.2     1  LIG1        0.1006
      8 O           2.3640    0.2597    0.3295 O.2     1  LIG1       -0.4629
      9 C           2.2419   -1.1081    0.0968 C.2     1  LIG1        0.1279
     10 C           2.9002   -1.9326    1.0768 C.2     1  LIG1       -0.0230
     11 C           2.2421   -2.8119    1.8509 C.2     1  LIG1       -0.0777
     12 C           2.8760   -3.6945    2.8995 C.3     1  LIG1       -0.0256
     13 H           2.0770   -4.3196    3.3212 H       1  LIG1        0.0340
     14 C           3.9028   -4.6387    2.2659 C.3     1  LIG1       -0.0590
     15 C           3.5189   -2.9036    4.0536 C.3     1  LIG1       -0.0499
     16 C           2.5370   -2.0236    4.8169 C.3     1  LIG1       -0.0648
     17 C           1.5548   -1.6052   -0.9479 C.2     1  LIG1       -0.0100
     18 C           0.9268   -0.6651   -1.8687 C.2     1  LIG1        0.0108
     19 C           0.4924   -0.9989   -3.1037 C.2     1  LIG1        0.0956
     20 CL          0.5881   -2.6032   -3.7483 Cl      1  LIG1       -0.0791
     21 C          -1.2535    2.2553   -1.7689 C.2     1  LIG1        0.1097
     22 C          -1.8983    2.3226   -0.4281 C.2     1  LIG1        0.1756
     23 C          -3.3945    2.6378   -0.3114 C.3     1  LIG1        0.0452
     24 H          -3.7853    2.8749   -1.2996 H       1  LIG1        0.0403
     25 C          -3.5881    3.8747    0.5684 C.3     1  LIG1       -0.0530
     26 C          -4.1667    1.4049    0.1954 C.3     1  LIG1        0.0620
     27 H          -3.8255    1.1029    1.1925 H       1  LIG1        0.0597
     28 O          -3.9039    0.3186   -0.7017 O.3     1  LIG1       -0.3914
     29 C          -5.6826    1.6189    0.2238 C.3     1  LIG1       -0.0383
     30 O          -1.2237    2.0908    0.5811 O.2     1  LIG1       -0.2914
     31 C           1.3237    2.1670   -4.0976 C.3     1  LIG1       -0.0130
     32 C          -0.0835    0.0512   -4.0291 C.2     1  LIG1        0.2224
     33 O          -0.6014   -0.2689   -5.0993 O.2     1  LIG1       -0.2864
     34 H           1.5566    2.1050    0.0571 H       1  LIG1        0.1036
     35 H           3.9719   -1.7849    1.1830 H       1  LIG1        0.0651
     36 H           1.1602   -2.8988    1.7545 H       1  LIG1        0.0576
     37 H           3.4395   -5.2589    1.4903 H       1  LIG1        0.0235
     38 H           4.3286   -5.3094    3.0195 H       1  LIG1        0.0235
     39 H           4.7310   -4.0877    1.8063 H       1  LIG1        0.0235
     40 H           4.3383   -2.2801    3.6758 H       1  LIG1        0.0268
     41 H           3.9668   -3.6093    4.7646 H       1  LIG1        0.0268
     42 H           2.0436   -1.2978    4.1639 H       1  LIG1        0.0230
     43 H           3.0674   -1.4634    5.5938 H       1  LIG1        0.0230
     44 H           1.7670   -2.6298    5.3045 H       1  LIG1        0.0230
     45 H           1.4655   -2.6754   -1.0991 H       1  LIG1        0.0661
     46 H          -2.9512    4.6980    0.2264 H       1  LIG1        0.0237
     47 H          -3.3397    3.6790    1.6177 H       1  LIG1        0.0237
     48 H          -4.6237    4.2273    0.5268 H       1  LIG1        0.0237
     49 H          -4.3832   -0.4590   -0.3606 H       1  LIG1        0.2098
     50 H          -6.1965    0.6954    0.5151 H       1  LIG1        0.0255
     51 H          -6.0624    1.8799   -0.7711 H       1  LIG1        0.0255
     52 H          -5.9766    2.4014    0.9286 H       1  LIG1        0.0255
     53 H           1.4383    3.1879   -3.7119 H       1  LIG1        0.0276
     54 H           1.3110    2.2499   -5.1906 H       1  LIG1        0.0276
     55 H           2.2130    1.5930   -3.8159 H       1  LIG1        0.0276
@<TRIPOS>BOND
     1     1     2    2
     2     2     3    1
     3     3     4    1
     4     4     5    1
     5     5     6    1
     6     6     7    2
     7     7     8    1
     8     8     9    1
     9     9    10    1
    10    10    11    2
    11    11    12    1
    12    12    13    1
    13    12    14    1
    14    12    15    1
    15    15    16    1
    16     9    17    2
    17    17    18    1
    18     6    18    1
    19    18    19    2
    20    19    20    1
    21     5    21    2
    22     2    21    1
    23    21    22    1
    24    23    25    1
    25    26    28    1
    26    26    29    1
    27    22    30    2
    28     4    31    1
    29     4    32    1
    30    19    32    1
    31    32    33    2
    32    23    24    1
    33    23    22    1
    34    26    27    1
    35    26    23    1
    36     7    34    1
    37    10    35    1
    38    11    36    1
    39    14    37    1
    40    14    38    1
    41    14    39    1
    42    15    40    1
    43    15    41    1
    44    16    42    1
    45    16    43    1
    46    16    44    1
    47    17    45    1
    48    25    46    1
    49    25    47    1
    50    25    48    1
    51    28    49    1
    52    29    50    1
    53    29    51    1
    54    29    52    1
    55    31    53    1
    56    31    54    1
    57    31    55    1
