REMARK  Name = NuBBE_1234
REMARK  13 active torsions:
REMARK  status: ('A' for Active; 'I' for Inactive)
REMARK    1  A    between atoms: C_1  and  C_2
REMARK    2  A    between atoms: C_5  and  C_6
REMARK    3  A    between atoms: C_11  and  C_12
REMARK    4  A    between atoms: C_11  and  C_13
REMARK    5  A    between atoms: C_14  and  O_18
REMARK    6  A    between atoms: C_21  and  C_22
REMARK    7  A    between atoms: C_23  and  C_27
REMARK    8  A    between atoms: C_27  and  C_29
REMARK    9  A    between atoms: C_27  and  C_35
REMARK   10  A    between atoms: C_29  and  C_30
REMARK   11  A    between atoms: C_30  and  C_31
REMARK   12  A    between atoms: C_32  and  C_33
REMARK   13  A    between atoms: C_32  and  C_34
REMARK                            x       y       z     vdW  Elec       q    Type
REMARK                         _______ _______ _______ _____ _____    ______ ____
ROOT
ATOM      1  C   LIG A   1      -2.582  -1.535   1.048  0.00  0.00    +0.016 C 
ATOM      2  C   LIG A   1      -1.129  -0.995   1.190  0.00  0.00    -0.005 C 
ATOM      3  C   LIG A   1      -1.219   0.548   1.310  0.00  0.00    -0.063 C 
ATOM      4  C   LIG A   1      -0.625   1.413   0.449  0.00  0.00    -0.064 C 
ATOM      5  C   LIG A   1      -0.873   2.955   0.459  0.00  0.00    -0.007 C 
ATOM      6  C   LIG A   1      -1.604   3.243  -0.883  0.00  0.00    +0.016 C 
ATOM      7  C   LIG A   1      -1.786   3.449   1.655  0.00  0.00    +0.007 C 
ATOM      8  C   LIG A   1      -1.718   2.479   2.845  0.00  0.00    +0.009 C 
ATOM      9  C   LIG A   1      -2.085   1.066   2.433  0.00  0.00    +0.031 C 
ATOM     10  C   LIG A   1      -1.564   4.955   2.128  0.00  0.00    -0.005 C 
ATOM     11  C   LIG A   1      -0.663   5.087   3.385  0.00  0.00    +0.014 C 
ATOM     12  C   LIG A   1      -2.942   5.548   2.519  0.00  0.00    +0.014 C 
ATOM     13  C   LIG A   1      -0.971   5.809   0.985  0.00  0.00    +0.121 C 
ATOM     14  C   LIG A   1       0.344   5.249   0.452  0.00  0.00    +0.032 C 
ATOM     15  C   LIG A   1       0.467   3.728   0.515  0.00  0.00    +0.013 C 
ATOM     16  C   LIG A   1       0.263   0.885  -0.662  0.00  0.00    +0.032 C 
ATOM     17  C   LIG A   1       0.884  -0.455  -0.315  0.00  0.00    +0.012 C 
ATOM     18  C   LIG A   1      -0.172  -1.532   0.029  0.00  0.00    -0.020 C 
ATOM     19  C   LIG A   1      -0.959  -1.846  -1.258  0.00  0.00    +0.012 C 
ATOM     20  C   LIG A   1       0.620  -2.746   0.666  0.00  0.00    -0.001 C 
ATOM     21  C   LIG A   1      -0.077  -3.026   1.999  0.00  0.00    +0.005 C 
ATOM     22  C   LIG A   1      -0.514  -1.639   2.456  0.00  0.00    +0.012 C 
ENDROOT
BRANCH  13  23
ATOM     23  O   LIG A   1      -0.754   7.159   1.402  0.00  0.00    -0.391 OA
ATOM     24  H   LIG A   1      -0.383   7.644   0.644  0.00  0.00    +0.210 HD
ENDBRANCH  13  23
BRANCH  20  25
ATOM     25  C   LIG A   1       0.992  -4.026  -0.133  0.00  0.00    -0.010 C 
ATOM     26  C   LIG A   1      -0.188  -4.819  -0.701  0.00  0.00    +0.008 C 
BRANCH  25  27
ATOM     27  C   LIG A   1       2.058  -3.720  -1.211  0.00  0.00    +0.007 C 
BRANCH  27  28
ATOM     28  C   LIG A   1       2.662  -4.972  -1.857  0.00  0.00    +0.027 C 
BRANCH  28  29
ATOM     29  C   LIG A   1       3.689  -4.603  -2.891  0.00  0.00    -0.028 C 
ATOM     30  C   LIG A   1       3.475  -4.410  -4.210  0.00  0.00    -0.080 C 
ATOM     31  C   LIG A   1       2.135  -4.509  -4.883  0.00  0.00    +0.038 C 
ATOM     32  C   LIG A   1       4.609  -4.040  -5.134  0.00  0.00    +0.038 C 
ENDBRANCH  28  29
ENDBRANCH  27  28
ENDBRANCH  25  27
ENDBRANCH  20  25
TORSDOF 5
