REMARK  Name = NuBBE_2293
REMARK  4 active torsions:
REMARK  status: ('A' for Active; 'I' for Inactive)
REMARK    1  A    between atoms: C_1  and  C_2
REMARK    2  A    between atoms: C_3  and  C_4
REMARK    3  A    between atoms: C_9  and  C_10
REMARK    4  A    between atoms: C_14  and  C_15
REMARK                            x       y       z     vdW  Elec       q    Type
REMARK                         _______ _______ _______ _____ _____    ______ ____
ROOT
ATOM      1  C   LIG A   1      -2.000   1.867   0.842  0.00  0.00    +0.016 C 
ATOM      2  C   LIG A   1      -0.481   1.872   0.754  0.00  0.00    +0.060 C 
ATOM      3  C   LIG A   1       0.155   2.996  -0.113  0.00  0.00    +0.178 C 
ATOM      4  C   LIG A   1      -0.805   4.011  -0.718  0.00  0.00    +0.052 C 
ATOM      5  O   LIG A   1       0.907   2.394  -1.207  0.00  0.00    -0.488 OA
ATOM      6  C   LIG A   1       0.833   1.018  -1.035  0.00  0.00    +0.125 A 
ATOM      7  C   LIG A   1       0.057   0.677   0.068  0.00  0.00    +0.004 A 
ATOM      8  C   LIG A   1      -0.040  -0.697   0.324  0.00  0.00    -0.034 A 
ATOM      9  C   LIG A   1      -0.748  -1.460   1.399  0.00  0.00    +0.017 C 
ATOM     10  C   LIG A   1      -0.201  -1.160   2.787  0.00  0.00    +0.012 C 
ATOM     11  C   LIG A   1      -0.523  -2.939   0.992  0.00  0.00    +0.012 C 
ATOM     12  C   LIG A   1       0.396  -2.974  -0.251  0.00  0.00    +0.036 C 
ATOM     13  C   LIG A   1       0.617  -1.530  -0.612  0.00  0.00    -0.041 A 
ATOM     14  C   LIG A   1       1.378  -1.159  -1.722  0.00  0.00    -0.043 A 
ATOM     15  C   LIG A   1       2.047  -2.127  -2.647  0.00  0.00    +0.044 C 
ATOM     16  C   LIG A   1       1.492   0.200  -1.927  0.00  0.00    +0.049 A 
ENDROOT
TORSDOF 0
