@<TRIPOS>MOLECULE
NuBBE_2266
 39 40 0 0 0
SMALL
GASTEIGER

@<TRIPOS>ATOM
      1 C          -0.0158    1.1047    0.0826 C.3     1  LIG1       -0.0194
      2 C          -1.2866    0.2962   -0.2649 C.3     1  LIG1        0.0176
      3 H          -1.2476    0.0902   -1.3456 H       1  LIG1        0.0357
      4 C          -2.5853    1.1337   -0.0211 C.3     1  LIG1        0.0660
      5 C          -3.8274    0.5309   -0.6942 C.3     1  LIG1       -0.0360
      6 C          -2.8895    1.3847    1.4595 C.3     1  LIG1       -0.0360
      7 O          -2.4022    2.4289   -0.6218 O.3     1  LIG1       -0.3887
      8 C          -1.2137   -1.0483    0.4749 C.3     1  LIG1        0.0649
      9 C           0.0140   -1.8510    0.0275 C.3     1  LIG1       -0.0007
     10 C           1.3060   -1.0718   -0.0260 C.ar    1  LIG1       -0.0386
     11 C           1.2911    0.3416   -0.0240 C.ar    1  LIG1       -0.0405
     12 C           2.5131    1.0548   -0.0579 C.ar    1  LIG1       -0.0470
     13 C           3.7202    0.3524   -0.1486 C.ar    1  LIG1       -0.0583
     14 C           3.7314   -1.0382   -0.1858 C.ar    1  LIG1       -0.0583
     15 C           2.5359   -1.7630   -0.1327 C.ar    1  LIG1       -0.0469
     16 C           2.6034   -3.2671   -0.1640 C.3     1  LIG1       -0.0394
     17 C           2.5585    2.5601   -0.0219 C.3     1  LIG1       -0.0394
     18 O          -2.3736   -1.8447    0.2441 O.3     1  LIG1       -0.3911
     19 H          -0.0792    1.4843    1.1088 H       1  LIG1        0.0318
     20 H           0.0304    1.9675   -0.5917 H       1  LIG1        0.0318
     21 H          -4.2076   -0.3501   -0.1717 H       1  LIG1        0.0257
     22 H          -3.6160    0.2579   -1.7341 H       1  LIG1        0.0257
     23 H          -4.6405    1.2663   -0.7310 H       1  LIG1        0.0257
     24 H          -3.0832    0.4553    2.0032 H       1  LIG1        0.0257
     25 H          -3.7720    2.0272    1.5666 H       1  LIG1        0.0257
     26 H          -2.0734    1.9182    1.9562 H       1  LIG1        0.0257
     27 H          -2.3450    2.3083   -1.5855 H       1  LIG1        0.2101
     28 H          -1.1512   -0.8742    1.5559 H       1  LIG1        0.0600
     29 H          -0.1698   -2.2723   -0.9701 H       1  LIG1        0.0338
     30 H           0.1133   -2.7052    0.7089 H       1  LIG1        0.0338
     31 H           4.6671    0.8864   -0.1879 H       1  LIG1        0.0620
     32 H           4.6869   -1.5537   -0.2548 H       1  LIG1        0.0620
     33 H           3.6126   -3.6190   -0.4039 H       1  LIG1        0.0278
     34 H           1.9341   -3.6675   -0.9320 H       1  LIG1        0.0278
     35 H           2.3293   -3.6776    0.8128 H       1  LIG1        0.0278
     36 H           1.9665    2.9448    0.8146 H       1  LIG1        0.0278
     37 H           2.1781    2.9717   -0.9620 H       1  LIG1        0.0278
     38 H           3.5813    2.9275    0.1152 H       1  LIG1        0.0278
     39 H          -2.3936   -2.0899   -0.6974 H       1  LIG1        0.2098
@<TRIPOS>BOND
     1     1     2    1
     2     2     3    1
     3     2     4    1
     4     4     5    1
     5     4     6    1
     6     4     7    1
     7     2     8    1
     8     8     9    1
     9     9    10    1
    10    10    11   ar
    11     1    11    1
    12    11    12   ar
    13    12    13   ar
    14    13    14   ar
    15    14    15   ar
    16    10    15   ar
    17    15    16    1
    18    12    17    1
    19     8    18    1
    20     1    19    1
    21     1    20    1
    22     5    21    1
    23     5    22    1
    24     5    23    1
    25     6    24    1
    26     6    25    1
    27     6    26    1
    28     7    27    1
    29     8    28    1
    30     9    29    1
    31     9    30    1
    32    13    31    1
    33    14    32    1
    34    16    33    1
    35    16    34    1
    36    16    35    1
    37    17    36    1
    38    17    37    1
    39    17    38    1
    40    18    39    1
