@<TRIPOS>MOLECULE
NuBBE_107
 52 53 0 0 0
SMALL
GASTEIGER

@<TRIPOS>ATOM
      1 C          -4.0834   -0.8037   -0.3375 C.2     1  LIG1       -0.1022
      2 C          -3.2795    0.2705   -0.3261 C.2     1  LIG1       -0.0816
      3 C          -1.9383    0.3364    0.4082 C.3     1  LIG1        0.0471
      4 C          -1.4979    1.7683    0.8913 C.3     1  LIG1        0.0158
      5 H          -0.5851    1.6284    1.4895 H       1  LIG1        0.0365
      6 C          -1.0556    2.5793   -0.3246 C.2     1  LIG1        0.0751
      7 C          -0.9011    4.0634   -0.2931 C.2     1  LIG1        0.3381
      8 O          -0.8316    4.5552   -1.5590 O.3     1  LIG1       -0.4646
      9 C          -0.6231    5.9605   -1.6915 C.3     1  LIG1        0.0820
     10 O          -0.8420    4.7338    0.7370 O.2     1  LIG1       -0.2452
     11 C          -0.7034    1.9569   -1.4630 C.2     1  LIG1        0.0981
     12 O          -0.6648    0.6077   -1.6849 O.2     1  LIG1       -0.4699
     13 C          -0.8186   -0.2137   -0.5200 C.3     1  LIG1        0.2102
     14 H          -1.1145   -1.2117   -0.8630 H       1  LIG1        0.1062
     15 O           0.4116   -0.3381    0.2170 O.3     1  LIG1       -0.3093
     16 C           1.4513   -0.9642   -0.5496 C.3     1  LIG1        0.1918
     17 H           1.6023   -0.4264   -1.4935 H       1  LIG1        0.0939
     18 O           1.0383   -2.3149   -0.8445 O.3     1  LIG1       -0.3404
     19 C           2.1528   -3.1886   -1.0881 C.3     1  LIG1        0.1130
     20 H           2.7982   -2.7281   -1.8464 H       1  LIG1        0.0647
     21 C           2.9020   -3.4569    0.2325 C.3     1  LIG1        0.1119
     22 H           2.4379   -4.2969    0.7646 H       1  LIG1        0.0647
     23 C           2.8720   -2.2080    1.1347 C.3     1  LIG1        0.1141
     24 H           3.7893   -2.1768    1.7334 H       1  LIG1        0.0648
     25 O           1.7852   -2.3013    2.0642 O.3     1  LIG1       -0.3864
     26 O           4.2508   -3.8370   -0.0562 O.3     1  LIG1       -0.3865
     27 C           1.6310   -4.5051   -1.6765 C.3     1  LIG1        0.0730
     28 O           0.9672   -4.2774   -2.9199 O.3     1  LIG1       -0.3924
     29 C           2.7714   -0.9267    0.2858 C.3     1  LIG1        0.1342
     30 H           2.7945   -0.0434    0.9331 H       1  LIG1        0.0671
     31 O           3.8998   -0.8217   -0.6004 O.3     1  LIG1       -0.3841
     32 C          -2.5137    2.4208    1.8486 C.3     1  LIG1        0.0526
     33 C          -2.6969    1.6026    3.1007 C.2     1  LIG1        0.3053
     34 O          -1.7586    1.8497    4.0383 O.3     1  LIG1       -0.4806
     35 O          -3.5653    0.7597    3.2987 O.2     1  LIG1       -0.2510
     36 H          -1.9957   -0.3137    1.2916 H       1  LIG1        0.0410
     37 H          -4.9911   -0.8156   -0.9373 H       1  LIG1        0.0532
     38 H          -3.8514   -1.7082    0.2165 H       1  LIG1        0.0532
     39 H          -3.5619    1.1183   -0.9492 H       1  LIG1        0.0571
     40 H          -1.4994    6.5055   -1.3338 H       1  LIG1        0.0661
     41 H          -0.4949    6.1723   -2.7588 H       1  LIG1        0.0661
     42 H           0.2845    6.2764   -1.1695 H       1  LIG1        0.0661
     43 H          -0.3844    2.4566   -2.3716 H       1  LIG1        0.1029
     44 H           0.9509   -2.2501    1.5555 H       1  LIG1        0.2100
     45 H           4.6525   -4.1435    0.7766 H       1  LIG1        0.2100
     46 H           2.4557   -5.2002   -1.8593 H       1  LIG1        0.0584
     47 H           0.9105   -4.9813   -1.0033 H       1  LIG1        0.0584
     48 H           0.3827   -3.5089   -2.7858 H       1  LIG1        0.2095
     49 H           4.7161   -0.9170   -0.0779 H       1  LIG1        0.2101
     50 H          -2.1727    3.4063    2.1864 H       1  LIG1        0.0384
     51 H          -3.4932    2.5856    1.3898 H       1  LIG1        0.0384
     52 H          -1.9906    1.2647    4.7900 H       1  LIG1        0.2951
@<TRIPOS>BOND
     1     1     2    2
     2     3     4    1
     3     4     6    1
     4     6     7    1
     5     7     8    1
     6     8     9    1
     7     7    10    2
     8     6    11    2
     9    11    12    1
    10    12    13    1
    11    15    16    1
    12    16    17    1
    13    16    18    1
    14    18    19    1
    15    19    21    1
    16    21    22    1
    17    21    23    1
    18    21    26    1
    19    27    28    1
    20    16    29    1
    21    23    29    1
    22    32    33    1
    23    33    34    1
    24    33    35    2
    25    13     3    1
    26     3    36    1
    27     3     2    1
    28     4    32    1
    29     4     5    1
    30    13    15    1
    31    13    14    1
    32    19    27    1
    33    19    20    1
    34    23    25    1
    35    23    24    1
    36    29    31    1
    37    29    30    1
    38     1    37    1
    39     1    38    1
    40     2    39    1
    41     9    40    1
    42     9    41    1
    43     9    42    1
    44    11    43    1
    45    25    44    1
    46    26    45    1
    47    27    46    1
    48    27    47    1
    49    28    48    1
    50    31    49    1
    51    32    50    1
    52    32    51    1
    53    34    52    1
