@<TRIPOS>MOLECULE
NuBBE_1676
 58 58 0 0 0
SMALL
GASTEIGER

@<TRIPOS>ATOM
      1 C          -4.8931    2.7822    1.8323 C.3     1  LIG1       -0.0653
      2 C          -4.5473    1.8303    0.6959 C.3     1  LIG1       -0.0559
      3 C          -3.0467    1.4921    0.6066 C.3     1  LIG1       -0.0533
      4 C          -2.1692    2.7342    0.3664 C.3     1  LIG1       -0.0531
      5 C          -0.6342    2.5504    0.2810 C.3     1  LIG1       -0.0531
      6 C          -0.1362    1.8856   -1.0066 C.3     1  LIG1       -0.0531
      7 C           1.4088    1.7236   -1.2120 C.3     1  LIG1       -0.0531
      8 C           2.1568    1.0208   -0.0935 C.3     1  LIG1       -0.0531
      9 C           3.6598    0.7105   -0.1012 C.3     1  LIG1       -0.0531
     10 C           4.2613    0.0952    1.2136 C.3     1  LIG1       -0.0531
     11 C           3.9096   -1.3557    1.6726 C.3     1  LIG1       -0.0531
     12 C           2.5133   -1.6524    2.2871 C.3     1  LIG1       -0.0530
     13 C           1.4218   -1.3886    1.2896 C.3     1  LIG1       -0.0528
     14 C          -0.0583   -1.5942    1.5175 C.3     1  LIG1       -0.0491
     15 C          -0.9141   -1.1939    0.3040 C.3     1  LIG1       -0.0276
     16 C          -0.6668   -1.8481   -1.0356 C.ar    1  LIG1       -0.0439
     17 C          -0.8591   -3.2403   -1.0081 C.ar    1  LIG1       -0.0583
     18 C          -0.6301   -4.0098   -2.1474 C.ar    1  LIG1       -0.0581
     19 C          -0.1946   -3.4685   -3.3426 C.ar    1  LIG1       -0.0202
     20 C          -0.0307   -2.0617   -3.3875 C.ar    1  LIG1        0.1171
     21 O           0.4134   -1.4743   -4.5252 O.3     1  LIG1       -0.5068
     22 C          -0.2991   -1.3031   -2.2627 C.ar    1  LIG1       -0.0170
     23 H          -5.9776    2.9135    1.9046 H       1  LIG1        0.0230
     24 H          -4.4588    3.7723    1.6674 H       1  LIG1        0.0230
     25 H          -4.5305    2.3984    2.7909 H       1  LIG1        0.0230
     26 H          -4.8819    2.2665   -0.2528 H       1  LIG1        0.0263
     27 H          -5.1190    0.9028    0.8315 H       1  LIG1        0.0263
     28 H          -2.9269    0.7833   -0.2196 H       1  LIG1        0.0265
     29 H          -2.7456    0.9785    1.5284 H       1  LIG1        0.0265
     30 H          -2.3420    3.4282    1.1959 H       1  LIG1        0.0265
     31 H          -2.5176    3.2303   -0.5452 H       1  LIG1        0.0265
     32 H          -0.2930    2.0321    1.1865 H       1  LIG1        0.0265
     33 H          -0.1890    3.5491    0.2954 H       1  LIG1        0.0265
     34 H          -0.5421    2.3967   -1.8822 H       1  LIG1        0.0265
     35 H          -0.6413    0.9409   -1.0918 H       1  LIG1        0.0265
     36 H           1.8568    2.6889   -1.4174 H       1  LIG1        0.0265
     37 H           1.5444    1.0868   -2.0975 H       1  LIG1        0.0265
     38 H           1.7378    0.0483   -0.2859 H       1  LIG1        0.0265
     39 H           1.8907    1.4619    0.8731 H       1  LIG1        0.0265
     40 H           4.1922    1.6441   -0.3071 H       1  LIG1        0.0265
     41 H           3.8802    0.0175   -0.9212 H       1  LIG1        0.0265
     42 H           4.1196    0.7847    2.0544 H       1  LIG1        0.0265
     43 H           5.3520    0.0793    1.0436 H       1  LIG1        0.0265
     44 H           4.6336   -1.6231    2.4583 H       1  LIG1        0.0265
     45 H           4.1089   -2.0462    0.8439 H       1  LIG1        0.0265
     46 H           2.3691   -0.9955    3.1532 H       1  LIG1        0.0265
     47 H           2.4479   -2.6885    2.6244 H       1  LIG1        0.0265
     48 H           1.7300   -1.7800    0.3112 H       1  LIG1        0.0265
     49 H           1.4292   -0.3181    1.3837 H       1  LIG1        0.0265
     50 H          -0.3445   -0.9014    2.3220 H       1  LIG1        0.0268
     51 H          -0.2761   -2.6106    1.8302 H       1  LIG1        0.0268
     52 H          -0.7904   -0.1076    0.2552 H       1  LIG1        0.0313
     53 H          -1.9770   -1.2967    0.5332 H       1  LIG1        0.0313
     54 H          -1.2046   -3.7280   -0.1065 H       1  LIG1        0.0620
     55 H          -0.7787   -5.0884   -2.1266 H       1  LIG1        0.0619
     56 H          -0.0024   -4.0790   -4.1983 H       1  LIG1        0.0654
     57 H           0.7653   -2.1471   -5.1289 H       1  LIG1        0.2921
     58 H          -0.1837   -0.2283   -2.4502 H       1  LIG1        0.0657
@<TRIPOS>BOND
     1     1     2    1
     2     2     3    1
     3     3     4    1
     4     4     5    1
     5     5     6    1
     6     6     7    1
     7     7     8    1
     8     8     9    1
     9     9    10    1
    10    10    11    1
    11    11    12    1
    12    12    13    1
    13    13    14    1
    14    14    15    1
    15    15    16    1
    16    16    17   ar
    17    17    18   ar
    18    18    19   ar
    19    19    20   ar
    20    20    21    1
    21    20    22   ar
    22    16    22   ar
    23     1    23    1
    24     1    24    1
    25     1    25    1
    26     2    26    1
    27     2    27    1
    28     3    28    1
    29     3    29    1
    30     4    30    1
    31     4    31    1
    32     5    32    1
    33     5    33    1
    34     6    34    1
    35     6    35    1
    36     7    36    1
    37     7    37    1
    38     8    38    1
    39     8    39    1
    40     9    40    1
    41     9    41    1
    42    10    42    1
    43    10    43    1
    44    11    44    1
    45    11    45    1
    46    12    46    1
    47    12    47    1
    48    13    48    1
    49    13    49    1
    50    14    50    1
    51    14    51    1
    52    15    52    1
    53    15    53    1
    54    17    54    1
    55    18    55    1
    56    19    56    1
    57    21    57    1
    58    22    58    1
