REMARK  Name = NuBBE_1341
REMARK  5 active torsions:
REMARK  status: ('A' for Active; 'I' for Inactive)
REMARK    1  A    between atoms: C_1  and  C_2
REMARK    2  A    between atoms: C_5  and  C_6
REMARK    3  A    between atoms: C_6  and  C_7
REMARK    4  A    between atoms: C_6  and  C_8
REMARK    5  A    between atoms: C_13  and  C_14
REMARK                            x       y       z     vdW  Elec       q    Type
REMARK                         _______ _______ _______ _____ _____    ______ ____
ROOT
ATOM      1  C   LIG A   1      -3.737   1.344  -0.288  0.00  0.00    +0.044 C 
ATOM      2  C   LIG A   1      -2.234   1.258  -0.209  0.00  0.00    -0.043 A 
ATOM      3  C   LIG A   1      -1.507   2.449  -0.265  0.00  0.00    +0.004 A 
ATOM      4  C   LIG A   1      -0.120   2.432  -0.196  0.00  0.00    +0.005 A 
ATOM      5  C   LIG A   1       0.597   1.226  -0.069  0.00  0.00    -0.037 A 
ATOM      6  C   LIG A   1      -0.126  -0.006  -0.011  0.00  0.00    -0.014 A 
ATOM      7  C   LIG A   1      -1.552   0.020  -0.081  0.00  0.00    -0.015 A 
ATOM      8  C   LIG A   1      -2.260  -1.202  -0.016  0.00  0.00    +0.009 A 
ATOM      9  C   LIG A   1      -1.616  -2.431   0.109  0.00  0.00    +0.004 A 
ATOM     10  C   LIG A   1      -0.232  -2.481   0.164  0.00  0.00    -0.050 A 
ATOM     11  C   LIG A   1       0.486  -3.787   0.329  0.00  0.00    +0.044 C 
ATOM     12  C   LIG A   1       0.488  -1.278   0.116  0.00  0.00    +0.012 A 
ENDROOT
BRANCH   5  13
ATOM     13  C   LIG A   1       2.119   1.371  -0.007  0.00  0.00    +0.014 C 
ATOM     14  C   LIG A   1       2.717   0.947   1.337  0.00  0.00    +0.012 C 
ATOM     15  C   LIG A   1       2.842   0.746  -1.202  0.00  0.00    +0.012 C 
ENDBRANCH   5  13
TORSDOF 1
