@<TRIPOS>MOLECULE
NuBBE_252
 52 54 0 0 0
SMALL
GASTEIGER

@<TRIPOS>ATOM
      1 H          -3.1031   -0.4978    0.2075 H       1  LIG1        0.0314
      2 C          -2.1018   -0.0518    0.0664 C.3     1  LIG1       -0.0212
      3 C          -2.3922    1.4073   -0.3442 C.3     1  LIG1        0.0510
      4 C          -2.6589    2.0480    1.0128 C.2     1  LIG1        0.1695
      5 C          -2.3323    1.1210    2.1710 C.3     1  LIG1        0.1164
      6 H          -1.7364    1.6430    2.9257 H       1  LIG1        0.0676
      7 O          -3.5316    0.6420    2.7507 O.3     1  LIG1       -0.3840
      8 C          -1.5166    0.0093    1.4946 C.3     1  LIG1       -0.0071
      9 H          -0.4769    0.3328    1.4740 H       1  LIG1        0.0330
     10 C          -1.5722   -1.3200    2.2400 C.3     1  LIG1       -0.0594
     11 O          -3.1147    3.1756    1.1862 O.2     1  LIG1       -0.2940
     12 H          -3.3450    1.3708   -0.8876 H       1  LIG1        0.0431
     13 C          -1.4349    2.3201   -1.0609 C.2     1  LIG1       -0.0013
     14 C          -2.1055    3.4019   -1.8629 C.2     1  LIG1        0.1466
     15 H          -1.4645    4.2503   -2.1616 H       1  LIG1        0.1078
     16 O          -3.2805    3.3499   -2.1982 O.2     1  LIG1       -0.2960
     17 C          -0.0912    2.3485   -1.1317 C.2     1  LIG1       -0.0731
     18 C           0.9387    1.4909   -0.4707 C.3     1  LIG1       -0.0121
     19 C           0.9022    0.0116   -0.7216 C.2     1  LIG1       -0.0603
     20 C           1.7768   -0.8564   -0.1616 C.2     1  LIG1       -0.0645
     21 C           2.9054   -0.5477    0.8019 C.3     1  LIG1        0.0007
     22 C           4.1927   -0.2578    0.0257 C.3     1  LIG1       -0.0566
     23 C           3.1681   -1.6550    1.8437 C.3     1  LIG1        0.0504
     24 O           2.0123   -1.9365    2.6251 O.3     1  LIG1       -0.3944
     25 C           1.5238   -2.2657   -0.6054 C.3     1  LIG1       -0.0304
     26 C           0.6708   -2.0538   -1.8435 C.3     1  LIG1       -0.0402
     27 C          -0.0858   -0.7079   -1.6230 C.3     1  LIG1       -0.0099
     28 C          -0.2769   -0.1107   -3.0320 C.3     1  LIG1       -0.0558
     29 C          -1.4536   -1.0077   -0.9514 C.3     1  LIG1       -0.0398
     30 H          -4.0328    1.4290    3.0391 H       1  LIG1        0.2104
     31 H          -0.8867   -2.0467    1.7945 H       1  LIG1        0.0233
     32 H          -2.5768   -1.7548    2.2251 H       1  LIG1        0.0233
     33 H          -1.2751   -1.1855    3.2855 H       1  LIG1        0.0233
     34 H           0.3756    3.1277   -1.7386 H       1  LIG1        0.0579
     35 H           0.9234    1.7108    0.6023 H       1  LIG1        0.0353
     36 H           1.9146    1.8510   -0.8258 H       1  LIG1        0.0353
     37 H           2.6367    0.3550    1.3646 H       1  LIG1        0.0365
     38 H           4.5155   -1.1272   -0.5577 H       1  LIG1        0.0236
     39 H           5.0057    0.0093    0.7096 H       1  LIG1        0.0236
     40 H           4.0582    0.5799   -0.6673 H       1  LIG1        0.0236
     41 H           3.9636   -1.3463    2.5313 H       1  LIG1        0.0563
     42 H           3.4939   -2.5872    1.3697 H       1  LIG1        0.0563
     43 H           1.6804   -1.0950    2.9788 H       1  LIG1        0.2094
     44 H           0.9849   -2.8269    0.1646 H       1  LIG1        0.0310
     45 H           2.4438   -2.7995   -0.8613 H       1  LIG1        0.0310
     46 H           0.0006   -2.9019   -2.0258 H       1  LIG1        0.0277
     47 H           1.3369   -1.9903   -2.7165 H       1  LIG1        0.0277
     48 H           0.6634    0.2870   -3.4310 H       1  LIG1        0.0238
     49 H          -1.0218    0.6857   -3.0623 H       1  LIG1        0.0238
     50 H          -0.6319   -0.8773   -3.7325 H       1  LIG1        0.0238
     51 H          -1.3992   -1.9885   -0.4601 H       1  LIG1        0.0277
     52 H          -2.1886   -1.1628   -1.7551 H       1  LIG1        0.0277
@<TRIPOS>BOND
     1     2     3    1
     2     3     4    1
     3     4     5    1
     4     5     8    1
     5     2     8    1
     6     3    13    1
     7    14    15    1
     8    14    16    2
     9    13    17    2
    10    17    18    1
    11    18    19    1
    12    19    20    2
    13    21    22    1
    14    21    23    1
    15    23    24    1
    16    20    25    1
    17    25    26    1
    18    26    27    1
    19    19    27    1
    20    27    29    1
    21     2    29    1
    22     1     2    1
    23     3    12    1
    24     4    11    2
    25     5     6    1
    26     5     7    1
    27    13    14    1
    28    20    21    1
    29    27    28    1
    30     8    10    1
    31     8     9    1
    32     7    30    1
    33    10    31    1
    34    10    32    1
    35    10    33    1
    36    17    34    1
    37    18    35    1
    38    18    36    1
    39    21    37    1
    40    22    38    1
    41    22    39    1
    42    22    40    1
    43    23    41    1
    44    23    42    1
    45    24    43    1
    46    25    44    1
    47    25    45    1
    48    26    46    1
    49    26    47    1
    50    28    48    1
    51    28    49    1
    52    28    50    1
    53    29    51    1
    54    29    52    1
