@<TRIPOS>MOLECULE
NuBBE_1259
 90 92 0 0 0
SMALL
GASTEIGER

@<TRIPOS>ATOM
      1 O          -2.5217    0.9206    0.8474 O.2     1  LIG1       -0.2912
      2 C          -1.3674    0.5014    0.9236 C.2     1  LIG1        0.1767
      3 C          -0.2910    1.2482    0.1785 C.2     1  LIG1        0.0420
      4 C          -0.8034    2.0346   -1.0529 C.3     1  LIG1        0.0010
      5 C          -1.7294    3.2493   -0.7068 C.3     1  LIG1       -0.0457
      6 C          -1.1051    4.3383    0.1677 C.3     1  LIG1       -0.0553
      7 C           0.0155    5.1600   -0.4497 C.3     1  LIG1       -0.0653
      8 C           0.2259    2.5281   -2.0934 C.3     1  LIG1        0.0519
      9 C           1.0869    1.5763   -2.8513 C.2     1  LIG1        0.3074
     10 O           1.3799    2.1094   -4.0334 O.3     1  LIG1       -0.4679
     11 C           2.7938    2.1737   -4.2158 C.3     1  LIG1        0.0817
     12 O           1.7385    0.6052   -2.3819 O.2     1  LIG1       -0.2508
     13 C           0.9536    1.0332    0.6521 C.2     1  LIG1        0.1414
     14 O           2.0655    1.5065   -0.0320 O.2     1  LIG1       -0.4872
     15 C           3.4023    1.4609    0.5238 C.3     1  LIG1        0.1070
     16 H           3.5204    2.4122    1.0568 H       1  LIG1        0.0737
     17 C           4.4091    1.4438   -0.6291 C.3     1  LIG1       -0.0271
     18 C           3.6099    0.2693    1.4638 C.3     1  LIG1        0.0562
     19 H           3.3884   -0.6754    0.9498 H       1  LIG1        0.0414
     20 C           4.9772    0.1453    2.1106 C.3     1  LIG1       -0.0519
     21 C           2.5231    0.4997    2.4702 C.2     1  LIG1        0.1762
     22 O           2.6749    1.0956    3.5302 O.2     1  LIG1       -0.2914
     23 C           1.1887    0.2560    1.8721 C.2     1  LIG1        0.0981
     24 C           0.3412   -0.6957    2.3262 C.2     1  LIG1        0.1251
     25 O           0.6789   -1.5297    3.3918 O.2     1  LIG1       -0.4975
     26 C           0.1873   -2.8780    3.4037 C.3     1  LIG1        0.0784
     27 C          -1.0416   -0.8127    1.6885 C.3     1  LIG1        0.0948
     28 C          -1.1260   -2.0685    0.6771 C.3     1  LIG1       -0.0297
     29 C          -0.1409   -2.0750   -0.5198 C.3     1  LIG1       -0.0335
     30 C          -0.0246   -3.2281   -1.6336 C.3     1  LIG1       -0.0255
     31 C          -1.0246   -2.3973   -2.5144 C.3     1  LIG1       -0.0147
     32 C          -0.8309   -2.2833   -4.0006 C.2     1  LIG1       -0.0761
     33 C          -1.2411   -1.0188   -4.7048 C.3     1  LIG1       -0.0438
     34 C          -0.4015   -3.3315   -4.7193 C.2     1  LIG1       -0.0994
     35 C          -0.6297   -1.1954   -1.6787 C.3     1  LIG1       -0.0426
     36 C           1.4429   -3.3785   -2.0815 C.3     1  LIG1       -0.0590
     37 C          -0.6490   -4.5945   -1.3983 C.3     1  LIG1       -0.0590
     38 C          -2.1988   -0.9159    2.8039 C.3     1  LIG1       -0.0148
     39 C          -2.6780    0.2700    3.6264 C.2     1  LIG1       -0.0839
     40 C          -3.7884    0.2688    4.4012 C.2     1  LIG1       -0.0796
     41 C          -4.6847   -0.9087    4.6922 C.3     1  LIG1       -0.0440
     42 C          -4.3052    1.5254    5.0453 C.3     1  LIG1       -0.0440
     43 H          -1.4717    1.3669   -1.6075 H       1  LIG1        0.0356
     44 H          -2.6321    2.9029   -0.1896 H       1  LIG1        0.0271
     45 H          -2.1298    3.6829   -1.6359 H       1  LIG1        0.0271
     46 H          -0.7258    3.8693    1.0788 H       1  LIG1        0.0263
     47 H          -1.9002    5.0300    0.4710 H       1  LIG1        0.0263
     48 H           0.9460    4.5943   -0.4808 H       1  LIG1        0.0230
     49 H           0.2492    6.0170    0.1860 H       1  LIG1        0.0230
     50 H          -0.2290    5.5233   -1.4542 H       1  LIG1        0.0230
     51 H           0.9402    3.1712   -1.6374 H       1  LIG1        0.0383
     52 H          -0.3341    3.1059   -2.8430 H       1  LIG1        0.0383
     53 H           3.1888    2.9281   -3.5222 H       1  LIG1        0.0661
     54 H           2.9957    2.4821   -5.2325 H       1  LIG1        0.0661
     55 H           3.2789    1.2092   -4.0227 H       1  LIG1        0.0661
     56 H           4.2603    2.3049   -1.2879 H       1  LIG1        0.0265
     57 H           4.2945    0.5464   -1.2474 H       1  LIG1        0.0265
     58 H           5.4406    1.4808   -0.2628 H       1  LIG1        0.0265
     59 H           5.7416   -0.1076    1.3692 H       1  LIG1        0.0238
     60 H           4.9653   -0.6593    2.8545 H       1  LIG1        0.0238
     61 H           5.2768    1.0663    2.6202 H       1  LIG1        0.0238
     62 H           0.7298   -3.5018    2.6903 H       1  LIG1        0.0660
     63 H          -0.8708   -2.9815    3.1739 H       1  LIG1        0.0660
     64 H           0.2762   -3.2914    4.4122 H       1  LIG1        0.0660
     65 H          -2.1491   -2.1347    0.2951 H       1  LIG1        0.0282
     66 H          -0.9586   -3.0112    1.2003 H       1  LIG1        0.0282
     67 H           0.8621   -1.8151   -0.1490 H       1  LIG1        0.0307
     68 H          -2.0824   -2.6198   -2.3065 H       1  LIG1        0.0351
     69 H          -2.3004   -0.8039   -4.5348 H       1  LIG1        0.0274
     70 H          -1.0961   -1.1031   -5.7891 H       1  LIG1        0.0274
     71 H          -0.6462   -0.1657   -4.3715 H       1  LIG1        0.0274
     72 H          -0.1241   -4.2804   -4.2815 H       1  LIG1        0.0534
     73 H          -0.3101   -3.2694   -5.7991 H       1  LIG1        0.0534
     74 H          -1.4738   -0.5537   -1.4610 H       1  LIG1        0.0274
     75 H           0.1730   -0.6532   -2.1335 H       1  LIG1        0.0274
     76 H           1.8661   -2.4393   -2.4554 H       1  LIG1        0.0235
     77 H           1.5503   -4.1304   -2.8689 H       1  LIG1        0.0235
     78 H           2.0656   -3.7135   -1.2441 H       1  LIG1        0.0235
     79 H          -1.6254   -4.5099   -0.9154 H       1  LIG1        0.0235
     80 H           0.0011   -5.2288   -0.7941 H       1  LIG1        0.0235
     81 H          -0.8099   -5.1069   -2.3547 H       1  LIG1        0.0235
     82 H          -1.9157   -1.5984    3.5978 H       1  LIG1        0.0321
     83 H          -3.0705   -1.3501    2.2995 H       1  LIG1        0.0321
     84 H          -2.0921    1.1852    3.5582 H       1  LIG1        0.0572
     85 H          -4.3651   -1.8406    4.2225 H       1  LIG1        0.0274
     86 H          -5.7018   -0.6823    4.3534 H       1  LIG1        0.0274
     87 H          -4.7337   -1.0856    5.7751 H       1  LIG1        0.0274
     88 H          -3.6701    2.3931    4.8542 H       1  LIG1        0.0274
     89 H          -4.4043    1.3919    6.1276 H       1  LIG1        0.0274
     90 H          -5.3000    1.7414    4.6373 H       1  LIG1        0.0274
@<TRIPOS>BOND
     1     1     2    2
     2     2     3    1
     3     3     4    1
     4     4     5    1
     5     5     6    1
     6     6     7    1
     7     4     8    1
     8     8     9    1
     9     9    10    1
    10    10    11    1
    11     9    12    2
    12     3    13    2
    13    13    14    1
    14    14    15    1
    15    15    16    1
    16    15    17    1
    17    15    18    1
    18    18    19    1
    19    18    20    1
    20    18    21    1
    21    21    22    2
    22    13    23    1
    23    21    23    1
    24    23    24    2
    25    24    25    1
    26    25    26    1
    27    24    27    1
    28    27    28    1
    29    28    29    1
    30    29    30    1
    31    30    31    1
    32    31    32    1
    33    32    33    1
    34    32    34    2
    35    31    35    1
    36    29    35    1
    37    30    36    1
    38    30    37    1
    39     2    27    1
    40    27    38    1
    41    38    39    1
    42    39    40    2
    43    40    41    1
    44    40    42    1
    45     4    43    1
    46     5    44    1
    47     5    45    1
    48     6    46    1
    49     6    47    1
    50     7    48    1
    51     7    49    1
    52     7    50    1
    53     8    51    1
    54     8    52    1
    55    11    53    1
    56    11    54    1
    57    11    55    1
    58    17    56    1
    59    17    57    1
    60    17    58    1
    61    20    59    1
    62    20    60    1
    63    20    61    1
    64    26    62    1
    65    26    63    1
    66    26    64    1
    67    28    65    1
    68    28    66    1
    69    29    67    1
    70    31    68    1
    71    33    69    1
    72    33    70    1
    73    33    71    1
    74    34    72    1
    75    34    73    1
    76    35    74    1
    77    35    75    1
    78    36    76    1
    79    36    77    1
    80    36    78    1
    81    37    79    1
    82    37    80    1
    83    37    81    1
    84    38    82    1
    85    38    83    1
    86    39    84    1
    87    41    85    1
    88    41    86    1
    89    41    87    1
    90    42    88    1
    91    42    89    1
    92    42    90    1
