@<TRIPOS>MOLECULE
NuBBE_1830
 45 48 0 0 0
SMALL
GASTEIGER

@<TRIPOS>ATOM
      1 O          -4.5923    1.3713    1.6098 O.2     1  LIG1       -0.2839
      2 C          -3.5972    1.0337    0.9638 C.2     1  LIG1        0.2231
      3 C          -2.2791    1.5756    1.3680 C.2     1  LIG1        0.0271
      4 C          -1.1609    1.0996    0.8106 C.2     1  LIG1        0.1130
      5 O           0.0482    1.7693    0.9460 O.2     1  LIG1       -0.4872
      6 C           0.7951    1.5051   -0.2749 C.3     1  LIG1        0.1286
      7 H           0.9646    2.4911   -0.7307 H       1  LIG1        0.0787
      8 C           2.1695    0.9395    0.0569 C.ar    1  LIG1       -0.0034
      9 C           3.2668    1.2097   -0.7855 C.ar    1  LIG1       -0.0095
     10 C           4.5087    0.7027   -0.4418 C.ar    1  LIG1        0.1666
     11 C           4.6958   -0.0606    0.6847 C.ar    1  LIG1        0.1662
     12 C           3.6607   -0.3409    1.5419 C.ar    1  LIG1       -0.0158
     13 C           2.4036    0.1901    1.2359 C.ar    1  LIG1       -0.0514
     14 O           5.9831   -0.4667    0.8391 O.3     1  LIG1       -0.4526
     15 C           6.5967    0.1426   -0.3138 C.3     1  LIG1        0.2332
     16 O           5.6661    0.8816   -1.1361 O.3     1  LIG1       -0.4526
     17 C          -0.1783    0.7204   -1.1906 C.3     1  LIG1        0.0138
     18 H          -0.7807    1.4975   -1.6956 H       1  LIG1        0.0350
     19 C          -1.1266    0.0019   -0.2153 C.3     1  LIG1        0.0595
     20 C          -2.4908   -0.2531   -0.8120 C.2     1  LIG1       -0.0243
     21 C          -3.6490    0.1614   -0.2699 C.2     1  LIG1        0.1637
     22 O          -4.8173   -0.2691   -0.8830 O.2     1  LIG1       -0.4916
     23 C          -6.0515    0.1326   -0.3056 C.3     1  LIG1        0.0790
     24 C          -0.5899   -1.3471    0.3546 C.3     1  LIG1       -0.0185
     25 C          -1.4642   -2.0283    1.3844 C.2     1  LIG1       -0.0899
     26 C          -2.3059   -3.0308    1.1003 C.2     1  LIG1       -0.1026
     27 C           0.4044   -0.1023   -2.3279 C.3     1  LIG1       -0.0575
     28 H          -2.2809    2.4116    2.0548 H       1  LIG1        0.0691
     29 H           3.1654    1.8223   -1.6760 H       1  LIG1        0.0659
     30 H           3.8154   -0.9396    2.4321 H       1  LIG1        0.0655
     31 H           1.5985    0.0190    1.9476 H       1  LIG1        0.0623
     32 H           7.0554   -0.6458   -0.9218 H       1  LIG1        0.1166
     33 H           7.3849    0.8233    0.0291 H       1  LIG1        0.1166
     34 H          -2.5345   -0.9036   -1.6824 H       1  LIG1        0.0620
     35 H          -6.1682    1.2192   -0.3581 H       1  LIG1        0.0660
     36 H          -6.1536   -0.2430    0.7170 H       1  LIG1        0.0660
     37 H          -6.8561   -0.3161   -0.8961 H       1  LIG1        0.0660
     38 H          -0.3983   -2.0485   -0.4672 H       1  LIG1        0.0320
     39 H           0.3756   -1.2196    0.8359 H       1  LIG1        0.0320
     40 H          -1.3727   -1.6937    2.4167 H       1  LIG1        0.0567
     41 H          -2.4364   -3.3943    0.0854 H       1  LIG1        0.0532
     42 H          -2.9040   -3.4963    1.8777 H       1  LIG1        0.0532
     43 H           0.9983   -0.9496   -1.9793 H       1  LIG1        0.0234
     44 H           1.0345    0.5217   -2.9700 H       1  LIG1        0.0234
     45 H          -0.4031   -0.4937   -2.9588 H       1  LIG1        0.0234
@<TRIPOS>BOND
     1     2     3    1
     2     3     4    2
     3     4     5    1
     4     5     6    1
     5     8     9   ar
     6     9    10   ar
     7    10    11   ar
     8    11    12   ar
     9    12    13   ar
    10     8    13   ar
    11    11    14    1
    12    14    15    1
    13    15    16    1
    14    10    16    1
    15     6    17    1
    16    17    19    1
    17    19    20    1
    18    20    21    2
    19     2    21    1
    20    22    23    1
    21     4    19    1
    22    24    25    1
    23    25    26    2
    24     1     2    2
    25     6     7    1
    26     6     8    1
    27    17    18    1
    28    17    27    1
    29    19    24    1
    30    21    22    1
    31     3    28    1
    32     9    29    1
    33    12    30    1
    34    13    31    1
    35    15    32    1
    36    15    33    1
    37    20    34    1
    38    23    35    1
    39    23    36    1
    40    23    37    1
    41    24    38    1
    42    24    39    1
    43    25    40    1
    44    26    41    1
    45    26    42    1
    46    27    43    1
    47    27    44    1
    48    27    45    1
