REMARK  Name = NuBBE_1333
REMARK  11 active torsions:
REMARK  status: ('A' for Active; 'I' for Inactive)
REMARK    1  A    between atoms: C_4  and  C_5
REMARK    2  A    between atoms: C_7  and  O_8
REMARK    3  A    between atoms: O_8  and  C_9
REMARK    4  A    between atoms: C_10  and  O_11
REMARK    5  A    between atoms: O_11  and  C_12
REMARK    6  A    between atoms: C_13  and  O_14
REMARK    7  A    between atoms: O_14  and  C_15
REMARK    8  A    between atoms: C_21  and  O_22
REMARK    9  A    between atoms: O_22  and  C_23
REMARK   10  A    between atoms: C_25  and  O_26
REMARK   11  A    between atoms: O_26  and  C_27
REMARK                            x       y       z     vdW  Elec       q    Type
REMARK                         _______ _______ _______ _____ _____    ______ ____
ROOT
ATOM      1  O   LIG A   1      -3.446   1.986   0.237  0.00  0.00    -0.287 OA
ATOM      2  C   LIG A   1      -2.263   1.709   0.148  0.00  0.00    +0.197 A 
ATOM      3  C   LIG A   1      -1.881   0.293   0.019  0.00  0.00    +0.098 A 
ATOM      4  C   LIG A   1      -0.591  -0.050  -0.025  0.00  0.00    +0.140 A 
ATOM      5  O   LIG A   1       0.451   0.848   0.033  0.00  0.00    -0.454 OA
ATOM      6  C   LIG A   1      -1.152   2.688   0.159  0.00  0.00    +0.106 A 
ATOM      7  C   LIG A   1       0.151   2.184   0.103  0.00  0.00    +0.146 A 
ATOM      8  C   LIG A   1       1.253   3.034   0.111  0.00  0.00    +0.092 A 
ATOM      9  C   LIG A   1       1.060   4.407   0.183  0.00  0.00    +0.127 A 
ATOM     10  C   LIG A   1      -0.239   4.922   0.201  0.00  0.00    +0.092 A 
ATOM     11  C   LIG A   1      -1.355   4.072   0.191  0.00  0.00    +0.138 A 
ENDROOT
BRANCH   4  12
ATOM     12  C   LIG A   1      -0.167  -1.461  -0.118  0.00  0.00    +0.025 A 
ATOM     13  C   LIG A   1       1.034  -1.813  -0.734  0.00  0.00    +0.061 A 
ATOM     14  C   LIG A   1       1.427  -3.153  -0.833  0.00  0.00    +0.166 A 
ATOM     15  C   LIG A   1       0.593  -4.177  -0.311  0.00  0.00    +0.203 A 
ATOM     16  C   LIG A   1      -0.600  -3.822   0.354  0.00  0.00    +0.166 A 
ATOM     17  C   LIG A   1      -0.951  -2.472   0.439  0.00  0.00    +0.061 A 
BRANCH  14  18
ATOM     18  O   LIG A   1       2.609  -3.542  -1.427  0.00  0.00    -0.491 OA
ATOM     19  C   LIG A   1       3.475  -2.510  -1.895  0.00  0.00    +0.277 C 
ENDBRANCH  14  18
BRANCH  15  20
ATOM     20  O   LIG A   1       1.069  -5.455  -0.504  0.00  0.00    -0.488 OA
ATOM     21  C   LIG A   1       0.219  -6.552  -0.201  0.00  0.00    +0.277 C 
ENDBRANCH  15  20
BRANCH  16  22
ATOM     22  O   LIG A   1      -1.383  -4.794   0.923  0.00  0.00    -0.491 OA
ATOM     23  C   LIG A   1      -2.579  -4.394   1.586  0.00  0.00    +0.277 C 
ENDBRANCH  16  22
ENDBRANCH   4  12
BRANCH   9  24
ATOM     24  O   LIG A   1       2.068   5.331   0.206  0.00  0.00    -0.495 OA
ATOM     25  C   LIG A   1       3.288   4.878   0.788  0.00  0.00    +0.277 C 
ENDBRANCH   9  24
BRANCH  11  26
ATOM     26  O   LIG A   1      -2.639   4.535   0.260  0.00  0.00    -0.494 OA
ATOM     27  C   LIG A   1      -2.885   5.818  -0.300  0.00  0.00    +0.277 C 
ENDBRANCH  11  26
TORSDOF 6
