@<TRIPOS>MOLECULE
NuBBE_1851
 45 48 0 0 0
SMALL
GASTEIGER

@<TRIPOS>ATOM
      1 C          -4.9968    1.7615   -1.4949 C.2     1  LIG1       -0.1023
      2 C          -3.8991    1.1114   -1.0890 C.2     1  LIG1       -0.0866
      3 C          -2.8971    1.6447   -0.0956 C.3     1  LIG1       -0.0027
      4 C          -1.4958    1.7369   -0.6439 C.ar    1  LIG1        0.0433
      5 C          -0.6021    0.6758   -0.5560 C.ar    1  LIG1        0.1321
      6 C           0.6938    0.7406   -1.0579 C.ar    1  LIG1        0.0049
      7 C           1.4133   -0.5307   -0.7579 C.3     1  LIG1        0.0261
      8 H           2.1287   -0.3506    0.0546 H       1  LIG1        0.0387
      9 C           2.1370   -1.1367   -1.9552 C.3     1  LIG1       -0.0546
     10 C           0.2213   -1.3969   -0.2851 C.3     1  LIG1        0.1319
     11 H          -0.1463   -2.0402   -1.0969 H       1  LIG1        0.0790
     12 C           0.5577   -2.2723    0.9111 C.ar    1  LIG1       -0.0031
     13 C           0.3943   -1.7923    2.2237 C.ar    1  LIG1       -0.0095
     14 C           0.6912   -2.6350    3.2739 C.ar    1  LIG1        0.1666
     15 C           1.1513   -3.9129    3.0695 C.ar    1  LIG1        0.1662
     16 O           1.3750   -4.5762    4.2355 O.3     1  LIG1       -0.4526
     17 C           0.9919   -3.5702    5.1971 C.3     1  LIG1        0.2332
     18 O           0.5671   -2.3315    4.5935 O.3     1  LIG1       -0.4526
     19 C           1.3439   -4.4181    1.8025 C.ar    1  LIG1       -0.0158
     20 C           1.0447   -3.5875    0.7151 C.ar    1  LIG1       -0.0514
     21 O          -0.8923   -0.5220    0.0471 O.3     1  LIG1       -0.4829
     22 C           1.1639    1.8904   -1.6790 C.ar    1  LIG1       -0.0093
     23 C           0.2979    2.9795   -1.7887 C.ar    1  LIG1        0.1621
     24 O           0.6041    4.1739   -2.3951 O.3     1  LIG1       -0.4914
     25 C           1.9787    4.5454   -2.3633 C.3     1  LIG1        0.0790
     26 C          -1.0187    2.8865   -1.2840 C.ar    1  LIG1        0.1655
     27 O          -1.8438    3.9776   -1.4075 O.3     1  LIG1       -0.5030
     28 H          -5.6806    1.3028   -2.2025 H       1  LIG1        0.0532
     29 H          -5.2363    2.7557   -1.1345 H       1  LIG1        0.0532
     30 H          -3.7036    0.1093   -1.4739 H       1  LIG1        0.0570
     31 H          -2.8997    0.9874    0.7833 H       1  LIG1        0.0358
     32 H          -3.2098    2.6251    0.2858 H       1  LIG1        0.0358
     33 H           2.9461   -0.4835   -2.2995 H       1  LIG1        0.0237
     34 H           1.4575   -1.2876   -2.8021 H       1  LIG1        0.0237
     35 H           2.5771   -2.1052   -1.6973 H       1  LIG1        0.0237
     36 H           0.0255   -0.7902    2.4195 H       1  LIG1        0.0659
     37 H           1.8484   -3.3648    5.8492 H       1  LIG1        0.1166
     38 H           0.1711   -3.9625    5.8090 H       1  LIG1        0.1166
     39 H           1.7067   -5.4294    1.6566 H       1  LIG1        0.0655
     40 H           1.1808   -3.9768   -0.2923 H       1  LIG1        0.0623
     41 H           2.1733    1.9153   -2.0703 H       1  LIG1        0.0659
     42 H           2.0595    5.5509   -2.7882 H       1  LIG1        0.0660
     43 H           2.5922    3.8810   -2.9789 H       1  LIG1        0.0660
     44 H           2.3488    4.5852   -1.3332 H       1  LIG1        0.0660
     45 H          -1.3208    4.6358   -1.9043 H       1  LIG1        0.2923
@<TRIPOS>BOND
     1     1     2    2
     2     2     3    1
     3     3     4    1
     4     4     5   ar
     5     5     6   ar
     6     6     7    1
     7     7     8    1
     8     7     9    1
     9     7    10    1
    10    12    13   ar
    11    13    14   ar
    12    14    15   ar
    13    15    16    1
    14    16    17    1
    15    17    18    1
    16    14    18    1
    17    15    19   ar
    18    19    20   ar
    19    12    20   ar
    20    10    21    1
    21     5    21    1
    22     6    22   ar
    23    22    23   ar
    24    23    24    1
    25    24    25    1
    26    23    26   ar
    27     4    26   ar
    28    26    27    1
    29    10    12    1
    30    10    11    1
    31     1    28    1
    32     1    29    1
    33     2    30    1
    34     3    31    1
    35     3    32    1
    36     9    33    1
    37     9    34    1
    38     9    35    1
    39    13    36    1
    40    17    37    1
    41    17    38    1
    42    19    39    1
    43    20    40    1
    44    22    41    1
    45    25    42    1
    46    25    43    1
    47    25    44    1
    48    27    45    1
