@<TRIPOS>MOLECULE
NuBBE_2285
 47 50 0 0 0
SMALL
GASTEIGER

@<TRIPOS>ATOM
      1 C          -1.6691    0.2417   -2.0168 C.3     1  LIG1       -0.0220
      2 C          -2.8979    1.0679   -1.7335 C.2     1  LIG1       -0.0902
      3 C          -4.0657    0.5657   -1.3104 C.2     1  LIG1       -0.1026
      4 C          -0.4145    0.6024   -1.1544 C.3     1  LIG1        0.0406
      5 C           0.7227   -0.3111   -1.5344 C.2     1  LIG1        0.1089
      6 C           1.6569   -0.0391   -2.4461 C.2     1  LIG1        0.0215
      7 C           1.6175    1.2319   -3.2071 C.2     1  LIG1        0.1877
      8 O           2.3835    1.3497   -4.1562 O.2     1  LIG1       -0.2898
      9 C           0.5905    2.3214   -2.7979 C.3     1  LIG1        0.1211
     10 H          -0.2414    2.2701   -3.5098 H       1  LIG1        0.0679
     11 C           0.0557    2.0590   -1.3798 C.3     1  LIG1       -0.0062
     12 O           1.0823    3.6628   -2.7842 O.3     1  LIG1       -0.3719
     13 C           1.5495    4.1213   -4.0467 C.3     1  LIG1        0.0374
     14 O           0.8154   -1.4408   -0.7425 O.2     1  LIG1       -0.4875
     15 C          -0.2055   -1.3331    0.2748 C.3     1  LIG1        0.1283
     16 H          -1.0568   -1.9201   -0.0965 H       1  LIG1        0.0787
     17 C          -0.5958    0.1711    0.3270 C.3     1  LIG1        0.0103
     18 H          -1.6385    0.2641    0.6536 H       1  LIG1        0.0347
     19 C           0.2474    0.9987    1.3110 C.3     1  LIG1       -0.0578
     20 C           0.2369   -1.9961    1.5714 C.ar    1  LIG1       -0.0034
     21 C          -0.6123   -1.9909    2.6937 C.ar    1  LIG1       -0.0095
     22 C          -0.1446   -2.5310    3.8765 C.ar    1  LIG1        0.1666
     23 C           1.0898   -3.1268    3.9682 C.ar    1  LIG1        0.1662
     24 C           1.9245   -3.2212    2.8794 C.ar    1  LIG1       -0.0158
     25 C           1.4943   -2.6438    1.6779 C.ar    1  LIG1       -0.0514
     26 O           1.3578   -3.5804    5.2216 O.3     1  LIG1       -0.4526
     27 C           0.1794   -3.1376    5.9258 C.3     1  LIG1        0.2332
     28 O          -0.8061   -2.5268    5.0657 O.3     1  LIG1       -0.4526
     29 H          -1.4388    0.3586   -3.0839 H       1  LIG1        0.0317
     30 H          -1.9155   -0.8223   -1.9015 H       1  LIG1        0.0317
     31 H          -2.8402    2.1378   -1.9255 H       1  LIG1        0.0567
     32 H          -4.2081   -0.4950   -1.1280 H       1  LIG1        0.0532
     33 H          -4.9216    1.2154   -1.1463 H       1  LIG1        0.0532
     34 H           2.4806   -0.7089   -2.6582 H       1  LIG1        0.0687
     35 H          -0.7382    2.7747   -1.1338 H       1  LIG1        0.0304
     36 H           0.8789    2.3149   -0.6994 H       1  LIG1        0.0304
     37 H           1.6672    5.2073   -3.9958 H       1  LIG1        0.0524
     38 H           0.8368    3.8829   -4.8413 H       1  LIG1        0.0524
     39 H           2.5336    3.7029   -4.2701 H       1  LIG1        0.0524
     40 H          -0.0549    2.0520    1.2777 H       1  LIG1        0.0234
     41 H           1.3173    0.9364    1.0869 H       1  LIG1        0.0234
     42 H           0.1000    0.6826    2.3465 H       1  LIG1        0.0234
     43 H          -1.6038   -1.5521    2.6580 H       1  LIG1        0.0659
     44 H           2.8893   -3.7105    2.9530 H       1  LIG1        0.0655
     45 H           2.1590   -2.6972    0.8168 H       1  LIG1        0.0623
     46 H           0.4810   -2.4099    6.6896 H       1  LIG1        0.1166
     47 H          -0.2786   -3.9985    6.4249 H       1  LIG1        0.1166
@<TRIPOS>BOND
     1     1     2    1
     2     2     3    2
     3     4     5    1
     4     5     6    2
     5     6     7    1
     6     7     9    1
     7     9    11    1
     8     4    11    1
     9    12    13    1
    10     5    14    1
    11    14    15    1
    12    15    17    1
    13     4    17    1
    14    20    21   ar
    15    21    22   ar
    16    22    23   ar
    17    23    24   ar
    18    24    25   ar
    19    20    25   ar
    20    23    26    1
    21    26    27    1
    22    27    28    1
    23    22    28    1
    24     1     4    1
    25     7     8    2
    26    15    16    1
    27    15    20    1
    28    17    18    1
    29    17    19    1
    30     9    12    1
    31     9    10    1
    32     1    29    1
    33     1    30    1
    34     2    31    1
    35     3    32    1
    36     3    33    1
    37     6    34    1
    38    11    35    1
    39    11    36    1
    40    13    37    1
    41    13    38    1
    42    13    39    1
    43    19    40    1
    44    19    41    1
    45    19    42    1
    46    21    43    1
    47    24    44    1
    48    25    45    1
    49    27    46    1
    50    27    47    1
