@<TRIPOS>MOLECULE
NuBBE_1995
 42 44 0 0 0
SMALL
GASTEIGER

@<TRIPOS>ATOM
      1 O          -4.3876    0.1905   -1.0705 O.3     1  LIG1       -0.5060
      2 C          -3.0619    0.0807   -1.4000 C.ar    1  LIG1        0.1296
      3 C          -2.5141   -1.1230   -1.8756 C.ar    1  LIG1        0.0335
      4 C          -3.3329   -2.3820   -1.9845 C.3     1  LIG1       -0.0327
      5 C          -1.1395   -1.1456   -2.1769 C.ar    1  LIG1        0.1372
      6 O          -0.6002   -2.3063   -2.6592 O.3     1  LIG1       -0.5056
      7 C          -0.3280   -0.0205   -1.9811 C.ar    1  LIG1        0.1012
      8 C           1.1216    0.0073   -2.3144 C.2     1  LIG1        0.1740
      9 C           1.8699    1.2624   -1.9598 C.3     1  LIG1        0.0520
     10 C           1.2361    1.8869   -0.7253 C.3     1  LIG1        0.1323
     11 H           1.7354    2.8492   -0.5524 H       1  LIG1        0.0789
     12 C           1.3705    1.1210    0.5955 C.ar    1  LIG1       -0.0033
     13 C           0.4015    1.2512    1.6015 C.ar    1  LIG1       -0.0514
     14 C           0.5193    0.5600    2.8101 C.ar    1  LIG1       -0.0161
     15 C           1.6258   -0.2558    3.0518 C.ar    1  LIG1        0.1585
     16 O           1.6973   -0.9093    4.2502 O.3     1  LIG1       -0.5033
     17 C           2.6263   -0.3829    2.0859 C.ar    1  LIG1        0.1616
     18 O           3.7795   -1.1192    2.1493 O.3     1  LIG1       -0.4914
     19 C           4.0504   -1.8285    3.3495 C.3     1  LIG1        0.0790
     20 C           2.4867    0.3111    0.8715 C.ar    1  LIG1       -0.0096
     21 O          -0.1302    2.2208   -1.0491 O.3     1  LIG1       -0.4826
     22 O           1.6913   -0.9069   -2.9081 O.2     1  LIG1       -0.2917
     23 C          -0.8906    1.1383   -1.4327 C.ar    1  LIG1        0.1418
     24 C          -2.2728    1.2265   -1.2019 C.ar    1  LIG1        0.0338
     25 C          -2.8901    2.4936   -0.6699 C.3     1  LIG1       -0.0327
     26 H          -4.8927   -0.5364   -1.4636 H       1  LIG1        0.2922
     27 H          -4.3342   -2.1861   -2.3765 H       1  LIG1        0.0280
     28 H          -3.4160   -2.8483   -0.9970 H       1  LIG1        0.0280
     29 H          -2.8852   -3.1086   -2.6696 H       1  LIG1        0.0280
     30 H          -0.6339   -2.9649   -1.9446 H       1  LIG1        0.2922
     31 H           1.7955    1.9400   -2.8186 H       1  LIG1        0.0385
     32 H           2.9268    1.0272   -1.8059 H       1  LIG1        0.0385
     33 H          -0.4679    1.8891    1.4531 H       1  LIG1        0.0623
     34 H          -0.2638    0.6747    3.5539 H       1  LIG1        0.0655
     35 H           0.9149   -0.6925    4.7817 H       1  LIG1        0.2923
     36 H           4.9978   -2.3599    3.2168 H       1  LIG1        0.0660
     37 H           3.2852   -2.5860    3.5459 H       1  LIG1        0.0660
     38 H           4.1786   -1.1420    4.1928 H       1  LIG1        0.0660
     39 H           3.2882    0.1996    0.1440 H       1  LIG1        0.0659
     40 H          -2.3095    3.3770   -0.9554 H       1  LIG1        0.0280
     41 H          -2.9546    2.4506    0.4212 H       1  LIG1        0.0280
     42 H          -3.8931    2.6472   -1.0825 H       1  LIG1        0.0280
@<TRIPOS>BOND
     1     1     2    1
     2     2     3   ar
     3     3     4    1
     4     3     5   ar
     5     5     6    1
     6     5     7   ar
     7     7     8    1
     8     8     9    1
     9     9    10    1
    10    12    13   ar
    11    13    14   ar
    12    14    15   ar
    13    15    16    1
    14    15    17   ar
    15    17    18    1
    16    18    19    1
    17    17    20   ar
    18    12    20   ar
    19    10    21    1
    20     8    22    2
    21     7    23   ar
    22    21    23    1
    23    23    24   ar
    24     2    24   ar
    25    24    25    1
    26    10    12    1
    27    10    11    1
    28     1    26    1
    29     4    27    1
    30     4    28    1
    31     4    29    1
    32     6    30    1
    33     9    31    1
    34     9    32    1
    35    13    33    1
    36    14    34    1
    37    16    35    1
    38    19    36    1
    39    19    37    1
    40    19    38    1
    41    20    39    1
    42    25    40    1
    43    25    41    1
    44    25    42    1
