REMARK  Name = NuBBE_1858
REMARK  11 active torsions:
REMARK  status: ('A' for Active; 'I' for Inactive)
REMARK    1  A    between atoms: O_1  and  C_2
REMARK    2  A    between atoms: C_7  and  C_8
REMARK    3  A    between atoms: C_8  and  C_9
REMARK    4  A    between atoms: C_9  and  C_10
REMARK    5  A    between atoms: C_10  and  C_11
REMARK    6  A    between atoms: C_11  and  C_12
REMARK    7  A    between atoms: C_12  and  O_14
REMARK    8  A    between atoms: C_12  and  C_15
REMARK    9  A    between atoms: C_15  and  C_16
REMARK   10  A    between atoms: C_16  and  C_17
REMARK   11  A    between atoms: C_20  and  O_21
REMARK                            x       y       z     vdW  Elec       q    Type
REMARK                         _______ _______ _______ _____ _____    ______ ____
ROOT
ATOM      1  C   LIG A   1      -0.162  -0.537   1.757  0.00  0.00    +0.115 C 
ENDROOT
BRANCH   1   2
ATOM      2  O   LIG A   1       0.048   0.650   2.522  0.00  0.00    -0.392 OA
ATOM      3  H   LIG A   1       1.001   0.702   2.710  0.00  0.00    +0.210 HD
ENDBRANCH   1   2
BRANCH   1   4
ATOM      4  C   LIG A   1      -1.528  -0.435   1.054  0.00  0.00    +0.031 C 
BRANCH   4   5
ATOM      5  C   LIG A   1      -1.656   0.734   0.061  0.00  0.00    +0.003 C 
BRANCH   5   6
ATOM      6  C   LIG A   1      -0.665   0.665  -1.109  0.00  0.00    +0.005 C 
BRANCH   6   7
ATOM      7  C   LIG A   1      -0.808   1.823  -2.103  0.00  0.00    +0.035 C 
BRANCH   7  13
ATOM      8  C   LIG A   1      -0.071   5.753  -0.504  0.00  0.00    +0.117 A 
ATOM      9  C   LIG A   1      -1.317   5.450  -1.050  0.00  0.00    +0.045 A 
ATOM     10  C   LIG A   1      -1.544   4.166  -1.553  0.00  0.00    +0.007 A 
ATOM     11  C   LIG A   1       0.927   4.795  -0.442  0.00  0.00    +0.045 A 
ATOM     12  C   LIG A   1       0.702   3.514  -0.950  0.00  0.00    +0.007 A 
ATOM     13  C   LIG A   1      -0.542   3.189  -1.517  0.00  0.00    -0.047 A 
BRANCH   8  14
ATOM     14  O   LIG A   1       0.201   7.001  -0.026  0.00  0.00    -0.507 OA
ATOM     15  H   LIG A   1      -0.560   7.573  -0.205  0.00  0.00    +0.292 HD
ENDBRANCH   8  14
ENDBRANCH   7  13
ENDBRANCH   6   7
ENDBRANCH   5   6
ENDBRANCH   4   5
ENDBRANCH   1   4
BRANCH   1  16
ATOM     16  C   LIG A   1      -0.041  -1.749   2.694  0.00  0.00    +0.036 C 
BRANCH  16  17
ATOM     17  C   LIG A   1      -0.264  -3.141   2.081  0.00  0.00    +0.037 C 
BRANCH  17  18
ATOM     18  C   LIG A   1       0.675  -3.611   0.990  0.00  0.00    -0.047 A 
ATOM     19  C   LIG A   1       0.784  -2.917  -0.227  0.00  0.00    +0.007 A 
ATOM     20  C   LIG A   1       1.488  -3.441  -1.310  0.00  0.00    +0.045 A 
ATOM     21  C   LIG A   1       2.066  -4.688  -1.196  0.00  0.00    +0.117 A 
ATOM     22  C   LIG A   1       2.024  -5.382   0.007  0.00  0.00    +0.045 A 
ATOM     23  C   LIG A   1       1.330  -4.846   1.097  0.00  0.00    +0.007 A 
BRANCH  21  24
ATOM     24  O   LIG A   1       2.641  -5.292  -2.274  0.00  0.00    -0.507 OA
ATOM     25  H   LIG A   1       2.282  -4.862  -3.072  0.00  0.00    +0.292 HD
ENDBRANCH  21  24
ENDBRANCH  17  18
ENDBRANCH  16  17
ENDBRANCH   1  16
TORSDOF 11
