@<TRIPOS>MOLECULE
NuBBE_35
 57 61 0 0 0
SMALL
GASTEIGER

@<TRIPOS>ATOM
      1 C           3.7113    3.3272   -0.1539 C.3     1  LIG1        0.0790
      2 O           3.3677    2.3644    0.8377 O.3     1  LIG1       -0.4913
      3 C           2.3159    2.6789    1.6375 C.ar    1  LIG1        0.1657
      4 C           1.8582    3.9501    1.9751 C.ar    1  LIG1        0.2075
      5 O           2.3893    5.1385    1.6010 O.3     1  LIG1       -0.4489
      6 C           1.5148    6.0737    2.2770 C.3     1  LIG1        0.2334
      7 O           0.4895    5.4300    3.0514 O.3     1  LIG1       -0.4525
      8 C           0.7724    4.1066    2.8045 C.ar    1  LIG1        0.1702
      9 C           0.0639    3.0499    3.3300 C.ar    1  LIG1       -0.0103
     10 C           0.4940    1.7455    3.0205 C.ar    1  LIG1       -0.0114
     11 C          -0.2593    0.5575    3.5872 C.3     1  LIG1        0.0892
     12 H          -0.5362    0.8148    4.6158 H       1  LIG1        0.0650
     13 C          -1.5011    0.0204    2.8626 C.3     1  LIG1        0.0205
     14 H          -2.2092   -0.3394    3.6195 H       1  LIG1        0.0356
     15 C          -2.2046    0.8649    1.8292 C.3     1  LIG1        0.0544
     16 O          -1.5126    0.6845    0.5883 O.3     1  LIG1       -0.3712
     17 C          -0.6785   -0.4869    0.6892 C.3     1  LIG1        0.0892
     18 H           0.3539   -0.1294    0.6700 H       1  LIG1        0.0650
     19 C          -0.8707   -1.3400   -0.5451 C.ar    1  LIG1       -0.0114
     20 C          -1.8625   -2.3175   -0.6553 C.ar    1  LIG1       -0.0104
     21 C          -2.0196   -3.0787   -1.8251 C.ar    1  LIG1        0.1655
     22 O          -3.0341   -3.9983   -1.6985 O.3     1  LIG1       -0.4913
     23 C          -3.2971   -4.8711   -2.7872 C.3     1  LIG1        0.0790
     24 C          -1.1883   -2.8400   -2.9361 C.ar    1  LIG1        0.2035
     25 O          -1.4749   -3.5337   -4.0817 O.3     1  LIG1       -0.4885
     26 C          -0.4315   -3.9152   -4.9639 C.3     1  LIG1        0.0791
     27 C          -0.2086   -1.8278   -2.8574 C.ar    1  LIG1        0.1655
     28 O           0.5193   -1.5708   -3.9900 O.3     1  LIG1       -0.4913
     29 C           1.5127   -0.5583   -3.9400 C.3     1  LIG1        0.0790
     30 C          -0.0537   -1.1055   -1.6630 C.ar    1  LIG1       -0.0104
     31 C          -0.9785   -1.1296    2.0454 C.3     1  LIG1        0.0205
     32 H          -1.7236   -1.9247    1.9745 H       1  LIG1        0.0356
     33 C           0.2316   -1.6127    2.8061 C.3     1  LIG1        0.0544
     34 O           0.6433   -0.5685    3.6973 O.3     1  LIG1       -0.3712
     35 C           1.6402    1.5978    2.2074 C.ar    1  LIG1       -0.0104
     36 H           4.4123    2.8525   -0.8435 H       1  LIG1        0.0660
     37 H           4.2208    4.1855    0.2901 H       1  LIG1        0.0660
     38 H           2.8330    3.6350   -0.7342 H       1  LIG1        0.0660
     39 H           1.0431    6.7138    1.5336 H       1  LIG1        0.1166
     40 H           2.1245    6.6973    2.9488 H       1  LIG1        0.1166
     41 H          -0.7850    3.2286    3.9768 H       1  LIG1        0.0659
     42 H          -2.2810    1.9255    2.0810 H       1  LIG1        0.0564
     43 H          -3.2240    0.4913    1.6706 H       1  LIG1        0.0564
     44 H          -2.5595   -2.5009    0.1579 H       1  LIG1        0.0659
     45 H          -2.4299   -5.5033   -3.0068 H       1  LIG1        0.0660
     46 H          -3.6395   -4.3134   -3.6648 H       1  LIG1        0.0660
     47 H          -4.1160   -5.5361   -2.4965 H       1  LIG1        0.0660
     48 H           0.5795   -3.8203   -4.5575 H       1  LIG1        0.0660
     49 H          -0.5367   -3.3492   -5.8953 H       1  LIG1        0.0660
     50 H          -0.5778   -4.9747   -5.2003 H       1  LIG1        0.0660
     51 H           2.0221   -0.5518   -4.9082 H       1  LIG1        0.0660
     52 H           2.2654   -0.7698   -3.1732 H       1  LIG1        0.0660
     53 H           1.0557    0.4251   -3.7936 H       1  LIG1        0.0660
     54 H           0.6872   -0.3137   -1.5838 H       1  LIG1        0.0659
     55 H           1.0693   -1.8916    2.1594 H       1  LIG1        0.0564
     56 H          -0.0222   -2.4818    3.4211 H       1  LIG1        0.0564
     57 H           2.0251    0.5953    1.9887 H       1  LIG1        0.0659
@<TRIPOS>BOND
     1     1     2    1
     2     2     3    1
     3     3     4   ar
     4     4     5    1
     5     5     6    1
     6     6     7    1
     7     4     8   ar
     8     7     8    1
     9     8     9   ar
    10     9    10   ar
    11    11    13    1
    12    13    14    1
    13    13    15    1
    14    15    16    1
    15    16    17    1
    16    19    20   ar
    17    20    21   ar
    18    21    22    1
    19    22    23    1
    20    21    24   ar
    21    24    25    1
    22    25    26    1
    23    24    27   ar
    24    27    28    1
    25    28    29    1
    26    27    30   ar
    27    19    30   ar
    28    17    31    1
    29    31    32    1
    30    13    31    1
    31    31    33    1
    32    33    34    1
    33    11    34    1
    34    10    35   ar
    35     3    35   ar
    36    11    12    1
    37    11    10    1
    38    17    19    1
    39    17    18    1
    40     1    36    1
    41     1    37    1
    42     1    38    1
    43     6    39    1
    44     6    40    1
    45     9    41    1
    46    15    42    1
    47    15    43    1
    48    20    44    1
    49    23    45    1
    50    23    46    1
    51    23    47    1
    52    26    48    1
    53    26    49    1
    54    26    50    1
    55    29    51    1
    56    29    52    1
    57    29    53    1
    58    30    54    1
    59    33    55    1
    60    33    56    1
    61    35    57    1
