@<TRIPOS>MOLECULE
NuBBE_378
 36 36 0 0 0
SMALL
GASTEIGER

@<TRIPOS>ATOM
      1 C          -1.2684   -1.0081    4.0474 C.3     1  LIG1        0.0790
      2 O          -1.6914    0.1221    3.2891 O.3     1  LIG1       -0.4913
      3 C          -0.9390    0.3946    2.1679 C.ar    1  LIG1        0.1654
      4 C          -0.8399    1.7452    1.7619 C.ar    1  LIG1        0.2035
      5 O          -1.4573    2.6492    2.5979 O.3     1  LIG1       -0.4885
      6 C          -2.0000    3.8232    2.0084 C.3     1  LIG1        0.0791
      7 C          -0.0684    2.0687    0.6263 C.ar    1  LIG1        0.1654
      8 O           0.0606    3.3880    0.2712 O.3     1  LIG1       -0.4913
      9 C           0.8229    3.6851   -0.8938 C.3     1  LIG1        0.0790
     10 C           0.5713    1.0370   -0.0813 C.ar    1  LIG1       -0.0129
     11 C           0.4450   -0.3030    0.2975 C.ar    1  LIG1       -0.0397
     12 C           1.1401   -1.3869   -0.4897 C.3     1  LIG1       -0.0174
     13 C           0.2769   -1.9177   -1.6305 C.3     1  LIG1        0.0489
     14 C           1.0077   -2.9814   -2.4082 C.2     1  LIG1        0.3071
     15 O           0.5880   -2.9902   -3.7031 O.3     1  LIG1       -0.4679
     16 C           1.1899   -4.0067   -4.5082 C.3     1  LIG1        0.0817
     17 O           1.8330   -3.7558   -1.9313 O.2     1  LIG1       -0.2509
     18 C          -0.3316   -0.6168    1.4129 C.ar    1  LIG1       -0.0129
     19 H          -1.8250   -1.0128    4.9893 H       1  LIG1        0.0660
     20 H          -0.2005   -0.9507    4.2872 H       1  LIG1        0.0660
     21 H          -1.5032   -1.9444    3.5310 H       1  LIG1        0.0660
     22 H          -2.6992    4.2629    2.7282 H       1  LIG1        0.0660
     23 H          -2.5622    3.6019    1.0951 H       1  LIG1        0.0660
     24 H          -1.2246    4.5743    1.8346 H       1  LIG1        0.0660
     25 H           0.7447    4.7579   -1.0900 H       1  LIG1        0.0660
     26 H           0.4287    3.1632   -1.7730 H       1  LIG1        0.0660
     27 H           1.8807    3.4495   -0.7342 H       1  LIG1        0.0660
     28 H           1.1999    1.2526   -0.9392 H       1  LIG1        0.0658
     29 H           1.4223   -2.2002    0.1912 H       1  LIG1        0.0318
     30 H           2.0883   -0.9966   -0.8832 H       1  LIG1        0.0318
     31 H           0.0137   -1.0963   -2.3081 H       1  LIG1        0.0381
     32 H          -0.6526   -2.3563   -1.2502 H       1  LIG1        0.0381
     33 H           0.7677   -3.9380   -5.5146 H       1  LIG1        0.0661
     34 H           0.9619   -4.9987   -4.1055 H       1  LIG1        0.0661
     35 H           2.2717   -3.8540   -4.5750 H       1  LIG1        0.0661
     36 H          -0.4520   -1.6609    1.6818 H       1  LIG1        0.0658
@<TRIPOS>BOND
     1     1     2    1
     2     2     3    1
     3     3     4   ar
     4     4     5    1
     5     5     6    1
     6     4     7   ar
     7     7     8    1
     8     8     9    1
     9     7    10   ar
    10    10    11   ar
    11    11    12    1
    12    12    13    1
    13    13    14    1
    14    14    15    1
    15    15    16    1
    16    14    17    2
    17    11    18   ar
    18     3    18   ar
    19     1    19    1
    20     1    20    1
    21     1    21    1
    22     6    22    1
    23     6    23    1
    24     6    24    1
    25     9    25    1
    26     9    26    1
    27     9    27    1
    28    10    28    1
    29    12    29    1
    30    12    30    1
    31    13    31    1
    32    13    32    1
    33    16    33    1
    34    16    34    1
    35    16    35    1
    36    18    36    1
