REMARK  Name = NuBBE_1380
REMARK  8 active torsions:
REMARK  status: ('A' for Active; 'I' for Inactive)
REMARK    1  A    between atoms: C_1  and  C_2
REMARK    2  A    between atoms: C_2  and  C_3
REMARK    3  A    between atoms: C_4  and  C_5
REMARK    4  A    between atoms: C_5  and  C_6
REMARK    5  A    between atoms: C_6  and  C_7
REMARK    6  A    between atoms: C_7  and  O_8
REMARK    7  A    between atoms: C_7  and  C_9
REMARK    8  A    between atoms: C_7  and  C_10
REMARK                            x       y       z     vdW  Elec       q    Type
REMARK                         _______ _______ _______ _____ _____    ______ ____
ROOT
ATOM      1  C   LIG A   1       0.496  -0.277   0.671  0.00  0.00    +0.043 C 
ENDROOT
BRANCH   1   2
ATOM      2  C   LIG A   1       2.018  -0.216   0.411  0.00  0.00    +0.081 C 
ATOM      3  C   LIG A   1       2.750   0.078   1.729  0.00  0.00    +0.046 C 
BRANCH   2   4
ATOM      4  O   LIG A   1       2.296   0.861  -0.486  0.00  0.00    -0.385 OA
ATOM      5  H   LIG A   1       2.054   1.690  -0.040  0.00  0.00    +0.211 HD
ENDBRANCH   2   4
BRANCH   2   6
ATOM      6  C   LIG A   1       2.539  -1.504  -0.197  0.00  0.00    -0.001 C 
ATOM      7  C   LIG A   1       3.169  -1.624  -1.372  0.00  0.00    +0.007 C 
ENDBRANCH   2   6
ENDBRANCH   1   2
BRANCH   1   8
ATOM      8  C   LIG A   1      -0.346  -0.499  -0.592  0.00  0.00    +0.030 C 
BRANCH   8  12
ATOM      9  C   LIG A   1      -4.148   0.299  -0.049  0.00  0.00    +0.038 C 
ATOM     10  C   LIG A   1      -2.676   0.497  -0.299  0.00  0.00    -0.080 C 
ATOM     11  C   LIG A   1      -2.277   1.923  -0.562  0.00  0.00    +0.038 C 
ATOM     12  C   LIG A   1      -1.820  -0.543  -0.279  0.00  0.00    -0.028 C 
ENDBRANCH   8  12
ENDBRANCH   1   8
TORSDOF 5
