REMARK  Name = NuBBE_2499
REMARK  6 active torsions:
REMARK  status: ('A' for Active; 'I' for Inactive)
REMARK    1  A    between atoms: C_1  and  C_2
REMARK    2  A    between atoms: C_2  and  C_3
REMARK    3  A    between atoms: C_4  and  C_5
REMARK    4  A    between atoms: C_14  and  C_15
REMARK    5  A    between atoms: C_14  and  C_16
REMARK    6  A    between atoms: C_20  and  C_21
REMARK                            x       y       z     vdW  Elec       q    Type
REMARK                         _______ _______ _______ _____ _____    ______ ____
ROOT
ATOM      1  C   LIG A   1       0.195  -2.865  -0.271  0.00  0.00    -0.041 A 
ATOM      2  C   LIG A   1       0.647  -3.251  -1.555  0.00  0.00    -0.047 A 
ATOM      3  C   LIG A   1       0.781  -4.692  -1.970  0.00  0.00    +0.044 C 
ATOM      4  C   LIG A   1       0.979  -2.267  -2.488  0.00  0.00    +0.004 A 
ATOM      5  C   LIG A   1       0.894  -0.917  -2.161  0.00  0.00    +0.005 A 
ATOM      6  C   LIG A   1       0.458  -0.486  -0.894  0.00  0.00    -0.038 A 
ATOM      7  C   LIG A   1       0.097  -1.475   0.054  0.00  0.00    -0.040 A 
ATOM      8  C   LIG A   1      -0.329  -1.029   1.430  0.00  0.00    +0.036 C 
ATOM      9  C   LIG A   1      -1.083   0.285   1.365  0.00  0.00    +0.009 C 
ATOM     10  C   LIG A   1      -0.175   1.404   0.836  0.00  0.00    +0.005 C 
ATOM     11  C   LIG A   1      -0.891   2.814   0.931  0.00  0.00    -0.031 C 
ATOM     12  C   LIG A   1      -0.687   3.384   2.356  0.00  0.00    +0.011 C 
ATOM     13  C   LIG A   1      -2.420   2.765   0.691  0.00  0.00    +0.011 C 
ATOM     14  C   LIG A   1      -0.271   3.812  -0.063  0.00  0.00    +0.007 C 
ATOM     15  C   LIG A   1      -0.308   3.333  -1.508  0.00  0.00    +0.001 C 
ATOM     16  C   LIG A   1      -0.288   1.814  -1.682  0.00  0.00    +0.012 C 
ATOM     17  C   LIG A   1       0.457   1.035  -0.568  0.00  0.00    -0.004 C 
ATOM     18  C   LIG A   1       1.958   1.448  -0.554  0.00  0.00    +0.016 C 
ENDROOT
BRANCH   1  20
ATOM     19  C   LIG A   1       1.011  -4.204   1.711  0.00  0.00    +0.009 C 
ATOM     20  C   LIG A   1      -0.141  -3.939   0.752  0.00  0.00    +0.032 C 
ENDBRANCH   1  20
TORSDOF 1
