REMARK  Name = NuBBE_936
REMARK  2 active torsions:
REMARK  status: ('A' for Active; 'I' for Inactive)
REMARK    1  A    between atoms: O_1  and  C_2
REMARK    2  A    between atoms: O_1  and  C_3
REMARK                            x       y       z     vdW  Elec       q    Type
REMARK                         _______ _______ _______ _____ _____    ______ ____
ROOT
ATOM      1  C   LIG A   1      -0.699  -0.353   0.307  0.00  0.00    +0.141 A 
ATOM      2  C   LIG A   1      -0.089  -1.608   0.166  0.00  0.00    +0.082 A 
ATOM      3  C   LIG A   1       1.282  -1.613  -0.059  0.00  0.00    +0.231 A 
ATOM      4  N   LIG A   1       2.094  -0.550  -0.146  0.00  0.00    -0.212 NA
ATOM      5  C   LIG A   1       1.494   0.633   0.035  0.00  0.00    +0.078 A 
ATOM      6  C   LIG A   1       0.110   0.802   0.274  0.00  0.00    +0.043 A 
ATOM      7  C   LIG A   1      -0.410   2.102   0.466  0.00  0.00    +0.013 A 
ATOM      8  C   LIG A   1       0.419   3.220   0.414  0.00  0.00    +0.001 A 
ATOM      9  C   LIG A   1       1.774   3.052   0.171  0.00  0.00    +0.002 A 
ATOM     10  C   LIG A   1       2.293   1.767  -0.014  0.00  0.00    +0.028 A 
ATOM     11  O   LIG A   1       1.723  -2.897  -0.186  0.00  0.00    -0.445 OA
ATOM     12  C   LIG A   1       0.646  -3.710  -0.028  0.00  0.00    +0.198 A 
ATOM     13  C   LIG A   1      -0.491  -2.969   0.193  0.00  0.00    +0.055 A 
ENDROOT
BRANCH   1  14
ATOM     14  O   LIG A   1      -2.052  -0.245   0.559  0.00  0.00    -0.494 OA
ATOM     15  C   LIG A   1      -2.786  -0.362  -0.661  0.00  0.00    +0.277 C 
ENDBRANCH   1  14
TORSDOF 1
