REMARK  Name = NuBBE_624
REMARK  6 active torsions:
REMARK  status: ('A' for Active; 'I' for Inactive)
REMARK    1  A    between atoms: C_2  and  O_3
REMARK    2  A    between atoms: C_2  and  C_5
REMARK    3  A    between atoms: O_3  and  C_4
REMARK    4  A    between atoms: C_7  and  O_8
REMARK    5  A    between atoms: C_9  and  O_10
REMARK    6  A    between atoms: C_11  and  O_12
REMARK                            x       y       z     vdW  Elec       q    Type
REMARK                         _______ _______ _______ _____ _____    ______ ____
ROOT
ATOM      1  C   LIG A   1      -0.336  -0.293  -0.071  0.00  0.00    +0.066 A 
ATOM      2  C   LIG A   1      -1.149   0.851  -0.183  0.00  0.00    +0.064 A 
ATOM      3  C   LIG A   1      -0.592   2.107   0.045  0.00  0.00    +0.163 A 
ATOM      4  C   LIG A   1       0.752   2.227   0.384  0.00  0.00    +0.201 A 
ATOM      5  C   LIG A   1       1.549   1.097   0.501  0.00  0.00    +0.163 A 
ATOM      6  C   LIG A   1       1.018  -0.163   0.278  0.00  0.00    +0.064 A 
ENDROOT
BRANCH   1   8
ATOM      7  O   LIG A   1      -2.114  -1.798  -0.615  0.00  0.00    -0.245 OA
ATOM      8  C   LIG A   1      -0.941  -1.627  -0.338  0.00  0.00    +0.339 C 
BRANCH   8   9
ATOM      9  O   LIG A   1       0.013  -2.584  -0.233  0.00  0.00    -0.464 OA
ATOM     10  C   LIG A   1      -0.406  -3.921  -0.498  0.00  0.00    +0.280 C 
ENDBRANCH   8   9
ENDBRANCH   1   8
BRANCH   3  11
ATOM     11  O   LIG A   1      -1.324   3.257  -0.054  0.00  0.00    -0.503 OA
ATOM     12  H   LIG A   1      -2.238   3.024  -0.292  0.00  0.00    +0.292 HD
ENDBRANCH   3  11
BRANCH   4  13
ATOM     13  O   LIG A   1       1.311   3.456   0.604  0.00  0.00    -0.501 OA
ATOM     14  H   LIG A   1       0.574   4.085   0.463  0.00  0.00    +0.292 HD
ENDBRANCH   4  13
BRANCH   5  15
ATOM     15  O   LIG A   1       2.866   1.213   0.834  0.00  0.00    -0.503 OA
ATOM     16  H   LIG A   1       3.014   2.175   0.938  0.00  0.00    +0.292 HD
ENDBRANCH   5  15
TORSDOF 5
