REMARK  Name = NuBBE_555
REMARK  9 active torsions:
REMARK  status: ('A' for Active; 'I' for Inactive)
REMARK    1  A    between atoms: O_1  and  C_2
REMARK    2  A    between atoms: C_2  and  C_4
REMARK    3  A    between atoms: C_2  and  C_19
REMARK    4  A    between atoms: C_4  and  C_5
REMARK    5  A    between atoms: C_5  and  O_7
REMARK    6  A    between atoms: C_5  and  C_8
REMARK    7  A    between atoms: C_8  and  C_9
REMARK    8  A    between atoms: C_10  and  C_11
REMARK    9  A    between atoms: C_20  and  C_21
REMARK                            x       y       z     vdW  Elec       q    Type
REMARK                         _______ _______ _______ _____ _____    ______ ____
ROOT
ATOM      1  C   LIG A   1      -0.327   0.502  -0.965  0.00  0.00    +0.121 C 
ENDROOT
BRANCH   1   2
ATOM      2  O   LIG A   1      -1.657   0.377  -1.483  0.00  0.00    -0.391 OA
ATOM      3  H   LIG A   1      -1.960   1.280  -1.695  0.00  0.00    +0.210 HD
ENDBRANCH   1   2
BRANCH   1   4
ATOM      4  C   LIG A   1       0.125  -0.872  -0.446  0.00  0.00    +0.067 C 
BRANCH   4   5
ATOM      5  C   LIG A   1      -0.774  -1.421   0.676  0.00  0.00    +0.140 C 
BRANCH   5   6
ATOM      6  O   LIG A   1      -2.102  -1.638   0.212  0.00  0.00    -0.388 OA
ATOM      7  H   LIG A   1      -2.228  -1.065  -0.573  0.00  0.00    +0.210 HD
ENDBRANCH   5   6
BRANCH   5   8
ATOM      8  C   LIG A   1      -0.288  -2.764   1.132  0.00  0.00    +0.004 C 
ATOM      9  C   LIG A   1       0.095  -3.080   2.381  0.00  0.00    +0.006 C 
BRANCH   9  10
ATOM     10  C   LIG A   1       0.559  -4.425   2.767  0.00  0.00    -0.025 A 
ATOM     11  C   LIG A   1       0.346  -4.888   4.073  0.00  0.00    +0.008 A 
ATOM     12  C   LIG A   1       0.797  -6.155   4.461  0.00  0.00    +0.001 A 
ATOM     13  C   LIG A   1       1.472  -6.968   3.553  0.00  0.00    +0.000 A 
ATOM     14  C   LIG A   1       1.705  -6.513   2.259  0.00  0.00    +0.001 A 
ATOM     15  C   LIG A   1       1.260  -5.247   1.873  0.00  0.00    +0.008 A 
ENDBRANCH   9  10
ENDBRANCH   5   8
ENDBRANCH   4   5
ENDBRANCH   1   4
BRANCH   1  16
ATOM     16  C   LIG A   1       0.627   0.991  -2.070  0.00  0.00    +0.058 C 
BRANCH  16  17
ATOM     17  C   LIG A   1       0.235   2.328  -2.638  0.00  0.00    -0.025 C 
ATOM     18  C   LIG A   1       0.685   3.505  -2.171  0.00  0.00    +0.013 C 
BRANCH  18  19
ATOM     19  C   LIG A   1       0.318   4.855  -2.746  0.00  0.00    +0.203 C 
ATOM     20  O   LIG A   1       0.983   5.873  -1.970  0.00  0.00    -0.454 OA
ATOM     21  C   LIG A   1       0.443   6.305  -0.806  0.00  0.00    +0.332 C 
ATOM     22  C   LIG A   1      -0.980   6.020  -0.571  0.00  0.00    +0.087 C 
ATOM     23  C   LIG A   1      -1.760   5.503  -1.531  0.00  0.00    -0.016 C 
ATOM     24  C   LIG A   1      -1.187   5.135  -2.860  0.00  0.00    +0.076 C 
ATOM     25  O   LIG A   1       1.093   6.940   0.026  0.00  0.00    -0.246 OA
ENDBRANCH  18  19
ENDBRANCH  16  17
ENDBRANCH   1  16
TORSDOF 9
