@<TRIPOS>MOLECULE
NuBBE_2243
 59 62 0 0 0
SMALL
GASTEIGER

@<TRIPOS>ATOM
      1 C          -0.7254    0.7609    4.6186 C.3     1  LIG1       -0.0568
      2 C          -0.0656   -0.0456    3.4751 C.3     1  LIG1        0.0012
      3 C           1.4475   -0.2273    3.7333 C.3     1  LIG1       -0.0568
      4 C          -0.7274   -1.4506    3.5982 C.3     1  LIG1       -0.0447
      5 C          -0.4591   -2.3388    2.4060 C.3     1  LIG1       -0.0497
      6 C          -1.1506   -1.7799    1.1788 C.3     1  LIG1       -0.0197
      7 C          -0.7685   -0.3374    0.8961 C.3     1  LIG1        0.1168
      8 O          -1.6629    0.5304    1.6536 O.3     1  LIG1       -0.3546
      9 C          -0.2998    0.6124    2.0608 C.3     1  LIG1        0.1328
     10 C           0.4902    1.8477    1.6600 C.2     1  LIG1        0.0218
     11 C           0.7480    2.0552    0.2268 C.2     1  LIG1        0.1223
     12 O           1.4585    3.2019   -0.0949 O.2     1  LIG1       -0.5064
     13 C           0.3231    1.2837   -0.7853 C.2     1  LIG1       -0.0148
     14 C          -0.6290    0.1138   -0.6140 C.3     1  LIG1        0.0616
     15 C          -2.0064    0.6549   -1.0392 C.3     1  LIG1       -0.0495
     16 C          -0.2161   -1.1042   -1.5745 C.3     1  LIG1        0.1157
     17 H           0.4459   -1.7617   -0.9934 H       1  LIG1        0.0744
     18 O          -1.4078   -1.9295   -1.8960 O.3     1  LIG1       -0.4605
     19 C          -2.3471   -1.5579   -2.8202 C.2     1  LIG1        0.3042
     20 C          -3.7281   -1.7433   -2.2656 C.3     1  LIG1        0.0332
     21 O          -2.1476   -0.9667   -3.9019 O.2     1  LIG1       -0.2512
     22 C           0.5903   -0.8143   -2.8557 C.3     1  LIG1       -0.0056
     23 C           1.5269    0.4003   -2.8322 C.3     1  LIG1       -0.0071
     24 C           1.8443    0.7805   -4.2989 C.3     1  LIG1       -0.0557
     25 C           2.8017    0.0940   -2.0469 C.2     1  LIG1       -0.0848
     26 C           3.9715   -0.3309   -2.5459 C.2     1  LIG1       -0.1021
     27 C           0.7414    1.5796   -2.2150 C.3     1  LIG1       -0.0183
     28 C           0.9786    2.7664    2.5207 C.2     1  LIG1       -0.0892
     29 H          -0.6641    0.2107    5.5664 H       1  LIG1        0.0236
     30 H          -1.7871    0.9376    4.4096 H       1  LIG1        0.0236
     31 H          -0.2709    1.7301    4.8086 H       1  LIG1        0.0236
     32 H           1.6327   -0.8562    4.6110 H       1  LIG1        0.0236
     33 H           1.9589    0.7200    3.9187 H       1  LIG1        0.0236
     34 H           1.9409   -0.6960    2.8743 H       1  LIG1        0.0236
     35 H          -1.8144   -1.3542    3.7290 H       1  LIG1        0.0271
     36 H          -0.3659   -1.9561    4.5048 H       1  LIG1        0.0271
     37 H          -0.8419   -3.3459    2.6071 H       1  LIG1        0.0266
     38 H           0.6161   -2.4378    2.2253 H       1  LIG1        0.0266
     39 H          -2.2403   -1.8541    1.2946 H       1  LIG1        0.0294
     40 H          -0.8925   -2.4571    0.3700 H       1  LIG1        0.0294
     41 H           0.9304    3.9420    0.2546 H       1  LIG1        0.2921
     42 H          -2.2694    1.6260   -0.6144 H       1  LIG1        0.0240
     43 H          -2.7574   -0.0323   -0.6566 H       1  LIG1        0.0240
     44 H          -2.0873    0.7679   -2.1234 H       1  LIG1        0.0240
     45 H          -4.0573   -0.8567   -1.7204 H       1  LIG1        0.0342
     46 H          -3.7490   -2.6026   -1.5949 H       1  LIG1        0.0342
     47 H          -4.4433   -1.8704   -3.0796 H       1  LIG1        0.0342
     48 H          -0.0853   -0.6557   -3.6890 H       1  LIG1        0.0309
     49 H           1.1362   -1.7256   -3.1423 H       1  LIG1        0.0309
     50 H           0.9288    1.0277   -4.8507 H       1  LIG1        0.0238
     51 H           2.3239   -0.0423   -4.8402 H       1  LIG1        0.0238
     52 H           2.5004    1.6564   -4.3466 H       1  LIG1        0.0238
     53 H           2.7670    0.2548   -0.9695 H       1  LIG1        0.0572
     54 H           4.1221   -0.5326   -3.6006 H       1  LIG1        0.0532
     55 H           4.8234   -0.4909   -1.8919 H       1  LIG1        0.0532
     56 H          -0.1594    1.7854   -2.8103 H       1  LIG1        0.0320
     57 H           1.3435    2.4912   -2.2919 H       1  LIG1        0.0320
     58 H           0.8488    2.7128    3.5875 H       1  LIG1        0.0540
     59 H           1.5858    3.6107    2.2127 H       1  LIG1        0.0540
@<TRIPOS>BOND
     1     1     2    1
     2     2     3    1
     3     2     4    1
     4     4     5    1
     5     5     6    1
     6     6     7    1
     7     7     8    1
     8     7     9    1
     9     8     9    1
    10     2     9    1
    11     9    10    1
    12    10    11    1
    13    11    12    1
    14    11    13    2
    15    13    14    1
    16    14    15    1
    17     7    14    1
    18    14    16    1
    19    16    17    1
    20    16    18    1
    21    18    19    1
    22    19    20    1
    23    19    21    2
    24    16    22    1
    25    22    23    1
    26    25    26    2
    27    23    27    1
    28    13    27    1
    29    10    28    2
    30    23    25    1
    31    23    24    1
    32     1    29    1
    33     1    30    1
    34     1    31    1
    35     3    32    1
    36     3    33    1
    37     3    34    1
    38     4    35    1
    39     4    36    1
    40     5    37    1
    41     5    38    1
    42     6    39    1
    43     6    40    1
    44    12    41    1
    45    15    42    1
    46    15    43    1
    47    15    44    1
    48    20    45    1
    49    20    46    1
    50    20    47    1
    51    22    48    1
    52    22    49    1
    53    24    50    1
    54    24    51    1
    55    24    52    1
    56    25    53    1
    57    26    54    1
    58    26    55    1
    59    27    56    1
    60    27    57    1
    61    28    58    1
    62    28    59    1
