@<TRIPOS>MOLECULE
NuBBE_2511
 34 37 0 0 0
SMALL
GASTEIGER

@<TRIPOS>ATOM
      1 O          -1.8407   -0.1248    3.2789 O.2     1  LIG1       -0.2890
      2 C          -1.1090   -0.3467    2.3173 C.2     1  LIG1        0.1991
      3 C          -0.6151    0.7329    1.3877 C.3     1  LIG1        0.1622
      4 H          -1.2850    1.5982    1.4910 H       1  LIG1        0.0721
      5 C          -0.6707    0.1578   -0.0298 C.3     1  LIG1        0.1588
      6 H          -1.7050   -0.1042   -0.2955 H       1  LIG1        0.0816
      7 O           0.1529   -1.0107   -0.1891 O.3     1  LIG1       -0.4803
      8 C          -0.0345   -1.9603    0.7819 C.ar    1  LIG1        0.1355
      9 C           0.4529   -3.2403    0.5042 C.ar    1  LIG1        0.0223
     10 C           0.2742   -4.2586    1.4396 C.ar    1  LIG1        0.1204
     11 O           0.7178   -5.5269    1.2036 O.3     1  LIG1       -0.5066
     12 C          -0.3677   -4.0200    2.6514 C.ar    1  LIG1       -0.0193
     13 C          -0.8372   -2.7399    2.9415 C.ar    1  LIG1       -0.0442
     14 C          -0.6570   -1.7141    2.0083 C.ar    1  LIG1        0.0620
     15 C          -0.1610    1.2163   -0.9871 C.ar    1  LIG1        0.0046
     16 C          -0.5785    1.2334   -2.3284 C.ar    1  LIG1       -0.0094
     17 C          -0.1457    2.2574   -3.1627 C.ar    1  LIG1        0.1586
     18 O          -0.5540    2.3519   -4.4645 O.3     1  LIG1       -0.5033
     19 C           0.7129    3.2430   -2.6836 C.ar    1  LIG1        0.1586
     20 O           1.1144    4.2566   -3.5056 O.3     1  LIG1       -0.5033
     21 C           1.1587    3.2246   -1.3701 C.ar    1  LIG1       -0.0108
     22 C           0.7246    2.2092   -0.5069 C.ar    1  LIG1       -0.0115
     23 C           1.1543    2.2376    0.9452 C.3     1  LIG1        0.0743
     24 O           0.7216    1.1101    1.7138 O.3     1  LIG1       -0.3601
     25 H           0.9563   -3.4253   -0.4394 H       1  LIG1        0.0691
     26 H           1.1468   -5.5551    0.3324 H       1  LIG1        0.2921
     27 H          -0.4951   -4.8251    3.3690 H       1  LIG1        0.0654
     28 H          -1.3249   -2.5440    3.8929 H       1  LIG1        0.0627
     29 H          -1.2482    0.4619   -2.6956 H       1  LIG1        0.0659
     30 H          -1.1586    1.6130   -4.6493 H       1  LIG1        0.2923
     31 H           0.6711    4.0721   -4.3576 H       1  LIG1        0.2923
     32 H           1.8240    4.0098   -1.0212 H       1  LIG1        0.0659
     33 H           0.7574    3.1421    1.4222 H       1  LIG1        0.0610
     34 H           2.2480    2.2682    1.0053 H       1  LIG1        0.0610
@<TRIPOS>BOND
     1     2     3    1
     2     3     5    1
     3     5     7    1
     4     7     8    1
     5     8     9   ar
     6     9    10   ar
     7    10    12   ar
     8    12    13   ar
     9    13    14   ar
    10     8    14   ar
    11     2    14    1
    12     5    15    1
    13    15    16   ar
    14    16    17   ar
    15    17    19   ar
    16    19    21   ar
    17    21    22   ar
    18    15    22   ar
    19    22    23    1
    20    23    24    1
    21     3    24    1
    22     1     2    2
    23     3     4    1
    24     5     6    1
    25    10    11    1
    26    17    18    1
    27    19    20    1
    28     9    25    1
    29    11    26    1
    30    12    27    1
    31    13    28    1
    32    16    29    1
    33    18    30    1
    34    20    31    1
    35    21    32    1
    36    23    33    1
    37    23    34    1
