@<TRIPOS>MOLECULE
NuBBE_1010
 23 24 0 0 0
SMALL
GASTEIGER

@<TRIPOS>ATOM
      1 O          -2.6854   -1.0060   -0.5841 O.2     1  LIG1       -0.2919
      2 C          -1.4624   -0.9704   -0.5039 C.2     1  LIG1        0.1671
      3 C          -0.6526   -2.2341   -0.6711 C.3     1  LIG1        0.0132
      4 C           0.4046   -2.2967    0.4094 C.3     1  LIG1       -0.0157
      5 C           1.3703   -1.1262    0.2707 C.3     1  LIG1        0.0813
      6 H           2.0077   -1.2795   -0.6083 H       1  LIG1        0.0644
      7 O           2.2129   -1.1217    1.4210 O.3     1  LIG1       -0.3871
      8 C           0.6648    0.2039    0.1202 C.ar    1  LIG1       -0.0052
      9 C           1.4019    1.3887    0.3036 C.ar    1  LIG1       -0.0552
     10 C           0.8019    2.6362    0.1465 C.ar    1  LIG1       -0.0579
     11 C          -0.5408    2.7216   -0.2097 C.ar    1  LIG1       -0.0195
     12 C          -1.2839    1.5561   -0.4178 C.ar    1  LIG1        0.1277
     13 O          -2.5860    1.6790   -0.8090 O.3     1  LIG1       -0.5061
     14 C          -0.6919    0.2923   -0.2613 C.ar    1  LIG1        0.0644
     15 H          -0.2166   -2.2471   -1.6760 H       1  LIG1        0.0346
     16 H          -1.3217   -3.0963   -0.5797 H       1  LIG1        0.0346
     17 H           0.9577   -3.2422    0.3550 H       1  LIG1        0.0297
     18 H          -0.0679   -2.2806    1.4014 H       1  LIG1        0.0297
     19 H           1.6917   -0.7697    2.1639 H       1  LIG1        0.2102
     20 H           2.4585    1.3389    0.5671 H       1  LIG1        0.0621
     21 H           1.3857    3.5422    0.2919 H       1  LIG1        0.0619
     22 H          -0.9896    3.7024   -0.3387 H       1  LIG1        0.0654
     23 H          -2.8590    2.6091   -0.7913 H       1  LIG1        0.2922
@<TRIPOS>BOND
     1     1     2    2
     2     2     3    1
     3     3     4    1
     4     4     5    1
     5     5     8    1
     6     8     9   ar
     7     9    10   ar
     8    10    11   ar
     9    11    12   ar
    10    12    13    1
    11    12    14   ar
    12     8    14   ar
    13     2    14    1
    14     5     7    1
    15     5     6    1
    16     3    15    1
    17     3    16    1
    18     4    17    1
    19     4    18    1
    20     7    19    1
    21     9    20    1
    22    10    21    1
    23    11    22    1
    24    13    23    1
