REMARK  Name = NuBBE_1992
REMARK  12 active torsions:
REMARK  status: ('A' for Active; 'I' for Inactive)
REMARK    1  A    between atoms: C_1  and  O_2
REMARK    2  A    between atoms: O_2  and  C_3
REMARK    3  A    between atoms: C_7  and  C_9
REMARK    4  A    between atoms: C_11  and  O_12
REMARK    5  A    between atoms: O_12  and  C_13
REMARK    6  A    between atoms: C_14  and  O_15
REMARK    7  A    between atoms: O_15  and  C_16
REMARK    8  A    between atoms: C_17  and  O_18
REMARK    9  A    between atoms: O_18  and  C_19
REMARK   10  A    between atoms: C_21  and  C_23
REMARK   11  A    between atoms: C_26  and  C_27
REMARK   12  A    between atoms: C_27  and  C_28
REMARK                            x       y       z     vdW  Elec       q    Type
REMARK                         _______ _______ _______ _____ _____    ______ ____
ROOT
ATOM      1  C   LIG A   1      -0.998  -3.792  -0.515  0.00  0.00    +0.166 A 
ATOM      2  C   LIG A   1      -1.045  -2.393  -0.413  0.00  0.00    +0.204 A 
ATOM      3  C   LIG A   1      -0.229  -1.587  -1.213  0.00  0.00    +0.167 A 
ATOM      4  O   LIG A   1      -0.214  -0.215  -1.156  0.00  0.00    -0.477 OA
ATOM      5  C   LIG A   1      -1.197   0.365  -0.260  0.00  0.00    +0.244 C 
ATOM      6  C   LIG A   1      -1.428  -0.570   0.949  0.00  0.00    +0.216 C 
ATOM      7  C   LIG A   1      -2.464  -0.119   1.970  0.00  0.00    +0.056 C 
ATOM      8  O   LIG A   1      -1.917  -1.841   0.484  0.00  0.00    -0.478 OA
ATOM      9  C   LIG A   1       0.654  -2.180  -2.115  0.00  0.00    +0.053 A 
ATOM     10  C   LIG A   1       0.754  -3.577  -2.194  0.00  0.00    -0.036 A 
ATOM     11  C   LIG A   1      -0.088  -4.365  -1.400  0.00  0.00    +0.053 A 
ENDROOT
BRANCH   5  12
ATOM     12  C   LIG A   1      -0.677   1.760   0.094  0.00  0.00    +0.003 A 
ATOM     13  C   LIG A   1      -1.366   2.905  -0.318  0.00  0.00    +0.057 A 
ATOM     14  C   LIG A   1      -0.865   4.186  -0.038  0.00  0.00    +0.166 A 
ATOM     15  C   LIG A   1       0.415   4.363   0.554  0.00  0.00    +0.203 A 
ATOM     16  C   LIG A   1       1.109   3.223   1.028  0.00  0.00    +0.166 A 
ATOM     17  C   LIG A   1       0.535   1.946   0.796  0.00  0.00    +0.057 A 
BRANCH  14  18
ATOM     18  O   LIG A   1      -1.586   5.330  -0.323  0.00  0.00    -0.491 OA
ATOM     19  C   LIG A   1      -3.005   5.182  -0.300  0.00  0.00    +0.277 C 
ENDBRANCH  14  18
BRANCH  15  20
ATOM     20  O   LIG A   1       0.824   5.685   0.525  0.00  0.00    -0.488 OA
ATOM     21  C   LIG A   1       1.873   5.993   1.398  0.00  0.00    +0.277 C 
ENDBRANCH  15  20
BRANCH  16  22
ATOM     22  O   LIG A   1       2.398   3.154   1.528  0.00  0.00    -0.491 OA
ATOM     23  C   LIG A   1       2.715   3.757   2.791  0.00  0.00    +0.277 C 
ENDBRANCH  16  22
ENDBRANCH   5  12
BRANCH   1  25
ATOM     24  C   LIG A   1      -1.767  -5.940   0.139  0.00  0.00    +0.277 C 
ATOM     25  O   LIG A   1      -1.843  -4.523   0.284  0.00  0.00    -0.491 OA
ENDBRANCH   1  25
BRANCH  10  26
ATOM     26  C   LIG A   1       1.705  -4.251  -3.152  0.00  0.00    +0.061 C 
BRANCH  26  27
ATOM     27  C   LIG A   1       2.807  -5.108  -2.543  0.00  0.00    -0.030 C 
ATOM     28  C   LIG A   1       3.027  -5.447  -1.303  0.00  0.00    +0.004 C 
ENDBRANCH  26  27
ENDBRANCH  10  26
TORSDOF 7
