REMARK  Name = NuBBE_1024
REMARK  8 active torsions:
REMARK  status: ('A' for Active; 'I' for Inactive)
REMARK    1  A    between atoms: C_1  and  C_2
REMARK    2  A    between atoms: C_2  and  C_3
REMARK    3  A    between atoms: C_7  and  O_8
REMARK    4  A    between atoms: O_8  and  C_9
REMARK    5  A    between atoms: C_10  and  C_11
REMARK    6  A    between atoms: C_11  and  C_12
REMARK    7  A    between atoms: C_12  and  C_13
REMARK    8  A    between atoms: C_13  and  O_14
REMARK                            x       y       z     vdW  Elec       q    Type
REMARK                         _______ _______ _______ _____ _____    ______ ____
ROOT
ATOM      1  C   LIG A   1      -2.632  -0.757  -3.845  0.00  0.00    +0.060 C 
ATOM      2  C   LIG A   1      -1.397  -0.134  -3.179  0.00  0.00    +0.123 C 
ATOM      3  C   LIG A   1      -0.424   0.365  -4.253  0.00  0.00    +0.060 C 
ATOM      4  O   LIG A   1      -0.760  -1.203  -2.452  0.00  0.00    -0.481 OA
ATOM      5  C   LIG A   1      -0.201  -0.917  -1.231  0.00  0.00    +0.132 A 
ATOM      6  C   LIG A   1      -0.465   0.250  -0.489  0.00  0.00    +0.058 A 
ATOM      7  C   LIG A   1       0.216   0.445   0.741  0.00  0.00    +0.134 A 
ATOM      8  C   LIG A   1       1.107  -0.552   1.222  0.00  0.00    -0.004 A 
ATOM      9  C   LIG A   1       1.282  -1.736   0.488  0.00  0.00    +0.011 A 
ATOM     10  C   LIG A   1       0.638  -1.912  -0.732  0.00  0.00    +0.047 A 
ATOM     11  C   LIG A   1      -1.491   1.136  -1.037  0.00  0.00    +0.015 C 
ATOM     12  C   LIG A   1      -1.875   0.994  -2.308  0.00  0.00    +0.020 C 
ENDROOT
BRANCH   7  13
ATOM     13  O   LIG A   1       0.041   1.502   1.605  0.00  0.00    -0.494 OA
ATOM     14  C   LIG A   1      -0.061   2.813   1.060  0.00  0.00    +0.277 C 
ENDBRANCH   7  13
BRANCH   8  15
ATOM     15  C   LIG A   1       1.934  -0.371   2.484  0.00  0.00    +0.050 C 
BRANCH  15  16
ATOM     16  C   LIG A   1       1.296  -0.946   3.751  0.00  0.00    +0.125 C 
BRANCH  16  17
ATOM     17  C   LIG A   1       2.197  -0.730   4.939  0.00  0.00    +0.305 C 
ATOM     18  O   LIG A   1       3.428  -0.674   4.890  0.00  0.00    -0.251 OA
BRANCH  17  19
ATOM     19  O   LIG A   1       1.535  -0.655   6.116  0.00  0.00    -0.481 OA
ATOM     20  H   LIG A   1       0.563  -0.728   6.038  0.00  0.00    +0.295 HD
ENDBRANCH  17  19
ENDBRANCH  16  17
ENDBRANCH  15  16
ENDBRANCH   8  15
TORSDOF 5
