@<TRIPOS>MOLECULE
NuBBE_2075
 49 53 0 0 0
SMALL
GASTEIGER

@<TRIPOS>ATOM
      1 O          -4.2028   -1.3136    0.2748 O.2     1  LIG1       -0.2500
      2 C          -2.9946   -1.2487    0.3907 C.2     1  LIG1        0.3189
      3 C          -2.1302   -0.0599    0.7256 C.3     1  LIG1        0.1250
      4 C          -2.0051   -0.2468    2.2703 C.3     1  LIG1       -0.0439
      5 C          -2.3065    1.4386    0.3451 C.3     1  LIG1        0.1855
      6 O          -3.6136    1.8398    0.7233 O.3     1  LIG1       -0.3508
      7 C          -3.8953    3.2227    0.5917 C.3     1  LIG1        0.0397
      8 C          -1.9063    1.8224   -1.1323 C.3     1  LIG1        0.0031
      9 C          -0.3872    1.4807   -1.4124 C.3     1  LIG1       -0.0397
     10 C           0.0994    0.5730   -0.2420 C.3     1  LIG1        0.0049
     11 C           0.0152    1.5760    0.9576 C.3     1  LIG1        0.0573
     12 O          -1.2982    2.1486    1.1214 O.3     1  LIG1       -0.3470
     13 C           1.5149   -0.0677   -0.2326 C.3     1  LIG1       -0.0276
     14 C           2.4936    0.5291   -1.2508 C.3     1  LIG1       -0.0492
     15 C           3.9135    0.0105   -1.0070 C.3     1  LIG1       -0.0504
     16 C           3.9802   -1.5133   -0.9624 C.3     1  LIG1       -0.0266
     17 C           2.9722   -2.1258    0.0169 C.3     1  LIG1        0.0584
     18 H           3.2542   -1.8701    1.0455 H       1  LIG1        0.0596
     19 O           3.0439   -3.5400   -0.1253 O.3     1  LIG1       -0.3915
     20 C           1.5510   -1.6281   -0.2996 C.3     1  LIG1       -0.0082
     21 C           0.4480   -2.2849    0.5812 C.3     1  LIG1       -0.0099
     22 C          -0.8610   -1.9482   -0.1001 C.3     1  LIG1        0.1080
     23 H          -0.8097   -2.4001   -1.1019 H       1  LIG1        0.0737
     24 O          -2.1338   -2.3654    0.4035 O.3     1  LIG1       -0.4605
     25 C          -1.0163   -0.4744   -0.2078 C.3     1  LIG1        0.0246
     26 H          -3.0053   -0.2189    2.7238 H       1  LIG1        0.0242
     27 H          -1.4309    0.5160    2.7961 H       1  LIG1        0.0242
     28 H          -1.5633   -1.2102    2.5470 H       1  LIG1        0.0242
     29 H          -4.8564    3.4178    1.0765 H       1  LIG1        0.0525
     30 H          -3.9943    3.4995   -0.4614 H       1  LIG1        0.0525
     31 H          -3.1364    3.8400    1.0807 H       1  LIG1        0.0525
     32 H          -2.0319    2.8971   -1.3067 H       1  LIG1        0.0317
     33 H          -2.5672    1.3191   -1.8481 H       1  LIG1        0.0317
     34 H           0.1940    2.4090   -1.4713 H       1  LIG1        0.0273
     35 H          -0.2900    0.9857   -2.3863 H       1  LIG1        0.0273
     36 H           0.7120    2.4116    0.8160 H       1  LIG1        0.0566
     37 H           0.3118    1.1013    1.8983 H       1  LIG1        0.0566
     38 H           1.9456    0.1647    0.7540 H       1  LIG1        0.0310
     39 H           2.5038    1.6224   -1.1751 H       1  LIG1        0.0268
     40 H           2.1795    0.2739   -2.2700 H       1  LIG1        0.0268
     41 H           4.5805    0.3858   -1.7913 H       1  LIG1        0.0266
     42 H           4.2857    0.4133   -0.0565 H       1  LIG1        0.0266
     43 H           4.9942   -1.8345   -0.6938 H       1  LIG1        0.0290
     44 H           3.8036   -1.9161   -1.9689 H       1  LIG1        0.0290
     45 H           2.6991   -3.9436    0.6896 H       1  LIG1        0.2098
     46 H           1.3442   -1.9275   -1.3389 H       1  LIG1        0.0330
     47 H           0.4878   -1.9165    1.6116 H       1  LIG1        0.0304
     48 H           0.5551   -3.3733    0.6298 H       1  LIG1        0.0304
     49 H          -1.4466   -0.4712   -1.2286 H       1  LIG1        0.0355
@<TRIPOS>BOND
     1     1     2    2
     2     2     3    1
     3     3     4    1
     4     3     5    1
     5     5     6    1
     6     6     7    1
     7     5     8    1
     8     8     9    1
     9     9    10    1
    10    10    11    1
    11    11    12    1
    12     5    12    1
    13    10    13    1
    14    13    14    1
    15    14    15    1
    16    15    16    1
    17    16    17    1
    18    17    20    1
    19    13    20    1
    20    20    21    1
    21    21    22    1
    22    22    23    1
    23    22    24    1
    24     2    24    1
    25    22    25    1
    26    10    25    1
    27     3    25    1
    28    17    19    1
    29    17    18    1
    30     4    26    1
    31     4    27    1
    32     4    28    1
    33     7    29    1
    34     7    30    1
    35     7    31    1
    36     8    32    1
    37     8    33    1
    38     9    34    1
    39     9    35    1
    40    11    36    1
    41    11    37    1
    42    13    38    1
    43    14    39    1
    44    14    40    1
    45    15    41    1
    46    15    42    1
    47    16    43    1
    48    16    44    1
    49    19    45    1
    50    20    46    1
    51    21    47    1
    52    21    48    1
    53    25    49    1
