@<TRIPOS>MOLECULE
NuBBE_2173
 46 48 0 0 0
SMALL
GASTEIGER

@<TRIPOS>ATOM
      1 O          -2.5519    1.1379    0.0927 O.2     1  LIG1       -0.2864
      2 C          -1.4243    0.9504    0.5363 C.ar    1  LIG1        0.2001
      3 C          -0.7287   -0.3165    0.2561 C.ar    1  LIG1        0.0648
      4 C          -1.3168   -1.2867   -0.5626 C.ar    1  LIG1       -0.0439
      5 C          -0.6421   -2.4805   -0.8229 C.ar    1  LIG1       -0.0190
      6 C           0.6225   -2.7051   -0.2660 C.ar    1  LIG1        0.1245
      7 O           1.3815   -3.8254   -0.4308 O.3     1  LIG1       -0.4878
      8 C           0.9251   -4.7998   -1.3654 C.3     1  LIG1        0.1080
      9 C           1.9797   -5.8642   -1.4383 C.2     1  LIG1       -0.0484
     10 C           3.0195   -5.9289   -2.2944 C.2     1  LIG1       -0.0765
     11 C           3.3294   -4.8950   -3.3413 C.3     1  LIG1       -0.0439
     12 C           4.0092   -7.0613   -2.2239 C.3     1  LIG1       -0.0439
     13 C           1.1966   -1.7293    0.5566 C.ar    1  LIG1        0.0231
     14 C           0.5228   -0.5367    0.8141 C.ar    1  LIG1        0.1419
     15 O           1.1433    0.3785    1.6194 O.2     1  LIG1       -0.4620
     16 C           0.5121    1.5826    1.8261 C.ar    1  LIG1        0.1038
     17 C          -0.6945    1.9623    1.3681 C.ar    1  LIG1        0.0644
     18 C          -1.2390    3.3159    1.6471 C.ar    1  LIG1       -0.0076
     19 C          -2.0517    3.9710    0.7074 C.ar    1  LIG1       -0.0086
     20 C          -2.5874    5.2427    0.9579 C.ar    1  LIG1        0.1590
     21 O          -3.4062    5.7960    0.0121 O.3     1  LIG1       -0.5033
     22 C          -2.3093    5.9043    2.1542 C.ar    1  LIG1        0.1613
     23 O          -2.7817    7.1208    2.5661 O.3     1  LIG1       -0.4915
     24 C          -3.0569    8.0772    1.5501 C.3     1  LIG1        0.0790
     25 C          -1.5092    5.2579    3.1000 C.ar    1  LIG1       -0.0157
     26 C          -0.9795    3.9845    2.8527 C.ar    1  LIG1       -0.0501
     27 H          -2.3000   -1.1160   -0.9975 H       1  LIG1        0.0627
     28 H          -1.1271   -3.2152   -1.4581 H       1  LIG1        0.0654
     29 H           0.7382   -4.3549   -2.3487 H       1  LIG1        0.0742
     30 H          -0.0062   -5.2564   -1.0079 H       1  LIG1        0.0742
     31 H           1.8680   -6.6463   -0.6892 H       1  LIG1        0.0605
     32 H           2.5887   -4.0938   -3.3941 H       1  LIG1        0.0274
     33 H           3.3803   -5.3616   -4.3303 H       1  LIG1        0.0274
     34 H           4.2966   -4.4276   -3.1282 H       1  LIG1        0.0274
     35 H           3.8029   -7.7433   -1.3924 H       1  LIG1        0.0274
     36 H           5.0229   -6.6705   -2.0857 H       1  LIG1        0.0274
     37 H           3.9843   -7.6440   -3.1503 H       1  LIG1        0.0274
     38 H           2.1761   -1.9048    0.9914 H       1  LIG1        0.0691
     39 H           1.1617    2.2084    2.4267 H       1  LIG1        0.1037
     40 H          -2.2826    3.4829   -0.2360 H       1  LIG1        0.0661
     41 H          -3.5903    5.1314   -0.6729 H       1  LIG1        0.2923
     42 H          -3.2549    9.0331    2.0454 H       1  LIG1        0.0660
     43 H          -3.9598    7.8279    0.9877 H       1  LIG1        0.0660
     44 H          -2.1924    8.2169    0.8919 H       1  LIG1        0.0660
     45 H          -1.2950    5.7533    4.0445 H       1  LIG1        0.0655
     46 H          -0.3737    3.5277    3.6318 H       1  LIG1        0.0625
@<TRIPOS>BOND
     1     1     2    2
     2     2     3   ar
     3     3     4   ar
     4     4     5   ar
     5     5     6   ar
     6     6     7    1
     7     7     8    1
     8     8     9    1
     9     9    10    2
    10    10    11    1
    11    10    12    1
    12     6    13   ar
    13    13    14   ar
    14     3    14   ar
    15    14    15   ar
    16    15    16   ar
    17    16    17   ar
    18     2    17   ar
    19    17    18    1
    20    18    19   ar
    21    19    20   ar
    22    20    21    1
    23    20    22   ar
    24    22    23    1
    25    23    24    1
    26    22    25   ar
    27    25    26   ar
    28    18    26   ar
    29     4    27    1
    30     5    28    1
    31     8    29    1
    32     8    30    1
    33     9    31    1
    34    11    32    1
    35    11    33    1
    36    11    34    1
    37    12    35    1
    38    12    36    1
    39    12    37    1
    40    13    38    1
    41    16    39    1
    42    19    40    1
    43    21    41    1
    44    24    42    1
    45    24    43    1
    46    24    44    1
    47    25    45    1
    48    26    46    1
