@<TRIPOS>MOLECULE
NuBBE_312
 77 78 0 0 0
SMALL
GASTEIGER

@<TRIPOS>ATOM
      1 H          -3.8720    4.0671   -0.6885 H       1  LIG1        0.1226
      2 N          -3.1469    3.4665   -0.2961 N.3     1  LIG1       -0.3074
      3 C          -3.7588    2.2136    0.1733 C.3     1  LIG1        0.0422
      4 C          -4.9578    2.5930    1.0593 C.3     1  LIG1       -0.0462
      5 C          -4.2115    1.2219   -0.9336 C.3     1  LIG1        0.1184
      6 O          -4.2579   -0.0836   -0.2960 O.3     1  LIG1       -0.4567
      7 C          -5.4060   -0.7790   -0.3394 C.2     1  LIG1        0.3323
      8 C          -5.4081   -1.6722    0.8433 C.2     1  LIG1        0.0231
      9 C          -6.4904   -2.4032    1.1572 C.2     1  LIG1       -0.0477
     10 C          -6.5477   -3.2218    2.3699 C.ar    1  LIG1       -0.0211
     11 C          -6.1163   -4.5482    2.3312 C.ar    1  LIG1       -0.0509
     12 C          -6.2120   -5.3521    3.4682 C.ar    1  LIG1       -0.0160
     13 C          -6.7328   -4.8338    4.6572 C.ar    1  LIG1        0.1585
     14 O          -6.8362   -5.6749    5.7306 O.3     1  LIG1       -0.5033
     15 C          -7.1386   -3.4954    4.7291 C.ar    1  LIG1        0.1618
     16 O          -7.6386   -2.8254    5.8161 O.3     1  LIG1       -0.4914
     17 C          -7.7888   -3.5526    7.0295 C.3     1  LIG1        0.0790
     18 C          -7.0444   -2.6996    3.5734 C.ar    1  LIG1       -0.0092
     19 O          -6.3277   -0.6466   -1.1501 O.2     1  LIG1       -0.2456
     20 C          -3.2435    1.1572   -2.1213 C.3     1  LIG1       -0.0128
     21 C          -2.6702    2.5232   -2.4933 C.3     1  LIG1       -0.0341
     22 C          -2.0804    3.2740   -1.2938 C.3     1  LIG1        0.0081
     23 C          -0.8112    2.6589   -0.6472 C.3     1  LIG1       -0.0375
     24 C           0.4237    2.5402   -1.5622 C.3     1  LIG1       -0.0516
     25 C           1.6291    1.9280   -0.8053 C.3     1  LIG1       -0.0530
     26 C           2.8991    1.8701   -1.6764 C.3     1  LIG1       -0.0531
     27 C           4.1297    1.2495   -0.9762 C.3     1  LIG1       -0.0531
     28 C           5.3183    1.0801   -1.9466 C.3     1  LIG1       -0.0531
     29 C           6.5900    0.5157   -1.2799 C.3     1  LIG1       -0.0530
     30 C           7.7556    0.4426   -2.2802 C.3     1  LIG1       -0.0527
     31 C           9.0364   -0.1738   -1.7056 C.3     1  LIG1       -0.0464
     32 C          10.1552   -0.1373   -2.7521 C.3     1  LIG1        0.0055
     33 C          11.4638   -0.6722   -2.2040 C.2     1  LIG1        0.1303
     34 C          12.7318   -0.1025   -2.7866 C.3     1  LIG1       -0.0061
     35 O          11.5021   -1.5881   -1.3826 O.2     1  LIG1       -0.2977
     36 H          -3.0448    1.7040    0.8337 H       1  LIG1        0.0494
     37 H          -5.8097    2.9316    0.4578 H       1  LIG1        0.0246
     38 H          -4.6985    3.4042    1.7495 H       1  LIG1        0.0246
     39 H          -5.2878    1.7431    1.6662 H       1  LIG1        0.0246
     40 H          -5.2054    1.5088   -1.3073 H       1  LIG1        0.0749
     41 H          -4.5314   -1.6462    1.4821 H       1  LIG1        0.0689
     42 H          -7.3751   -2.4120    0.5261 H       1  LIG1        0.0626
     43 H          -5.7158   -4.9705    1.4130 H       1  LIG1        0.0625
     44 H          -5.8804   -6.3842    3.4081 H       1  LIG1        0.0655
     45 H          -6.5699   -6.5703    5.4682 H       1  LIG1        0.2923
     46 H          -8.5660   -4.3178    6.9296 H       1  LIG1        0.0660
     47 H          -8.1156   -2.8539    7.8059 H       1  LIG1        0.0660
     48 H          -6.8371   -3.9732    7.3704 H       1  LIG1        0.0660
     49 H          -7.3767   -1.6639    3.6212 H       1  LIG1        0.0661
     50 H          -3.7770    0.7490   -2.9907 H       1  LIG1        0.0302
     51 H          -2.4287    0.4528   -1.9212 H       1  LIG1        0.0302
     52 H          -3.4753    3.1345   -2.9278 H       1  LIG1        0.0281
     53 H          -1.9225    2.4130   -3.2856 H       1  LIG1        0.0281
     54 H          -1.8016    4.2776   -1.6402 H       1  LIG1        0.0460
     55 H          -1.0312    1.6693   -0.2330 H       1  LIG1        0.0280
     56 H          -0.5291    3.2977    0.2014 H       1  LIG1        0.0280
     57 H           0.6950    3.5338   -1.9397 H       1  LIG1        0.0266
     58 H           0.1911    1.9147   -2.4312 H       1  LIG1        0.0266
     59 H           1.3623    0.9177   -0.4696 H       1  LIG1        0.0265
     60 H           1.8308    2.5213    0.0945 H       1  LIG1        0.0265
     61 H           3.1535    2.8904   -1.9886 H       1  LIG1        0.0265
     62 H           2.6759    1.2997   -2.5852 H       1  LIG1        0.0265
     63 H           3.8682    0.2713   -0.5563 H       1  LIG1        0.0265
     64 H           4.4327    1.8915   -0.1402 H       1  LIG1        0.0265
     65 H           5.5541    2.0491   -2.4035 H       1  LIG1        0.0265
     66 H           5.0207    0.4084   -2.7620 H       1  LIG1        0.0265
     67 H           6.3830   -0.4811   -0.8731 H       1  LIG1        0.0265
     68 H           6.8826    1.1570   -0.4404 H       1  LIG1        0.0265
     69 H           7.9871    1.4592   -2.6214 H       1  LIG1        0.0265
     70 H           7.4514   -0.1323   -3.1633 H       1  LIG1        0.0265
     71 H           8.8583   -1.2070   -1.3811 H       1  LIG1        0.0269
     72 H           9.3562    0.3838   -0.8167 H       1  LIG1        0.0269
     73 H          10.3115    0.8992   -3.0721 H       1  LIG1        0.0341
     74 H           9.8905   -0.7259   -3.6381 H       1  LIG1        0.0341
     75 H          12.6431    0.9818   -2.8946 H       1  LIG1        0.0306
     76 H          12.9297   -0.5594   -3.7589 H       1  LIG1        0.0306
     77 H          13.5644   -0.3064   -2.1074 H       1  LIG1        0.0306
@<TRIPOS>BOND
     1     1     2    1
     2     2     3    1
     3     3     4    1
     4     3     5    1
     5     5     6    1
     6     6     7    1
     7     7     8    1
     8     8     9    2
     9     9    10    1
    10    10    11   ar
    11    11    12   ar
    12    12    13   ar
    13    13    14    1
    14    13    15   ar
    15    15    16    1
    16    16    17    1
    17    15    18   ar
    18    10    18   ar
    19     7    19    2
    20     5    20    1
    21    20    21    1
    22    21    22    1
    23     2    22    1
    24    22    23    1
    25    23    24    1
    26    24    25    1
    27    25    26    1
    28    26    27    1
    29    27    28    1
    30    28    29    1
    31    29    30    1
    32    30    31    1
    33    31    32    1
    34    32    33    1
    35    33    34    1
    36    33    35    2
    37     3    36    1
    38     4    37    1
    39     4    38    1
    40     4    39    1
    41     5    40    1
    42     8    41    1
    43     9    42    1
    44    11    43    1
    45    12    44    1
    46    14    45    1
    47    17    46    1
    48    17    47    1
    49    17    48    1
    50    18    49    1
    51    20    50    1
    52    20    51    1
    53    21    52    1
    54    21    53    1
    55    22    54    1
    56    23    55    1
    57    23    56    1
    58    24    57    1
    59    24    58    1
    60    25    59    1
    61    25    60    1
    62    26    61    1
    63    26    62    1
    64    27    63    1
    65    27    64    1
    66    28    65    1
    67    28    66    1
    68    29    67    1
    69    29    68    1
    70    30    69    1
    71    30    70    1
    72    31    71    1
    73    31    72    1
    74    32    73    1
    75    32    74    1
    76    34    75    1
    77    34    76    1
    78    34    77    1
