REMARK  Name = NuBBE_1763
REMARK  8 active torsions:
REMARK  status: ('A' for Active; 'I' for Inactive)
REMARK    1  A    between atoms: C_1  and  C_2
REMARK    2  A    between atoms: C_1  and  C_4
REMARK    3  A    between atoms: C_6  and  O_7
REMARK    4  A    between atoms: O_7  and  C_8
REMARK    5  A    between atoms: C_11  and  O_14
REMARK    6  A    between atoms: O_14  and  C_15
REMARK    7  A    between atoms: C_17  and  C_22
REMARK    8  A    between atoms: C_19  and  C_21
REMARK                            x       y       z     vdW  Elec       q    Type
REMARK                         _______ _______ _______ _____ _____    ______ ____
ROOT
ATOM      1  C   LIG A   1      -0.487  -0.074  -0.833  0.00  0.00    +0.044 C 
ATOM      2  C   LIG A   1       0.977   0.252  -0.780  0.00  0.00    +0.150 C 
ATOM      3  C   LIG A   1       1.776   0.511  -1.826  0.00  0.00    +0.203 C 
ATOM      4  C   LIG A   1       1.139   0.364  -3.189  0.00  0.00    +0.229 C 
ATOM      5  O   LIG A   1       1.524   1.015  -4.152  0.00  0.00    -0.286 OA
ATOM      6  C   LIG A   1       0.041  -0.723  -3.282  0.00  0.00    +0.193 C 
ATOM      7  C   LIG A   1      -1.025  -0.460  -2.223  0.00  0.00    +0.055 C 
ATOM      8  O   LIG A   1       1.452   0.186   0.523  0.00  0.00    -0.484 OA
ATOM      9  C   LIG A   1       0.670  -0.843   1.171  0.00  0.00    +0.207 C 
ATOM     10  C   LIG A   1      -0.498  -1.212   0.215  0.00  0.00    +0.045 C 
ATOM     11  C   LIG A   1      -0.239  -2.628  -0.335  0.00  0.00    +0.012 C 
ENDROOT
BRANCH   9  12
ATOM     12  C   LIG A   1       0.256  -0.502   2.596  0.00  0.00    -0.003 A 
ATOM     13  C   LIG A   1       0.644   0.697   3.218  0.00  0.00    +0.056 A 
ATOM     14  C   LIG A   1       0.332   0.877   4.553  0.00  0.00    +0.167 A 
ATOM     15  C   LIG A   1      -0.345  -0.074   5.278  0.00  0.00    +0.166 A 
ATOM     16  C   LIG A   1      -0.758  -1.256   4.709  0.00  0.00    +0.050 A 
ATOM     17  C   LIG A   1      -0.449  -1.470   3.361  0.00  0.00    +0.011 A 
ATOM     18  O   LIG A   1      -0.525   0.287   6.576  0.00  0.00    -0.453 OA
ATOM     19  C   LIG A   1       0.138   1.568   6.594  0.00  0.00    +0.466 C 
ATOM     20  O   LIG A   1       0.663   1.960   5.308  0.00  0.00    -0.453 OA
ENDBRANCH   9  12
BRANCH   3  21
ATOM     21  O   LIG A   1       3.104   0.847  -1.619  0.00  0.00    -0.489 OA
ATOM     22  C   LIG A   1       3.889   1.118  -2.773  0.00  0.00    +0.277 C 
ENDBRANCH   3  21
BRANCH   6  23
ATOM     23  O   LIG A   1      -0.551  -0.776  -4.585  0.00  0.00    -0.372 OA
ATOM     24  C   LIG A   1      -1.549  -1.779  -4.735  0.00  0.00    +0.195 C 
ENDBRANCH   6  23
BRANCH   1  25
ATOM     25  C   LIG A   1      -1.309   1.155  -0.316  0.00  0.00    +0.041 C 
BRANCH  25  26
ATOM     26  C   LIG A   1      -1.131   2.415  -1.137  0.00  0.00    -0.034 C 
ATOM     27  C   LIG A   1      -2.126   3.048  -1.772  0.00  0.00    +0.004 C 
ENDBRANCH  25  26
ENDBRANCH   1  25
TORSDOF 5
