REMARK  Name = NuBBE_344
REMARK  9 active torsions:
REMARK  status: ('A' for Active; 'I' for Inactive)
REMARK    1  A    between atoms: C_2  and  O_3
REMARK    2  A    between atoms: C_2  and  C_5
REMARK    3  A    between atoms: O_3  and  C_4
REMARK    4  A    between atoms: C_7  and  C_8
REMARK    5  A    between atoms: C_8  and  C_9
REMARK    6  A    between atoms: C_10  and  C_11
REMARK    7  A    between atoms: C_10  and  C_12
REMARK    8  A    between atoms: C_16  and  O_17
REMARK    9  A    between atoms: O_17  and  C_18
REMARK                            x       y       z     vdW  Elec       q    Type
REMARK                         _______ _______ _______ _____ _____    ______ ____
ROOT
ATOM      1  C   LIG A   1      -1.424   0.115  -1.668  0.00  0.00    +0.101 A 
ATOM      2  C   LIG A   1      -0.411   0.701  -0.874  0.00  0.00    +0.030 A 
ATOM      3  C   LIG A   1       0.280  -0.041   0.089  0.00  0.00    +0.023 A 
ATOM      4  C   LIG A   1      -0.043  -1.388   0.258  0.00  0.00    +0.015 A 
ATOM      5  C   LIG A   1      -1.038  -1.982  -0.526  0.00  0.00    +0.047 A 
ATOM      6  C   LIG A   1      -1.720  -1.254  -1.512  0.00  0.00    +0.134 A 
ENDROOT
BRANCH   1   8
ATOM      7  O   LIG A   1      -2.540   0.603  -3.766  0.00  0.00    -0.245 OA
ATOM      8  C   LIG A   1      -2.101   0.975  -2.685  0.00  0.00    +0.343 C 
BRANCH   8   9
ATOM      9  O   LIG A   1      -2.126   2.247  -2.208  0.00  0.00    -0.464 OA
ATOM     10  C   LIG A   1      -2.654   3.276  -3.051  0.00  0.00    +0.280 C 
ENDBRANCH   8   9
ENDBRANCH   1   8
BRANCH   3  11
ATOM     11  C   LIG A   1       1.376   0.618   0.867  0.00  0.00    +0.186 C 
ATOM     12  O   LIG A   1       2.012   1.540   0.373  0.00  0.00    -0.287 OA
BRANCH  11  13
ATOM     13  C   LIG A   1       1.601   0.131   2.262  0.00  0.00    +0.050 C 
ATOM     14  C   LIG A   1       2.691   0.301   3.038  0.00  0.00    -0.072 C 
ATOM     15  C   LIG A   1       3.952   1.034   2.664  0.00  0.00    +0.039 C 
ATOM     16  C   LIG A   1       2.706  -0.283   4.428  0.00  0.00    +0.039 C 
ENDBRANCH  11  13
ENDBRANCH   3  11
BRANCH   6  17
ATOM     17  O   LIG A   1      -2.685  -1.830  -2.301  0.00  0.00    -0.494 OA
ATOM     18  C   LIG A   1      -2.601  -3.248  -2.466  0.00  0.00    +0.277 C 
ENDBRANCH   6  17
TORSDOF 5
