@<TRIPOS>MOLECULE
NuBBE_1979
 21 20 0 0 0
SMALL
GASTEIGER

@<TRIPOS>ATOM
      1 S           1.7405    1.2132   -0.5328 S.3     1  LIG1       -0.0239
      2 S           1.3052   -0.3981   -1.7362 S.3     1  LIG1       -0.0818
      3 C          -0.5032   -0.3034   -1.9210 C.3     1  LIG1        0.0044
      4 C          -0.9792    0.9992   -2.5488 C.3     1  LIG1       -0.0460
      5 C          -2.4956    1.0058   -2.6432 C.3     1  LIG1       -0.0645
      6 S           0.6969    0.8757    1.2051 S.3     1  LIG1       -0.0778
      7 C           1.5423   -0.5900    1.8504 C.3     1  LIG1        0.0225
      8 C           0.9350   -0.9798    3.1609 C.2     1  LIG1       -0.0805
      9 C           1.6325   -1.0482    4.2979 C.2     1  LIG1       -0.1018
     10 H          -0.9622   -0.4505   -0.9375 H       1  LIG1        0.0385
     11 H          -0.8160   -1.1548   -2.5354 H       1  LIG1        0.0385
     12 H          -0.5468    1.1227   -3.5483 H       1  LIG1        0.0271
     13 H          -0.6755    1.8636   -1.9495 H       1  LIG1        0.0271
     14 H          -2.8527    0.1652   -3.2458 H       1  LIG1        0.0230
     15 H          -2.8434    1.9350   -3.1026 H       1  LIG1        0.0230
     16 H          -2.9433    0.9287   -1.6466 H       1  LIG1        0.0230
     17 H           2.6088   -0.3725    1.9539 H       1  LIG1        0.0427
     18 H           1.4169   -1.4219    1.1506 H       1  LIG1        0.0427
     19 H          -0.1197   -1.2375    3.1715 H       1  LIG1        0.0575
     20 H           2.6946   -0.8078    4.3258 H       1  LIG1        0.0532
     21 H           1.1650   -1.3446    5.2316 H       1  LIG1        0.0532
@<TRIPOS>BOND
     1     1     2    1
     2     2     3    1
     3     3     4    1
     4     4     5    1
     5     1     6    1
     6     6     7    1
     7     7     8    1
     8     8     9    2
     9     3    10    1
    10     3    11    1
    11     4    12    1
    12     4    13    1
    13     5    14    1
    14     5    15    1
    15     5    16    1
    16     7    17    1
    17     7    18    1
    18     8    19    1
    19     9    20    1
    20     9    21    1
