@<TRIPOS>MOLECULE
NuBBE_1621
 38 40 0 0 0
SMALL
GASTEIGER

@<TRIPOS>ATOM
      1 O          -1.1492   -0.4289   -0.0631 O.3     1  LIG1       -0.4810
      2 C          -1.9157    0.7403   -0.3549 C.3     1  LIG1        0.1084
      3 C          -3.2737    0.3180   -0.8073 C.2     1  LIG1       -0.0484
      4 C          -4.3761    0.2023   -0.0451 C.2     1  LIG1       -0.0765
      5 C          -4.4048    0.4095    1.4436 C.3     1  LIG1       -0.0439
      6 C          -5.6863   -0.1940   -0.6611 C.3     1  LIG1       -0.0439
      7 C           0.2186   -0.2252   -0.0574 C.ar    1  LIG1        0.2069
      8 C           1.0613   -1.3351   -0.1941 C.ar    1  LIG1        0.1877
      9 C           2.4558   -1.2320   -0.2107 C.ar    1  LIG1        0.0637
     10 C           3.0703    0.0456   -0.0972 C.ar    1  LIG1        0.1417
     11 C           2.2468    1.1973    0.0145 C.ar    1  LIG1        0.0662
     12 C           0.8660    1.0111    0.0670 C.ar    1  LIG1        0.1834
     13 O           0.2402    2.2126    0.2315 O.2     1  LIG1       -0.4590
     14 C           1.1775    3.1777    0.2061 C.ar    1  LIG1        0.0934
     15 C           2.4208    2.6170    0.0651 C.ar    1  LIG1       -0.0125
     16 O           4.4567    0.0645   -0.1866 O.3     1  LIG1       -0.4937
     17 C           5.1026    1.0831    0.5669 C.3     1  LIG1        0.0788
     18 C           3.2297   -2.4581   -0.3068 C.ar    1  LIG1       -0.0406
     19 C           2.6215   -3.6530   -0.4333 C.ar    1  LIG1        0.0237
     20 C           1.1539   -3.7866   -0.4853 C.ar    1  LIG1        0.3373
     21 O           0.6276   -4.8862   -0.6432 O.2     1  LIG1       -0.2452
     22 O           0.4388   -2.6102   -0.3524 O.2     1  LIG1       -0.4182
     23 H          -1.4741    1.3053   -1.1859 H       1  LIG1        0.0742
     24 H          -1.9808    1.3889    0.5261 H       1  LIG1        0.0742
     25 H          -3.3398    0.1274   -1.8766 H       1  LIG1        0.0605
     26 H          -3.4097    0.5071    1.8864 H       1  LIG1        0.0274
     27 H          -4.8829   -0.4456    1.9321 H       1  LIG1        0.0274
     28 H          -4.9725    1.3130    1.6869 H       1  LIG1        0.0274
     29 H          -5.6303   -0.2430   -1.7540 H       1  LIG1        0.0274
     30 H          -6.4621    0.5327   -0.4016 H       1  LIG1        0.0274
     31 H          -5.9869   -1.1802   -0.2948 H       1  LIG1        0.0274
     32 H           0.8095    4.1909    0.2878 H       1  LIG1        0.1030
     33 H           3.3285    3.1940    0.0045 H       1  LIG1        0.0656
     34 H           6.1711    0.8527    0.6029 H       1  LIG1        0.0660
     35 H           4.7284    1.1286    1.5956 H       1  LIG1        0.0660
     36 H           5.0205    2.0475    0.0642 H       1  LIG1        0.0660
     37 H           4.3163   -2.4105   -0.2754 H       1  LIG1        0.0628
     38 H           3.1828   -4.5784   -0.4944 H       1  LIG1        0.0689
@<TRIPOS>BOND
     1     1     2    1
     2     2     3    1
     3     3     4    2
     4     4     5    1
     5     4     6    1
     6     1     7    1
     7     7     8   ar
     8     8     9   ar
     9     9    10   ar
    10    10    11   ar
    11    11    12   ar
    12     7    12   ar
    13    12    13   ar
    14    13    14   ar
    15    14    15   ar
    16    11    15   ar
    17    10    16    1
    18    16    17    1
    19     9    18   ar
    20    18    19   ar
    21    19    20   ar
    22    20    21    2
    23    20    22   ar
    24     8    22   ar
    25     2    23    1
    26     2    24    1
    27     3    25    1
    28     5    26    1
    29     5    27    1
    30     5    28    1
    31     6    29    1
    32     6    30    1
    33     6    31    1
    34    14    32    1
    35    15    33    1
    36    17    34    1
    37    17    35    1
    38    17    36    1
    39    18    37    1
    40    19    38    1
