REMARK  Name = NuBBE_1710
REMARK  2 active torsions:
REMARK  status: ('A' for Active; 'I' for Inactive)
REMARK    1  A    between atoms: C_4  and  O_5
REMARK    2  A    between atoms: C_13  and  O_14
REMARK                            x       y       z     vdW  Elec       q    Type
REMARK                         _______ _______ _______ _____ _____    ______ ____
ROOT
ATOM      1  O   LIG A   1      -2.604   0.122  -0.002  0.00  0.00    -0.286 OA
ATOM      2  C   LIG A   1      -1.378   0.111  -0.001  0.00  0.00    +0.204 A 
ATOM      3  C   LIG A   1      -0.620   1.368  -0.001  0.00  0.00    +0.106 A 
ATOM      4  C   LIG A   1      -1.263   2.610  -0.001  0.00  0.00    +0.131 A 
ATOM      5  C   LIG A   1      -0.515   3.784   0.000  0.00  0.00    +0.046 A 
ATOM      6  C   LIG A   1       0.879   3.719   0.001  0.00  0.00    +0.007 A 
ATOM      7  C   LIG A   1       1.522   2.479   0.001  0.00  0.00    +0.047 A 
ATOM      8  C   LIG A   1       0.773   1.300   0.000  0.00  0.00    +0.143 A 
ATOM      9  O   LIG A   1       1.484   0.123  -0.000  0.00  0.00    -0.454 OA
ATOM     10  C   LIG A   1       0.786  -1.060  -0.000  0.00  0.00    +0.143 A 
ATOM     11  C   LIG A   1       1.544  -2.233   0.000  0.00  0.00    +0.092 A 
ATOM     12  C   LIG A   1       0.895  -3.466   0.000  0.00  0.00    +0.120 A 
ATOM     13  C   LIG A   1      -0.495  -3.546   0.000  0.00  0.00    +0.046 A 
ATOM     14  C   LIG A   1      -1.254  -2.376  -0.000  0.00  0.00    +0.019 A 
ATOM     15  C   LIG A   1      -0.607  -1.137  -0.001  0.00  0.00    +0.065 A 
ENDROOT
BRANCH   4  16
ATOM     16  O   LIG A   1      -2.625   2.743  -0.002  0.00  0.00    -0.506 OA
ATOM     17  H   LIG A   1      -3.015   1.839  -0.002  0.00  0.00    +0.292 HD
ENDBRANCH   4  16
BRANCH  12  18
ATOM     18  O   LIG A   1       1.593  -4.637   0.001  0.00  0.00    -0.507 OA
ATOM     19  H   LIG A   1       2.544  -4.442   0.001  0.00  0.00    +0.292 HD
ENDBRANCH  12  18
TORSDOF 2
