REMARK  Name = NuBBE_227
REMARK  20 active torsions:
REMARK  status: ('A' for Active; 'I' for Inactive)
REMARK    1  A    between atoms: C_1  and  C_2
REMARK    2  A    between atoms: C_4  and  O_6
REMARK    3  A    between atoms: O_6  and  C_7
REMARK    4  A    between atoms: C_7  and  C_8
REMARK    5  A    between atoms: C_8  and  C_9
REMARK    6  A    between atoms: C_9  and  C_10
REMARK    7  A    between atoms: C_15  and  O_17
REMARK    8  A    between atoms: O_17  and  C_18
REMARK    9  A    between atoms: C_18  and  C_19
REMARK   10  A    between atoms: C_22  and  O_24
REMARK   11  A    between atoms: O_24  and  C_25
REMARK   12  A    between atoms: C_25  and  C_26
REMARK   13  A    between atoms: C_26  and  C_27
REMARK   14  A    between atoms: C_27  and  C_28
REMARK   15  A    between atoms: C_31  and  O_33
REMARK   16  A    between atoms: C_37  and  C_38
REMARK   17  A    between atoms: C_37  and  C_39
REMARK   18  A    between atoms: C_39  and  C_40
REMARK   19  A    between atoms: C_41  and  C_42
REMARK   20  A    between atoms: C_41  and  C_44
REMARK                            x       y       z     vdW  Elec       q    Type
REMARK                         _______ _______ _______ _____ _____    ______ ____
ROOT
ATOM      1  C   LIG A   1      -2.593   0.951   3.292  0.00  0.00    +0.012 C 
ATOM      2  C   LIG A   1      -2.093   0.752   1.857  0.00  0.00    +0.033 C 
ATOM      3  C   LIG A   1      -2.433  -0.700   1.406  0.00  0.00    +0.181 C 
ATOM      4  C   LIG A   1      -1.248  -1.565   0.973  0.00  0.00    +0.062 C 
ATOM      5  C   LIG A   1      -0.171  -0.910   0.016  0.00  0.00    +0.067 C 
ATOM      6  C   LIG A   1      -0.349  -1.389  -1.446  0.00  0.00    +0.009 C 
ATOM      7  C   LIG A   1      -0.093  -2.860  -1.501  0.00  0.00    +0.343 C 
ATOM      8  O   LIG A   1       0.993  -3.005  -0.567  0.00  0.00    -0.297 OA
ATOM      9  C   LIG A   1       1.166  -1.733   0.126  0.00  0.00    +0.325 C 
ATOM     10  C   LIG A   1      -0.437  -0.583  -2.520  0.00  0.00    +0.010 C 
ATOM     11  C   LIG A   1      -0.526   0.921  -2.489  0.00  0.00    +0.138 C 
ATOM     12  C   LIG A   1      -0.441   1.602  -1.034  0.00  0.00    +0.040 C 
ATOM     13  C   LIG A   1      -0.058   0.700   0.251  0.00  0.00    +0.015 C 
ATOM     14  C   LIG A   1      -0.637   1.287   1.609  0.00  0.00    -0.019 C 
ATOM     15  C   LIG A   1      -0.743   2.861   1.476  0.00  0.00    +0.012 C 
ENDROOT
BRANCH  11  16
ATOM     16  O   LIG A   1       0.374   1.542  -3.428  0.00  0.00    -0.388 OA
ATOM     17  H   LIG A   1       0.851   0.809  -3.852  0.00  0.00    +0.210 HD
ENDBRANCH  11  16
BRANCH   3  18
ATOM     18  O   LIG A   1      -3.579  -0.694   0.494  0.00  0.00    -0.461 OA
BRANCH  18  19
ATOM     19  C   LIG A   1      -3.271  -0.092  -0.706  0.00  0.00    +0.307 C 
ATOM     20  O   LIG A   1      -2.203   0.063  -1.073  0.00  0.00    -0.251 OA
BRANCH  19  21
ATOM     21  C   LIG A   1      -4.383   0.440  -1.524  0.00  0.00    +0.120 C 
BRANCH  21  22
ATOM     22  C   LIG A   1      -4.258   1.978  -1.697  0.00  0.00    +0.008 C 
ATOM     23  C   LIG A   1      -3.212   2.562  -2.646  0.00  0.00    +0.004 C 
ENDBRANCH  21  22
ENDBRANCH  19  21
ENDBRANCH  18  19
ENDBRANCH   3  18
BRANCH   7  24
ATOM     24  O   LIG A   1       0.272  -3.245  -2.829  0.00  0.00    -0.431 OA
BRANCH  24  25
ATOM     25  C   LIG A   1      -0.803  -3.385  -3.662  0.00  0.00    +0.306 C 
ATOM     26  C   LIG A   1      -0.493  -2.831  -5.034  0.00  0.00    +0.136 C 
ATOM     27  O   LIG A   1      -1.927  -3.729  -3.320  0.00  0.00    -0.251 OA
ENDBRANCH  24  25
ENDBRANCH   7  24
BRANCH   9  28
ATOM     28  O   LIG A   1       2.415  -1.064  -0.179  0.00  0.00    -0.434 OA
BRANCH  28  29
ATOM     29  C   LIG A   1       2.423   0.002  -0.977  0.00  0.00    +0.309 C 
ATOM     30  O   LIG A   1       1.528   0.361  -1.703  0.00  0.00    -0.251 OA
BRANCH  29  31
ATOM     31  C   LIG A   1       3.520   0.914  -1.065  0.00  0.00    +0.120 C 
BRANCH  31  32
ATOM     32  C   LIG A   1       4.582  -0.050  -1.433  0.00  0.00    +0.008 C 
ATOM     33  C   LIG A   1       5.837   0.693  -1.699  0.00  0.00    +0.004 C 
ENDBRANCH  31  32
ENDBRANCH  29  31
ENDBRANCH  28  29
ENDBRANCH   9  28
BRANCH  14  34
ATOM     34  C   LIG A   1       0.443   1.089   2.786  0.00  0.00    +0.034 C 
BRANCH  34  35
ATOM     35  C   LIG A   1       0.932  -0.293   3.084  0.00  0.00    -0.023 C 
ATOM     36  C   LIG A   1       1.831  -0.836   3.913  0.00  0.00    -0.055 C 
ATOM     37  C   LIG A   1       2.148  -2.323   3.855  0.00  0.00    +0.043 C 
BRANCH  36  38
ATOM     38  C   LIG A   1       2.525  -0.036   4.875  0.00  0.00    -0.005 C 
ATOM     39  C   LIG A   1       2.468  -0.301   6.183  0.00  0.00    +0.008 C 
ENDBRANCH  36  38
ENDBRANCH  34  35
ENDBRANCH  14  34
TORSDOF 14
