@<TRIPOS>MOLECULE
NuBBE_1266
 24 25 0 0 0
SMALL
GASTEIGER

@<TRIPOS>ATOM
      1 O          -4.6845    1.2871   -0.1867 O.2     1  LIG1       -0.2452
      2 C          -3.4608    1.2858   -0.1265 C.ar    1  LIG1        0.3372
      3 C          -2.7076    2.5510   -0.0647 C.ar    1  LIG1        0.0236
      4 C          -1.3728    2.5899   -0.0055 C.ar    1  LIG1       -0.0443
      5 O          -2.7181    0.1127   -0.1108 O.2     1  LIG1       -0.4220
      6 C          -1.3097    0.1399   -0.0574 C.ar    1  LIG1        0.1426
      7 C          -0.6206    1.3463   -0.0049 C.ar    1  LIG1        0.0186
      8 C           0.7720    1.3196    0.0411 C.ar    1  LIG1       -0.0335
      9 C           1.4609    0.0897    0.0308 C.ar    1  LIG1        0.1011
     10 C           2.9476    0.1019    0.0545 C.2     1  LIG1        0.3404
     11 O           3.4181    1.1789    0.7167 O.3     1  LIG1       -0.4770
     12 O           3.7151   -0.7076   -0.4287 O.2     1  LIG1       -0.2450
     13 C           0.7486   -1.1260   -0.0236 C.ar    1  LIG1        0.1376
     14 O           1.4797   -2.2825   -0.0114 O.3     1  LIG1       -0.4942
     15 C           0.7825   -3.5194   -0.0842 C.3     1  LIG1        0.0788
     16 C          -0.6494   -1.0893   -0.0634 C.ar    1  LIG1        0.0239
     17 H          -3.3057    3.4542   -0.0705 H       1  LIG1        0.0689
     18 H          -0.8403    3.5338    0.0402 H       1  LIG1        0.0627
     19 H           1.3319    2.2518    0.0758 H       1  LIG1        0.0634
     20 H           4.3902    1.0529    0.6855 H       1  LIG1        0.2954
     21 H           1.5261   -4.3202   -0.1393 H       1  LIG1        0.0660
     22 H           0.1650   -3.5796   -0.9865 H       1  LIG1        0.0660
     23 H           0.1831   -3.6800    0.8178 H       1  LIG1        0.0660
     24 H          -1.2512   -1.9910   -0.0983 H       1  LIG1        0.0691
@<TRIPOS>BOND
     1     1     2    2
     2     2     3   ar
     3     3     4   ar
     4     2     5   ar
     5     5     6   ar
     6     6     7   ar
     7     4     7   ar
     8     7     8   ar
     9     8     9   ar
    10     9    10    1
    11    10    11    1
    12    10    12    2
    13     9    13   ar
    14    13    14    1
    15    14    15    1
    16    13    16   ar
    17     6    16   ar
    18     3    17    1
    19     4    18    1
    20     8    19    1
    21    11    20    1
    22    15    21    1
    23    15    22    1
    24    15    23    1
    25    16    24    1
