REMARK  Name = NuBBE_21
REMARK  3 active torsions:
REMARK  status: ('A' for Active; 'I' for Inactive)
REMARK    1  A    between atoms: C_2  and  C_9
REMARK    2  A    between atoms: C_10  and  C_11
REMARK    3  A    between atoms: C_12  and  C_13
REMARK                            x       y       z     vdW  Elec       q    Type
REMARK                         _______ _______ _______ _____ _____    ______ ____
ROOT
ATOM      1  C   LIG A   1       1.349   0.091   0.535  0.00  0.00    +0.001 C 
ATOM      2  C   LIG A   1       2.186  -0.022   1.576  0.00  0.00    +0.008 C 
ENDROOT
BRANCH   2   3
ATOM      3  C   LIG A   1       3.074  -1.175   1.734  0.00  0.00    -0.021 A 
ATOM      4  C   LIG A   1       2.652  -2.293   2.466  0.00  0.00    +0.057 A 
ATOM      5  C   LIG A   1       3.539  -3.341   2.611  0.00  0.00    +0.167 A 
ATOM      6  O   LIG A   1       3.304  -4.492   3.296  0.00  0.00    -0.453 OA
ATOM      7  C   LIG A   1       4.562  -5.177   3.116  0.00  0.00    +0.466 C 
ATOM      8  O   LIG A   1       5.513  -4.433   2.327  0.00  0.00    -0.453 OA
ATOM      9  C   LIG A   1       4.798  -3.308   2.058  0.00  0.00    +0.166 A 
ATOM     10  C   LIG A   1       5.239  -2.230   1.323  0.00  0.00    +0.050 A 
ATOM     11  C   LIG A   1       4.363  -1.152   1.159  0.00  0.00    +0.012 A 
ENDBRANCH   2   3
BRANCH   1  13
ATOM     12  C   LIG A   1      -0.382   1.319  -0.677  0.00  0.00    +0.067 C 
ATOM     13  C   LIG A   1       0.467   1.225   0.357  0.00  0.00    +0.005 C 
BRANCH  12  15
ATOM     14  O   LIG A   1      -0.842   3.623  -0.541  0.00  0.00    -0.271 OA
ATOM     15  C   LIG A   1      -1.260   2.507  -0.828  0.00  0.00    +0.239 C 
ATOM     16  N   LIG A   1      -2.527   2.261  -1.348  0.00  0.00    -0.298 N 
ATOM     17  C   LIG A   1      -3.402   3.410  -1.576  0.00  0.00    +0.108 C 
ATOM     18  C   LIG A   1      -4.321   3.184  -2.775  0.00  0.00    +0.019 C 
ATOM     19  C   LIG A   1      -5.081   1.866  -2.659  0.00  0.00    +0.003 C 
ATOM     20  C   LIG A   1      -4.114   0.708  -2.432  0.00  0.00    +0.019 C 
ATOM     21  C   LIG A   1      -3.215   0.971  -1.229  0.00  0.00    +0.108 C 
ENDBRANCH  12  15
ENDBRANCH   1  13
TORSDOF 3
