@<TRIPOS>MOLECULE
NuBBE_1215
 43 45 0 0 0
SMALL
GASTEIGER

@<TRIPOS>ATOM
      1 O          -3.7530   -0.2399    0.1808 O.2     1  LIG1       -0.2869
      2 C          -2.5362   -0.2447    0.1911 C.ar    1  LIG1        0.1967
      3 C          -1.8246   -1.5424    0.2057 C.ar    1  LIG1        0.0288
      4 C          -0.4888   -1.5696    0.1102 C.ar    1  LIG1        0.1392
      5 O           0.2834   -0.4373   -0.0382 O.2     1  LIG1       -0.4544
      6 C          -0.3175    0.7892    0.0285 C.ar    1  LIG1        0.1465
      7 C          -1.6908    0.9725    0.1659 C.ar    1  LIG1        0.1093
      8 C          -2.1838    2.2778    0.2836 C.ar    1  LIG1        0.1795
      9 O          -3.4975    2.4900    0.6308 O.3     1  LIG1       -0.4905
     10 C          -4.3332    2.7337   -0.4986 C.3     1  LIG1        0.0790
     11 C          -1.3012    3.3923    0.2492 C.ar    1  LIG1        0.2045
     12 O          -1.9238    4.6143    0.3675 O.3     1  LIG1       -0.4885
     13 C          -1.1304    5.7917    0.3088 C.3     1  LIG1        0.0791
     14 C           0.0856    3.1740    0.1052 C.ar    1  LIG1        0.1687
     15 O           0.9526    4.2299    0.1952 O.3     1  LIG1       -0.4912
     16 C           2.1609    4.1534   -0.5521 C.3     1  LIG1        0.0790
     17 C           0.5629    1.8693   -0.0001 C.ar    1  LIG1        0.0270
     18 C           0.3050   -2.8127    0.1432 C.ar    1  LIG1        0.0176
     19 C          -0.1154   -3.9532    0.8395 C.ar    1  LIG1       -0.0476
     20 C           0.7003   -5.0879    0.9082 C.ar    1  LIG1       -0.0193
     21 C           1.9512   -5.1013    0.2909 C.ar    1  LIG1        0.1201
     22 C           2.3758   -3.9744   -0.4084 C.ar    1  LIG1       -0.0193
     23 C           1.5622   -2.8435   -0.4791 C.ar    1  LIG1       -0.0476
     24 O           2.6718   -6.2545    0.4398 O.3     1  LIG1       -0.4951
     25 C           3.9613   -6.2568   -0.1639 C.3     1  LIG1        0.0788
     26 H          -2.4489   -2.4227    0.2879 H       1  LIG1        0.0693
     27 H          -4.9494    1.8504   -0.6925 H       1  LIG1        0.0660
     28 H          -3.7831    3.0011   -1.4071 H       1  LIG1        0.0660
     29 H          -5.0084    3.5570   -0.2448 H       1  LIG1        0.0660
     30 H          -1.8010    6.6549    0.2944 H       1  LIG1        0.0660
     31 H          -0.5429    5.8398   -0.6146 H       1  LIG1        0.0660
     32 H          -0.5039    5.8806    1.2029 H       1  LIG1        0.0660
     33 H           2.6246    5.1444   -0.5216 H       1  LIG1        0.0660
     34 H           1.9676    3.9043   -1.6007 H       1  LIG1        0.0660
     35 H           2.8653    3.4506   -0.0986 H       1  LIG1        0.0660
     36 H           1.6257    1.6564   -0.0525 H       1  LIG1        0.0692
     37 H          -1.0693   -3.9731    1.3602 H       1  LIG1        0.0626
     38 H           0.3575   -5.9601    1.4599 H       1  LIG1        0.0654
     39 H           3.3380   -3.9327   -0.9067 H       1  LIG1        0.0654
     40 H           1.9370   -1.9800   -1.0255 H       1  LIG1        0.0626
     41 H           4.4390   -7.2161    0.0500 H       1  LIG1        0.0660
     42 H           4.5943   -5.4677    0.2578 H       1  LIG1        0.0660
     43 H           3.8810   -6.1569   -1.2521 H       1  LIG1        0.0660
@<TRIPOS>BOND
     1     1     2    2
     2     2     3   ar
     3     3     4   ar
     4     4     5   ar
     5     5     6   ar
     6     6     7   ar
     7     2     7   ar
     8     7     8   ar
     9     8     9    1
    10     9    10    1
    11     8    11   ar
    12    11    12    1
    13    12    13    1
    14    11    14   ar
    15    14    15    1
    16    15    16    1
    17    14    17   ar
    18     6    17   ar
    19     4    18    1
    20    18    19   ar
    21    19    20   ar
    22    20    21   ar
    23    21    22   ar
    24    22    23   ar
    25    18    23   ar
    26    21    24    1
    27    24    25    1
    28     3    26    1
    29    10    27    1
    30    10    28    1
    31    10    29    1
    32    13    30    1
    33    13    31    1
    34    13    32    1
    35    16    33    1
    36    16    34    1
    37    16    35    1
    38    17    36    1
    39    19    37    1
    40    20    38    1
    41    22    39    1
    42    23    40    1
    43    25    41    1
    44    25    42    1
    45    25    43    1
