REMARK  Name = NuBBE_1066
REMARK  0 active torsions:
REMARK  status: ('A' for Active; 'I' for Inactive)
REMARK                            x       y       z     vdW  Elec       q    Type
REMARK                         _______ _______ _______ _____ _____    ______ ____
ROOT
ATOM      1  O   LIG A   1      -3.454   1.534  -0.014  0.00  0.00    -0.267 OA
ATOM      2  C   LIG A   1      -2.256   1.632  -0.067  0.00  0.00    +0.262 A 
ATOM      3  C   LIG A   1      -1.622   2.951  -0.182  0.00  0.00    +0.065 A 
ATOM      4  C   LIG A   1      -2.461   4.011  -0.365  0.00  0.00    +0.015 A 
ATOM      5  C   LIG A   1      -1.916   5.275  -0.554  0.00  0.00    +0.001 A 
ATOM      6  C   LIG A   1      -0.733   5.523   0.075  0.00  0.00    +0.002 A 
ATOM      7  C   LIG A   1       0.177   4.456   0.086  0.00  0.00    +0.028 A 
ATOM      8  C   LIG A   1      -0.262   3.094  -0.016  0.00  0.00    +0.079 A 
ATOM      9  N   LIG A   1       0.568   1.907   0.045  0.00  0.00    -0.227 NA
ATOM     10  C   LIG A   1      -0.001   0.739   0.030  0.00  0.00    +0.161 A 
ATOM     11  N   LIG A   1      -1.388   0.554  -0.022  0.00  0.00    -0.291 N 
ATOM     12  C   LIG A   1      -2.062  -0.752   0.177  0.00  0.00    +0.131 C 
ATOM     13  C   LIG A   1      -1.332  -1.930  -0.474  0.00  0.00    +0.059 C 
ATOM     14  C   LIG A   1       0.106  -1.806  -0.150  0.00  0.00    -0.010 A 
ATOM     15  C   LIG A   1       0.704  -0.567   0.065  0.00  0.00    +0.087 A 
ATOM     16  N   LIG A   1       2.031  -0.837   0.311  0.00  0.00    -0.351 N 
ATOM     17  H   LIG A   1       2.731  -0.132   0.502  0.00  0.00    +0.166 HD
ATOM     18  C   LIG A   1       2.264  -2.210   0.323  0.00  0.00    +0.047 A 
ATOM     19  C   LIG A   1       1.056  -2.841   0.036  0.00  0.00    +0.004 A 
ATOM     20  C   LIG A   1       0.996  -4.252  -0.009  0.00  0.00    +0.010 A 
ATOM     21  C   LIG A   1       2.157  -4.995   0.223  0.00  0.00    +0.001 A 
ATOM     22  C   LIG A   1       3.355  -4.345   0.504  0.00  0.00    +0.002 A 
ATOM     23  C   LIG A   1       3.433  -2.951   0.562  0.00  0.00    +0.026 A 
ENDROOT
TORSDOF 0
