@<TRIPOS>MOLECULE
NuBBE_2343
 54 56 0 0 0
SMALL
GASTEIGER

@<TRIPOS>ATOM
      1 C          -3.3576    4.3371    1.9579 C.3     1  LIG1        0.0790
      2 O          -3.1378    4.0914    0.5655 O.3     1  LIG1       -0.4913
      3 C          -2.5849    2.8696    0.2456 C.ar    1  LIG1        0.1655
      4 C          -2.8292    2.3063   -1.0407 C.ar    1  LIG1        0.2035
      5 O          -3.6677    3.0305   -1.8598 O.3     1  LIG1       -0.4885
      6 C          -3.9870    2.4974   -3.1423 C.3     1  LIG1        0.0791
      7 C          -2.2011    1.0898   -1.3785 C.ar    1  LIG1        0.1655
      8 O          -2.4558    0.4558   -2.5698 O.3     1  LIG1       -0.4913
      9 C          -1.4005   -0.3513   -3.0935 C.3     1  LIG1        0.0790
     10 C          -1.3422    0.4956   -0.4579 C.ar    1  LIG1       -0.0094
     11 C          -1.0783    1.0578    0.7899 C.ar    1  LIG1        0.0004
     12 C          -0.0998    0.4348    1.7542 C.3     1  LIG1        0.1320
     13 H          -0.5034    0.5296    2.7714 H       1  LIG1        0.0790
     14 O          -0.0578   -0.9656    1.4516 O.3     1  LIG1       -0.4829
     15 C           1.1395   -1.1859    0.8211 C.ar    1  LIG1        0.1321
     16 C           1.4802   -2.3974    0.2413 C.ar    1  LIG1        0.0433
     17 C           0.6105   -3.6326    0.3546 C.3     1  LIG1       -0.0027
     18 C          -0.1647   -3.8899    1.6538 C.2     1  LIG1       -0.0866
     19 C          -0.1248   -3.2685    2.8170 C.2     1  LIG1       -0.1023
     20 C           2.6642   -2.3859   -0.5213 C.ar    1  LIG1        0.1655
     21 O           3.0049   -3.5241   -1.2009 O.3     1  LIG1       -0.5030
     22 C           3.4981   -1.2451   -0.5813 C.ar    1  LIG1        0.1621
     23 O           4.6829   -1.1259   -1.2608 O.3     1  LIG1       -0.4914
     24 C           4.8368   -1.9030   -2.4406 C.3     1  LIG1        0.0790
     25 C           3.1550   -0.0918    0.1395 C.ar    1  LIG1       -0.0093
     26 C           1.9575   -0.0701    0.8266 C.ar    1  LIG1        0.0049
     27 C           1.3345    1.0025    1.6520 C.3     1  LIG1        0.0261
     28 H           1.3578    1.9751    1.1502 H       1  LIG1        0.0387
     29 C           1.9881    1.1176    3.0305 C.3     1  LIG1       -0.0546
     30 C          -1.7257    2.2269    1.1412 C.ar    1  LIG1       -0.0094
     31 H          -3.5900    5.3964    2.0938 H       1  LIG1        0.0660
     32 H          -2.4863    4.1623    2.5969 H       1  LIG1        0.0660
     33 H          -4.2032    3.7374    2.3072 H       1  LIG1        0.0660
     34 H          -3.0925    2.3329   -3.7537 H       1  LIG1        0.0660
     35 H          -4.5905    3.2326   -3.6826 H       1  LIG1        0.0660
     36 H          -4.5920    1.5878   -3.0493 H       1  LIG1        0.0660
     37 H          -1.6672   -0.6376   -4.1140 H       1  LIG1        0.0660
     38 H          -1.2842   -1.2807   -2.5251 H       1  LIG1        0.0660
     39 H          -0.4585    0.2077   -3.1312 H       1  LIG1        0.0660
     40 H          -0.8690   -0.4470   -0.6994 H       1  LIG1        0.0659
     41 H           1.2299   -4.5214    0.2059 H       1  LIG1        0.0358
     42 H          -0.1063   -3.6055   -0.4709 H       1  LIG1        0.0358
     43 H          -0.8761   -4.7195    1.5621 H       1  LIG1        0.0570
     44 H           0.5461   -2.4163    3.0207 H       1  LIG1        0.0532
     45 H          -0.8227   -3.4849    3.6263 H       1  LIG1        0.0532
     46 H           2.3705   -3.6029   -1.9345 H       1  LIG1        0.2923
     47 H           5.7280   -1.5390   -2.9609 H       1  LIG1        0.0660
     48 H           3.9842   -1.7786   -3.1179 H       1  LIG1        0.0660
     49 H           5.0192   -2.9558   -2.2103 H       1  LIG1        0.0660
     50 H           3.8044    0.7767    0.1291 H       1  LIG1        0.0659
     51 H           1.9686    0.1688    3.5809 H       1  LIG1        0.0237
     52 H           1.4684    1.8647    3.6411 H       1  LIG1        0.0237
     53 H           3.0354    1.4253    2.9427 H       1  LIG1        0.0237
     54 H          -1.5079    2.6160    2.1265 H       1  LIG1        0.0659
@<TRIPOS>BOND
     1     1     2    1
     2     2     3    1
     3     3     4   ar
     4     4     5    1
     5     5     6    1
     6     4     7   ar
     7     7     8    1
     8     8     9    1
     9     7    10   ar
    10    10    11   ar
    11    11    12    1
    12    12    13    1
    13    12    14    1
    14    14    15    1
    15    15    16   ar
    16    16    17    1
    17    17    18    1
    18    18    19    2
    19    16    20   ar
    20    20    21    1
    21    20    22   ar
    22    22    23    1
    23    23    24    1
    24    22    25   ar
    25    25    26   ar
    26    15    26   ar
    27    26    27    1
    28    12    27    1
    29    11    30   ar
    30     3    30   ar
    31    27    29    1
    32    27    28    1
    33     1    31    1
    34     1    32    1
    35     1    33    1
    36     6    34    1
    37     6    35    1
    38     6    36    1
    39     9    37    1
    40     9    38    1
    41     9    39    1
    42    10    40    1
    43    17    41    1
    44    17    42    1
    45    18    43    1
    46    19    44    1
    47    19    45    1
    48    21    46    1
    49    24    47    1
    50    24    48    1
    51    24    49    1
    52    25    50    1
    53    29    51    1
    54    29    52    1
    55    29    53    1
    56    30    54    1
