REMARK  Name = NuBBE_446
REMARK  12 active torsions:
REMARK  status: ('A' for Active; 'I' for Inactive)
REMARK    1  A    between atoms: C_4  and  O_5
REMARK    2  A    between atoms: C_7  and  O_8
REMARK    3  A    between atoms: C_12  and  C_13
REMARK    4  A    between atoms: C_16  and  O_17
REMARK    5  A    between atoms: C_18  and  O_19
REMARK    6  A    between atoms: O_19  and  C_20
REMARK    7  A    between atoms: C_22  and  O_23
REMARK    8  A    between atoms: O_23  and  C_24
REMARK    9  A    between atoms: C_26  and  O_28
REMARK   10  A    between atoms: C_30  and  C_32
REMARK   11  A    between atoms: C_33  and  O_35
REMARK   12  A    between atoms: C_36  and  O_38
REMARK                            x       y       z     vdW  Elec       q    Type
REMARK                         _______ _______ _______ _____ _____    ______ ____
ROOT
ATOM      1  O   LIG A   1      -0.758   1.300   2.319  0.00  0.00    -0.283 OA
ATOM      2  C   LIG A   1      -0.471   0.129   2.149  0.00  0.00    +0.238 A 
ATOM      3  C   LIG A   1      -0.674  -0.805   3.268  0.00  0.00    +0.109 A 
ATOM      4  C   LIG A   1      -1.220  -0.400   4.487  0.00  0.00    +0.135 A 
ATOM      5  C   LIG A   1      -1.258  -1.288   5.567  0.00  0.00    +0.091 A 
ATOM      6  C   LIG A   1      -0.762  -2.577   5.402  0.00  0.00    +0.124 A 
ATOM      7  C   LIG A   1      -0.271  -2.998   4.174  0.00  0.00    +0.092 A 
ATOM      8  C   LIG A   1      -0.237  -2.094   3.116  0.00  0.00    +0.146 A 
ATOM      9  O   LIG A   1       0.246  -2.570   1.932  0.00  0.00    -0.451 OA
ATOM     10  C   LIG A   1       0.476  -1.699   0.879  0.00  0.00    +0.181 A 
ATOM     11  C   LIG A   1       0.134  -0.390   0.877  0.00  0.00    +0.214 A 
ENDROOT
BRANCH  10  12
ATOM     12  C   LIG A   1       1.165  -2.452  -0.215  0.00  0.00    +0.025 A 
ATOM     13  C   LIG A   1       1.979  -3.556   0.113  0.00  0.00    +0.015 A 
ATOM     14  C   LIG A   1       2.572  -4.350  -0.870  0.00  0.00    +0.050 A 
ATOM     15  C   LIG A   1       2.387  -4.023  -2.206  0.00  0.00    +0.159 A 
ATOM     16  C   LIG A   1       1.586  -2.932  -2.566  0.00  0.00    +0.162 A 
ATOM     17  C   LIG A   1       0.953  -2.175  -1.565  0.00  0.00    +0.061 A 
BRANCH  15  18
ATOM     18  O   LIG A   1       3.005  -4.766  -3.174  0.00  0.00    -0.503 OA
ATOM     19  H   LIG A   1       3.645  -5.363  -2.753  0.00  0.00    +0.292 HD
ENDBRANCH  15  18
BRANCH  16  20
ATOM     20  O   LIG A   1       1.429  -2.676  -3.905  0.00  0.00    -0.491 OA
ATOM     21  C   LIG A   1       1.170  -1.312  -4.223  0.00  0.00    +0.277 C 
ENDBRANCH  16  20
ENDBRANCH  10  12
BRANCH   4  22
ATOM     22  O   LIG A   1      -1.737   0.846   4.706  0.00  0.00    -0.506 OA
ATOM     23  H   LIG A   1      -1.621   1.372   3.881  0.00  0.00    +0.292 HD
ENDBRANCH   4  22
BRANCH   6  24
ATOM     24  O   LIG A   1      -0.739  -3.469   6.432  0.00  0.00    -0.506 OA
ATOM     25  H   LIG A   1      -1.108  -3.044   7.224  0.00  0.00    +0.292 HD
ENDBRANCH   6  24
BRANCH  11  26
ATOM     26  O   LIG A   1       0.426   0.477  -0.180  0.00  0.00    -0.453 OA
BRANCH  26  27
ATOM     27  C   LIG A   1      -0.402   1.645  -0.383  0.00  0.00    +0.340 C 
ATOM     28  C   LIG A   1       0.477   2.920  -0.243  0.00  0.00    +0.214 C 
ATOM     29  O   LIG A   1      -0.991   1.600  -1.698  0.00  0.00    -0.334 OA
ATOM     30  C   LIG A   1      -1.875   2.721  -1.894  0.00  0.00    +0.150 C 
ATOM     31  C   LIG A   1      -2.659   2.511  -3.182  0.00  0.00    +0.040 C 
ATOM     32  C   LIG A   1      -1.079   4.033  -1.913  0.00  0.00    +0.174 C 
ATOM     33  C   LIG A   1      -0.318   4.186  -0.590  0.00  0.00    +0.180 C 
BRANCH  28  34
ATOM     34  O   LIG A   1       1.612   2.881  -1.142  0.00  0.00    -0.383 OA
ATOM     35  H   LIG A   1       1.947   1.964  -1.113  0.00  0.00    +0.210 HD
ENDBRANCH  28  34
BRANCH  32  36
ATOM     36  O   LIG A   1      -1.947   5.159  -2.085  0.00  0.00    -0.387 OA
ATOM     37  H   LIG A   1      -1.379   5.949  -1.979  0.00  0.00    +0.210 HD
ENDBRANCH  32  36
BRANCH  33  38
ATOM     38  O   LIG A   1       0.565   5.317  -0.713  0.00  0.00    -0.386 OA
ATOM     39  H   LIG A   1       1.359   4.967  -1.169  0.00  0.00    +0.210 HD
ENDBRANCH  33  38
ENDBRANCH  26  27
ENDBRANCH  11  26
TORSDOF 10
