REMARK  Name = NuBBE_1386
REMARK  4 active torsions:
REMARK  status: ('A' for Active; 'I' for Inactive)
REMARK    1  A    between atoms: C_1  and  C_2
REMARK    2  A    between atoms: C_2  and  O_3
REMARK    3  A    between atoms: O_3  and  C_4
REMARK    4  A    between atoms: C_4  and  C_5
REMARK                            x       y       z     vdW  Elec       q    Type
REMARK                         _______ _______ _______ _____ _____    ______ ____
ROOT
ATOM      1  C   LIG A   1       1.386   1.372  -1.393  0.00  0.00    +0.136 C 
ATOM      2  C   LIG A   1       0.335   0.385  -0.990  0.00  0.00    +0.304 C 
ATOM      3  O   LIG A   1      -0.023  -0.559  -1.680  0.00  0.00    -0.251 OA
ENDROOT
BRANCH   2   4
ATOM      4  O   LIG A   1      -0.150   0.698   0.243  0.00  0.00    -0.465 OA
BRANCH   4   5
ATOM      5  C   LIG A   1      -1.173  -0.175   0.745  0.00  0.00    +0.228 C 
ATOM      6  C   LIG A   1      -0.550  -1.389   1.409  0.00  0.00    +0.048 C 
ENDBRANCH   4   5
ENDBRANCH   2   4
TORSDOF 2
