@<TRIPOS>MOLECULE
NuBBE_2240
 30 31 0 0 0
SMALL
GASTEIGER

@<TRIPOS>ATOM
      1 O           0.7115   -1.6949   -0.5424 O.2     1  LIG1       -0.4079
      2 C           0.0583   -0.5407   -0.0215 C.ar    1  LIG1        0.1963
      3 N           0.6788    0.6858   -0.2934 N.pl3   1  LIG1       -0.3012
      4 C           1.9241    0.7230   -1.0902 C.3     1  LIG1        0.0148
      5 C           2.0244    2.0241   -1.8843 C.3     1  LIG1       -0.0371
      6 C           1.8910    3.2426   -0.9810 C.3     1  LIG1       -0.0502
      7 C           0.6038    3.1545   -0.1730 C.3     1  LIG1       -0.0371
      8 C           0.5303    1.8455    0.6078 C.3     1  LIG1        0.0148
      9 C          -1.0863   -0.7047    0.6600 C.ar    1  LIG1        0.0380
     10 C          -1.6556   -2.0082    0.8685 C.ar    1  LIG1        0.1317
     11 C          -1.0347   -3.0914    0.3877 C.ar    1  LIG1        0.0647
     12 C           0.2252   -2.9537   -0.3552 C.ar    1  LIG1        0.3418
     13 O           0.7949   -3.9527   -0.7812 O.2     1  LIG1       -0.2450
     14 O          -2.8364   -1.9681    1.5692 O.3     1  LIG1       -0.4947
     15 C          -3.4996   -3.2033    1.8112 C.3     1  LIG1        0.0788
     16 H           1.9606   -0.1017   -1.8115 H       1  LIG1        0.0464
     17 H           2.7869    0.6138   -0.4219 H       1  LIG1        0.0464
     18 H           1.2328    2.0495   -2.6440 H       1  LIG1        0.0280
     19 H           2.9817    2.0603   -2.4163 H       1  LIG1        0.0280
     20 H           1.8932    4.1579   -1.5828 H       1  LIG1        0.0266
     21 H           2.7512    3.2978   -0.3029 H       1  LIG1        0.0266
     22 H          -0.2569    3.2263   -0.8500 H       1  LIG1        0.0280
     23 H           0.5416    4.0017    0.5189 H       1  LIG1        0.0280
     24 H          -0.4249    1.8363    1.1404 H       1  LIG1        0.0464
     25 H           1.3192    1.8113    1.3695 H       1  LIG1        0.0464
     26 H          -1.6428    0.1346    1.0572 H       1  LIG1        0.0705
     27 H          -1.3972   -4.1022    0.5011 H       1  LIG1        0.0726
     28 H          -4.4285   -2.9875    2.3469 H       1  LIG1        0.0660
     29 H          -2.8871   -3.8555    2.4421 H       1  LIG1        0.0660
     30 H          -3.7598   -3.7000    0.8708 H       1  LIG1        0.0660
@<TRIPOS>BOND
     1     1     2   ar
     2     2     3    1
     3     3     4    1
     4     4     5    1
     5     5     6    1
     6     6     7    1
     7     7     8    1
     8     3     8    1
     9     2     9   ar
    10     9    10   ar
    11    10    11   ar
    12    11    12   ar
    13     1    12   ar
    14    12    13    2
    15    10    14    1
    16    14    15    1
    17     4    16    1
    18     4    17    1
    19     5    18    1
    20     5    19    1
    21     6    20    1
    22     6    21    1
    23     7    22    1
    24     7    23    1
    25     8    24    1
    26     8    25    1
    27     9    26    1
    28    11    27    1
    29    15    28    1
    30    15    29    1
    31    15    30    1
