@<TRIPOS>MOLECULE
NuBBE_2020
 37 39 0 0 0
SMALL
GASTEIGER

@<TRIPOS>ATOM
      1 O          -1.9189   -0.6634    0.3903 O.2     1  LIG1       -0.2864
      2 C          -0.6940   -0.7729    0.3164 C.ar    1  LIG1        0.2003
      3 C          -0.0927   -2.1148    0.2902 C.ar    1  LIG1        0.0684
      4 C          -0.9167   -3.2425    0.3275 C.ar    1  LIG1       -0.0437
      5 C          -0.3507   -4.5126    0.2942 C.ar    1  LIG1       -0.0156
      6 C           1.0378   -4.6568    0.2178 C.ar    1  LIG1        0.1622
      7 O           1.5437   -5.9266    0.2179 O.3     1  LIG1       -0.5032
      8 C           1.8787   -3.5314    0.1759 C.ar    1  LIG1        0.2046
      9 O           3.2519   -3.5566    0.1612 O.3     1  LIG1       -0.4885
     10 C           3.8761   -4.6368   -0.5245 C.3     1  LIG1        0.0791
     11 C           1.2924   -2.2504    0.2263 C.ar    1  LIG1        0.1834
     12 O           2.1143   -1.1479    0.2028 O.2     1  LIG1       -0.4583
     13 C           1.5361    0.1018    0.1948 C.ar    1  LIG1        0.1040
     14 C           0.2251    0.4003    0.2433 C.ar    1  LIG1        0.0644
     15 C          -0.2656    1.8048    0.1964 C.ar    1  LIG1       -0.0076
     16 C          -1.5023    2.1175   -0.3928 C.ar    1  LIG1       -0.0086
     17 C          -1.9935    3.4317   -0.4324 C.ar    1  LIG1        0.1590
     18 O          -3.2130    3.6421   -1.0170 O.3     1  LIG1       -0.5033
     19 C          -1.2497    4.4814    0.1074 C.ar    1  LIG1        0.1613
     20 O          -1.5594    5.8134    0.1486 O.3     1  LIG1       -0.4915
     21 C          -2.8002    6.2255   -0.4078 C.3     1  LIG1        0.0790
     22 C          -0.0152    4.1814    0.6925 C.ar    1  LIG1       -0.0157
     23 C           0.4692    2.8666    0.7429 C.ar    1  LIG1       -0.0501
     24 H          -1.9976   -3.1330    0.3887 H       1  LIG1        0.0627
     25 H          -1.0067   -5.3774    0.3389 H       1  LIG1        0.0655
     26 H           0.8187   -6.5676    0.3011 H       1  LIG1        0.2923
     27 H           4.9525   -4.4370   -0.5442 H       1  LIG1        0.0660
     28 H           3.5291   -4.7026   -1.5611 H       1  LIG1        0.0660
     29 H           3.7612   -5.5874    0.0009 H       1  LIG1        0.0660
     30 H           2.3269    0.8395    0.1280 H       1  LIG1        0.1037
     31 H          -2.1034    1.3258   -0.8324 H       1  LIG1        0.0661
     32 H          -3.5812    2.7891   -1.3009 H       1  LIG1        0.2923
     33 H          -2.8610    7.3144   -0.3159 H       1  LIG1        0.0660
     34 H          -3.6425    5.8052    0.1513 H       1  LIG1        0.0660
     35 H          -2.8568    5.9932   -1.4760 H       1  LIG1        0.0660
     36 H           0.5795    4.9854    1.1220 H       1  LIG1        0.0655
     37 H           1.4278    2.6986    1.2278 H       1  LIG1        0.0625
@<TRIPOS>BOND
     1     1     2    2
     2     2     3   ar
     3     3     4   ar
     4     4     5   ar
     5     5     6   ar
     6     6     7    1
     7     6     8   ar
     8     8     9    1
     9     9    10    1
    10     8    11   ar
    11     3    11   ar
    12    11    12   ar
    13    12    13   ar
    14    13    14   ar
    15     2    14   ar
    16    14    15    1
    17    15    16   ar
    18    16    17   ar
    19    17    18    1
    20    17    19   ar
    21    19    20    1
    22    20    21    1
    23    19    22   ar
    24    22    23   ar
    25    15    23   ar
    26     4    24    1
    27     5    25    1
    28     7    26    1
    29    10    27    1
    30    10    28    1
    31    10    29    1
    32    13    30    1
    33    16    31    1
    34    18    32    1
    35    21    33    1
    36    21    34    1
    37    21    35    1
    38    22    36    1
    39    23    37    1
