REMARK  Name = NuBBE_1026
REMARK  9 active torsions:
REMARK  status: ('A' for Active; 'I' for Inactive)
REMARK    1  A    between atoms: O_1  and  C_2
REMARK    2  A    between atoms: C_6  and  C_7
REMARK    3  A    between atoms: C_11  and  C_12
REMARK    4  A    between atoms: C_19  and  C_20
REMARK    5  A    between atoms: C_23  and  C_24
REMARK    6  A    between atoms: C_27  and  C_29
REMARK    7  A    between atoms: C_29  and  C_30
REMARK    8  A    between atoms: C_35  and  C_36
REMARK    9  A    between atoms: C_35  and  C_37
REMARK                            x       y       z     vdW  Elec       q    Type
REMARK                         _______ _______ _______ _____ _____    ______ ____
ROOT
ATOM      1  C   LIG A   1      -5.317   0.127   0.948  0.00  0.00    +0.120 C 
ATOM      2  C   LIG A   1      -4.840  -0.923   1.960  0.00  0.00    +0.032 C 
ATOM      3  C   LIG A   1      -3.451  -1.498   1.645  0.00  0.00    +0.010 C 
ATOM      4  C   LIG A   1      -2.361  -0.402   1.458  0.00  0.00    -0.022 C 
ATOM      5  C   LIG A   1      -2.193   0.290   2.840  0.00  0.00    +0.012 C 
ATOM      6  C   LIG A   1      -2.907   0.557   0.352  0.00  0.00    +0.004 C 
ATOM      7  C   LIG A   1      -1.760   1.415  -0.166  0.00  0.00    +0.005 C 
ATOM      8  C   LIG A   1      -0.861   0.550  -1.060  0.00  0.00    +0.008 C 
ATOM      9  C   LIG A   1      -0.552  -0.906  -0.539  0.00  0.00    -0.019 C 
ATOM     10  C   LIG A   1      -1.403  -1.907  -1.384  0.00  0.00    +0.012 C 
ATOM     11  C   LIG A   1      -0.954  -1.076   1.006  0.00  0.00    +0.024 C 
ATOM     12  C   LIG A   1       0.227  -0.747   1.927  0.00  0.00    -0.026 C 
ATOM     13  C   LIG A   1       1.456  -0.381   1.547  0.00  0.00    -0.026 C 
ATOM     14  C   LIG A   1       1.875  -0.305   0.104  0.00  0.00    +0.022 C 
ATOM     15  C   LIG A   1       1.020  -1.279  -0.756  0.00  0.00    -0.020 C 
ATOM     16  C   LIG A   1       1.270  -2.764  -0.350  0.00  0.00    +0.012 C 
ATOM     17  C   LIG A   1       1.507  -1.068  -2.215  0.00  0.00    +0.008 C 
ATOM     18  C   LIG A   1       2.962  -1.485  -2.461  0.00  0.00    +0.007 C 
ATOM     19  C   LIG A   1       3.989  -1.116  -1.367  0.00  0.00    -0.028 C 
ATOM     20  C   LIG A   1       4.754  -2.411  -0.960  0.00  0.00    +0.011 C 
ATOM     21  C   LIG A   1       3.416  -0.408  -0.089  0.00  0.00    +0.009 C 
ATOM     22  C   LIG A   1       4.155   0.977   0.005  0.00  0.00    +0.018 C 
ATOM     23  C   LIG A   1       5.468   0.730  -0.742  0.00  0.00    +0.009 C 
ATOM     24  C   LIG A   1       5.085  -0.161  -1.913  0.00  0.00    +0.007 C 
ATOM     25  C   LIG A   1      -4.284   1.255   0.626  0.00  0.00    -0.006 C 
ATOM     26  C   LIG A   1      -4.772   1.960  -0.673  0.00  0.00    +0.014 C 
ATOM     27  C   LIG A   1      -4.258   2.356   1.705  0.00  0.00    +0.014 C 
ENDROOT
BRANCH  22  28
ATOM     28  C   LIG A   1       3.436   2.241  -0.480  0.00  0.00    -0.076 C 
ATOM     29  C   LIG A   1       3.130   3.252   0.596  0.00  0.00    +0.038 C 
ATOM     30  C   LIG A   1       3.057   2.497  -1.745  0.00  0.00    +0.007 C 
ENDBRANCH  22  28
BRANCH   1  31
ATOM     31  O   LIG A   1      -6.543   0.694   1.406  0.00  0.00    -0.391 OA
ATOM     32  H   LIG A   1      -7.171  -0.036   1.546  0.00  0.00    +0.210 HD
ENDBRANCH   1  31
TORSDOF 2
