@<TRIPOS>MOLECULE
NuBBE_1949
 84 88 0 0 0
SMALL
GASTEIGER

@<TRIPOS>ATOM
      1 C          -3.4437    0.4813    1.9474 C.3     1  LIG1       -0.0588
      2 C          -2.1472    0.8936    1.2151 C.3     1  LIG1       -0.0231
      3 C          -1.6154   -0.3020    0.3157 C.3     1  LIG1       -0.0289
      4 H          -0.7779    0.0961   -0.2755 H       1  LIG1        0.0312
      5 C          -0.9985   -1.4236    1.1689 C.3     1  LIG1       -0.0194
      6 C          -0.9911   -2.8744    0.6045 C.3     1  LIG1       -0.0193
      7 C          -1.7975   -2.5189    1.8382 C.3     1  LIG1       -0.0401
      8 C          -1.8587   -3.2275   -0.6218 C.3     1  LIG1       -0.0273
      9 H          -2.8623   -3.4388   -0.2212 H       1  LIG1        0.0312
     10 C          -2.0187   -2.0008   -1.5282 C.3     1  LIG1       -0.0488
     11 C          -2.6130   -0.8349   -0.7305 C.3     1  LIG1       -0.0489
     12 C          -1.4487   -4.5499   -1.3576 C.3     1  LIG1       -0.0056
     13 C          -0.3310   -4.3576   -2.4035 C.3     1  LIG1       -0.0572
     14 C          -2.6762   -5.1080   -2.1277 C.3     1  LIG1       -0.0572
     15 C          -1.0535   -5.5889   -0.2789 C.3     1  LIG1        0.0606
     16 H          -1.9170   -5.7496    0.3809 H       1  LIG1        0.0599
     17 C           0.1317   -5.1641    0.5802 C.3     1  LIG1       -0.0258
     18 C           0.2937   -3.6611    0.7467 C.3     1  LIG1       -0.0442
     19 O          -0.7587   -6.8571   -0.8672 O.3     1  LIG1       -0.3912
     20 C           0.1566   -0.8887    1.9867 C.3     1  LIG1       -0.0460
     21 C          -0.3244    0.2325    2.8993 C.3     1  LIG1       -0.0463
     22 C          -1.0236    1.4259    2.2047 C.3     1  LIG1       -0.0233
     23 C          -1.6225    2.2756    3.3747 C.3     1  LIG1       -0.0588
     24 C          -0.1711    2.4660    1.3416 C.3     1  LIG1       -0.0325
     25 H          -0.0814    3.3879    1.9377 H       1  LIG1        0.0309
     26 C          -1.0912    2.8396    0.1567 C.3     1  LIG1       -0.0489
     27 C          -2.4351    2.1520    0.3715 C.3     1  LIG1       -0.0466
     28 C           1.3079    2.1653    0.9152 C.3     1  LIG1       -0.0402
     29 H           1.3042    1.2757    0.2758 H       1  LIG1        0.0301
     30 C           1.9564    3.3196    0.0701 C.3     1  LIG1       -0.0465
     31 C           3.3380    2.9601   -0.5424 C.3     1  LIG1       -0.0315
     32 C           4.0289    4.0685   -1.3337 C.2     1  LIG1       -0.0740
     33 C           4.9777    4.8410   -0.7473 C.2     1  LIG1       -0.0992
     34 C           3.7462    4.2694   -2.8219 C.3     1  LIG1       -0.0258
     35 C           4.0268    3.0303   -3.6774 C.3     1  LIG1       -0.0590
     36 C           2.3388    4.7990   -3.0885 C.3     1  LIG1       -0.0590
     37 C           2.1727    1.9099    2.1615 C.3     1  LIG1       -0.0621
     38 H          -3.2661   -0.3197    2.6695 H       1  LIG1        0.0235
     39 H          -4.2192    0.1501    1.2517 H       1  LIG1        0.0235
     40 H          -3.8875    1.3173    2.4986 H       1  LIG1        0.0235
     41 H          -1.4610   -2.9086    2.7948 H       1  LIG1        0.0276
     42 H          -2.8798   -2.4799    1.7783 H       1  LIG1        0.0276
     43 H          -2.6930   -2.2298   -2.3602 H       1  LIG1        0.0268
     44 H          -1.0563   -1.6999   -1.9576 H       1  LIG1        0.0268
     45 H          -3.5438   -1.1720   -0.2632 H       1  LIG1        0.0268
     46 H          -2.8803   -0.0413   -1.4351 H       1  LIG1        0.0268
     47 H          -0.6680   -3.7273   -3.2340 H       1  LIG1        0.0236
     48 H          -0.0282   -5.3166   -2.8399 H       1  LIG1        0.0236
     49 H           0.5653   -3.8937   -1.9885 H       1  LIG1        0.0236
     50 H          -3.0315   -4.4057   -2.8882 H       1  LIG1        0.0236
     51 H          -3.5111   -5.3140   -1.4481 H       1  LIG1        0.0236
     52 H          -2.4353   -6.0451   -2.6429 H       1  LIG1        0.0236
     53 H           1.0687   -5.5837    0.1908 H       1  LIG1        0.0290
     54 H           0.0120   -5.6261    1.5696 H       1  LIG1        0.0290
     55 H           1.0105   -3.2801    0.0106 H       1  LIG1        0.0272
     56 H           0.7711   -3.5013    1.7184 H       1  LIG1        0.0272
     57 H          -0.5626   -7.4771   -0.1439 H       1  LIG1        0.2098
     58 H           0.9553   -0.5731    1.3144 H       1  LIG1        0.0271
     59 H           0.5902   -1.6582    2.6338 H       1  LIG1        0.0271
     60 H           0.4881    0.5580    3.5518 H       1  LIG1        0.0271
     61 H          -1.0456   -0.2233    3.5944 H       1  LIG1        0.0271
     62 H          -2.2511    1.6781    4.0433 H       1  LIG1        0.0235
     63 H          -2.2235    3.1162    3.0120 H       1  LIG1        0.0235
     64 H          -0.8188    2.6943    3.9932 H       1  LIG1        0.0235
     65 H          -0.6705    2.5280   -0.8035 H       1  LIG1        0.0268
     66 H          -1.2372    3.9268    0.1126 H       1  LIG1        0.0268
     67 H          -2.9207    1.9380   -0.5843 H       1  LIG1        0.0271
     68 H          -3.1093    2.8354    0.9033 H       1  LIG1        0.0271
     69 H           2.0555    4.2133    0.6991 H       1  LIG1        0.0271
     70 H           1.2830    3.5875   -0.7451 H       1  LIG1        0.0271
     71 H           3.2305    2.0715   -1.1763 H       1  LIG1        0.0310
     72 H           4.0177    2.6477    0.2586 H       1  LIG1        0.0310
     73 H           5.2537    4.7212    0.2903 H       1  LIG1        0.0534
     74 H           5.5011    5.6076   -1.3003 H       1  LIG1        0.0534
     75 H           4.4310    5.0421   -3.2005 H       1  LIG1        0.0340
     76 H           3.3461    2.2062   -3.4461 H       1  LIG1        0.0235
     77 H           5.0558    2.6802   -3.5414 H       1  LIG1        0.0235
     78 H           3.9014    3.2688   -4.7409 H       1  LIG1        0.0235
     79 H           1.5722    4.0698   -2.8182 H       1  LIG1        0.0235
     80 H           2.2110    5.0240   -4.1531 H       1  LIG1        0.0235
     81 H           2.1589    5.7242   -2.5305 H       1  LIG1        0.0235
     82 H           2.4442    0.8521    2.2295 H       1  LIG1        0.0233
     83 H           1.6526    2.1946    3.0809 H       1  LIG1        0.0233
     84 H           3.1033    2.4795    2.1725 H       1  LIG1        0.0233
@<TRIPOS>BOND
     1     1     2    1
     2     2     3    1
     3     3     4    1
     4     3     5    1
     5     5     6    1
     6     6     7    1
     7     5     7    1
     8     6     8    1
     9     8     9    1
    10     8    10    1
    11    10    11    1
    12     3    11    1
    13     8    12    1
    14    12    13    1
    15    12    14    1
    16    12    15    1
    17    15    17    1
    18    17    18    1
    19     6    18    1
    20     5    20    1
    21    20    21    1
    22    21    22    1
    23     2    22    1
    24    22    23    1
    25    22    24    1
    26    24    26    1
    27    26    27    1
    28     2    27    1
    29    28    29    1
    30    28    30    1
    31    30    31    1
    32    31    32    1
    33    32    33    2
    34    32    34    1
    35    34    35    1
    36    34    36    1
    37    28    37    1
    38    15    19    1
    39    15    16    1
    40    24    28    1
    41    24    25    1
    42     1    38    1
    43     1    39    1
    44     1    40    1
    45     7    41    1
    46     7    42    1
    47    10    43    1
    48    10    44    1
    49    11    45    1
    50    11    46    1
    51    13    47    1
    52    13    48    1
    53    13    49    1
    54    14    50    1
    55    14    51    1
    56    14    52    1
    57    17    53    1
    58    17    54    1
    59    18    55    1
    60    18    56    1
    61    19    57    1
    62    20    58    1
    63    20    59    1
    64    21    60    1
    65    21    61    1
    66    23    62    1
    67    23    63    1
    68    23    64    1
    69    26    65    1
    70    26    66    1
    71    27    67    1
    72    27    68    1
    73    30    69    1
    74    30    70    1
    75    31    71    1
    76    31    72    1
    77    33    73    1
    78    33    74    1
    79    34    75    1
    80    35    76    1
    81    35    77    1
    82    35    78    1
    83    36    79    1
    84    36    80    1
    85    36    81    1
    86    37    82    1
    87    37    83    1
    88    37    84    1
