REMARK  Name = NuBBE_835
REMARK  12 active torsions:
REMARK  status: ('A' for Active; 'I' for Inactive)
REMARK    1  A    between atoms: C_4  and  C_31
REMARK    2  A    between atoms: C_9  and  C_10
REMARK    3  A    between atoms: C_11  and  C_12
REMARK    4  A    between atoms: C_12  and  C_14
REMARK    5  A    between atoms: C_12  and  C_15
REMARK    6  A    between atoms: C_15  and  C_16
REMARK    7  A    between atoms: C_21  and  C_22
REMARK    8  A    between atoms: C_22  and  C_23
REMARK    9  A    between atoms: C_23  and  C_25
REMARK   10  A    between atoms: C_23  and  C_26
REMARK   11  A    between atoms: C_26  and  O_28
REMARK   12  A    between atoms: C_26  and  C_29
REMARK                            x       y       z     vdW  Elec       q    Type
REMARK                         _______ _______ _______ _____ _____    ______ ____
ROOT
ATOM      1  O   LIG A   1      -2.704   3.566  -3.157  0.00  0.00    -0.245 OA
ATOM      2  C   LIG A   1      -1.785   2.790  -3.033  0.00  0.00    +0.344 C 
ATOM      3  O   LIG A   1      -1.050   2.316  -4.085  0.00  0.00    -0.442 OA
ATOM      4  C   LIG A   1       0.024   1.535  -3.594  0.00  0.00    +0.200 C 
ATOM      5  C   LIG A   1      -0.142   1.597  -2.121  0.00  0.00    +0.031 C 
ATOM      6  C   LIG A   1       0.743   0.720  -1.395  0.00  0.00    +0.027 C 
ATOM      7  C   LIG A   1       1.512   1.108  -0.361  0.00  0.00    +0.204 C 
ATOM      8  O   LIG A   1       2.364   0.260   0.330  0.00  0.00    -0.463 OA
ATOM      9  C   LIG A   1       2.242  -1.108   0.097  0.00  0.00    +0.128 C 
ATOM     10  C   LIG A   1       1.555  -1.605  -0.948  0.00  0.00    +0.056 C 
ATOM     11  C   LIG A   1       0.927  -0.665  -1.869  0.00  0.00    +0.011 C 
ATOM     12  C   LIG A   1       0.492  -0.999  -3.104  0.00  0.00    +0.096 C 
ATOM     13 CL   LIG A   1       0.588  -2.603  -3.748  0.00  0.00    -0.079 Cl
ATOM     14  C   LIG A   1      -1.254   2.255  -1.769  0.00  0.00    +0.110 C 
ATOM     15  C   LIG A   1       1.324   2.167  -4.098  0.00  0.00    +0.070 C 
ATOM     16  C   LIG A   1      -0.084   0.051  -4.029  0.00  0.00    +0.222 C 
ATOM     17  O   LIG A   1      -0.601  -0.269  -5.099  0.00  0.00    -0.286 OA
ENDROOT
BRANCH   9  18
ATOM     18  C   LIG A   1       2.900  -1.933   1.077  0.00  0.00    +0.042 C 
ATOM     19  C   LIG A   1       2.242  -2.812   1.851  0.00  0.00    -0.020 C 
BRANCH  19  20
ATOM     20  C   LIG A   1       2.876  -3.695   2.900  0.00  0.00    +0.008 C 
ATOM     21  C   LIG A   1       3.903  -4.639   2.266  0.00  0.00    +0.012 C 
BRANCH  20  22
ATOM     22  C   LIG A   1       3.519  -2.904   4.054  0.00  0.00    +0.004 C 
ATOM     23  C   LIG A   1       2.537  -2.024   4.817  0.00  0.00    +0.004 C 
ENDBRANCH  20  22
ENDBRANCH  19  20
ENDBRANCH   9  18
BRANCH  14  24
ATOM     24  C   LIG A   1      -1.898   2.323  -0.428  0.00  0.00    +0.176 C 
ATOM     25  O   LIG A   1      -1.224   2.091   0.581  0.00  0.00    -0.291 OA
BRANCH  24  26
ATOM     26  C   LIG A   1      -3.394   2.638  -0.311  0.00  0.00    +0.085 C 
ATOM     27  C   LIG A   1      -3.588   3.875   0.568  0.00  0.00    +0.018 C 
BRANCH  26  28
ATOM     28  C   LIG A   1      -4.167   1.405   0.195  0.00  0.00    +0.122 C 
ATOM     29  C   LIG A   1      -5.683   1.619   0.224  0.00  0.00    +0.038 C 
BRANCH  28  30
ATOM     30  O   LIG A   1      -3.904   0.319  -0.702  0.00  0.00    -0.391 OA
ATOM     31  H   LIG A   1      -4.383  -0.459  -0.361  0.00  0.00    +0.210 HD
ENDBRANCH  28  30
ENDBRANCH  26  28
ENDBRANCH  24  26
ENDBRANCH  14  24
TORSDOF 7
