REMARK  Name = NuBBE_1840
REMARK  10 active torsions:
REMARK  status: ('A' for Active; 'I' for Inactive)
REMARK    1  A    between atoms: O_1  and  C_2
REMARK    2  A    between atoms: C_7  and  C_9
REMARK    3  A    between atoms: C_11  and  O_12
REMARK    4  A    between atoms: O_12  and  C_13
REMARK    5  A    between atoms: C_14  and  O_15
REMARK    6  A    between atoms: O_15  and  C_16
REMARK    7  A    between atoms: C_17  and  O_18
REMARK    8  A    between atoms: O_18  and  C_19
REMARK    9  A    between atoms: C_23  and  C_24
REMARK   10  A    between atoms: C_24  and  C_25
REMARK                            x       y       z     vdW  Elec       q    Type
REMARK                         _______ _______ _______ _____ _____    ______ ____
ROOT
ATOM      1  C   LIG A   1      -2.554   2.313   1.949  0.00  0.00    +0.124 A 
ATOM      2  C   LIG A   1      -1.487   2.839   1.217  0.00  0.00    +0.091 A 
ATOM      3  C   LIG A   1      -0.250   2.260   1.400  0.00  0.00    +0.128 A 
ATOM      4  C   LIG A   1      -0.042   1.230   2.301  0.00  0.00    -0.001 A 
ATOM      5  C   LIG A   1       1.401   0.893   2.312  0.00  0.00    +0.088 C 
ATOM      6  C   LIG A   1       1.775   1.459   0.929  0.00  0.00    +0.208 C 
ATOM      7  O   LIG A   1       0.884   2.599   0.700  0.00  0.00    -0.483 OA
ATOM      8  C   LIG A   1      -1.088   0.710   3.035  0.00  0.00    +0.014 A 
ATOM      9  C   LIG A   1      -2.383   1.230   2.837  0.00  0.00    -0.002 A 
ENDROOT
BRANCH   6  10
ATOM     10  C   LIG A   1       1.704   0.455  -0.226  0.00  0.00    +0.000 A 
ATOM     11  C   LIG A   1       0.875   0.690  -1.338  0.00  0.00    +0.057 A 
ATOM     12  C   LIG A   1       0.857  -0.171  -2.438  0.00  0.00    +0.166 A 
ATOM     13  C   LIG A   1       1.698  -1.303  -2.434  0.00  0.00    +0.203 A 
ATOM     14  C   LIG A   1       2.465  -1.612  -1.295  0.00  0.00    +0.166 A 
ATOM     15  C   LIG A   1       2.492  -0.709  -0.218  0.00  0.00    +0.057 A 
BRANCH  12  16
ATOM     16  O   LIG A   1       0.004   0.017  -3.503  0.00  0.00    -0.491 OA
ATOM     17  C   LIG A   1      -0.419   1.357  -3.765  0.00  0.00    +0.277 C 
ENDBRANCH  12  16
BRANCH  13  18
ATOM     18  O   LIG A   1       1.777  -2.166  -3.495  0.00  0.00    -0.488 OA
ATOM     19  C   LIG A   1       2.064  -1.569  -4.751  0.00  0.00    +0.277 C 
ENDBRANCH  13  18
BRANCH  14  20
ATOM     20  O   LIG A   1       3.264  -2.721  -1.127  0.00  0.00    -0.491 OA
ATOM     21  C   LIG A   1       2.914  -3.893  -1.867  0.00  0.00    +0.277 C 
ENDBRANCH  14  20
ENDBRANCH   6  10
BRANCH   1  22
ATOM     22  O   LIG A   1      -3.801   2.858   1.802  0.00  0.00    -0.506 OA
ATOM     23  H   LIG A   1      -3.753   3.573   1.146  0.00  0.00    +0.292 HD
ENDBRANCH   1  22
BRANCH   9  24
ATOM     24  C   LIG A   1      -3.545   0.619   3.593  0.00  0.00    +0.065 C 
BRANCH  24  25
ATOM     25  C   LIG A   1      -3.761  -0.832   3.260  0.00  0.00    -0.030 C 
ATOM     26  C   LIG A   1      -3.249  -1.865   3.983  0.00  0.00    +0.004 C 
ENDBRANCH  24  25
ENDBRANCH   9  24
TORSDOF 7
