REMARK  Name = NuBBE_1545
REMARK  4 active torsions:
REMARK  status: ('A' for Active; 'I' for Inactive)
REMARK    1  A    between atoms: C_1  and  C_2
REMARK    2  A    between atoms: C_6  and  C_10
REMARK    3  A    between atoms: C_10  and  C_12
REMARK    4  A    between atoms: C_13  and  C_17
REMARK                            x       y       z     vdW  Elec       q    Type
REMARK                         _______ _______ _______ _____ _____    ______ ____
ROOT
ATOM      1  C   LIG A   1       1.868  -0.709   1.569  0.00  0.00    +0.012 C 
ATOM      2  C   LIG A   1       0.961   0.400   0.973  0.00  0.00    -0.025 C 
ATOM      3  C   LIG A   1      -0.411  -0.140   0.456  0.00  0.00    +0.021 C 
ATOM      4  C   LIG A   1      -0.192  -1.148  -0.691  0.00  0.00    +0.016 C 
ATOM      5  C   LIG A   1       0.548  -0.515  -1.895  0.00  0.00    +0.015 C 
ATOM      6  C   LIG A   1       1.857   0.160  -1.428  0.00  0.00    +0.008 C 
ATOM      7  C   LIG A   1       1.702   1.073  -0.205  0.00  0.00    +0.008 C 
ATOM      8  C   LIG A   1      -1.311  -0.615   1.595  0.00  0.00    -0.073 C 
ATOM      9  C   LIG A   1      -1.158  -0.135   2.845  0.00  0.00    -0.027 C 
ATOM     10  C   LIG A   1      -0.117   0.869   3.249  0.00  0.00    +0.028 C 
ATOM     11  C   LIG A   1       0.672   1.452   2.072  0.00  0.00    +0.011 C 
ATOM     12  C   LIG A   1      -2.431  -1.565   1.276  0.00  0.00    +0.039 C 
ENDROOT
BRANCH   5  13
ATOM     13  C   LIG A   1      -0.382   0.341  -2.768  0.00  0.00    -0.077 C 
ATOM     14  C   LIG A   1      -0.218   1.649  -3.037  0.00  0.00    +0.007 C 
ATOM     15  C   LIG A   1      -1.526  -0.396  -3.425  0.00  0.00    +0.038 C 
ENDBRANCH   5  13
TORSDOF 1
