REMARK  Name = NuBBE_314
REMARK  16 active torsions:
REMARK  status: ('A' for Active; 'I' for Inactive)
REMARK    1  A    between atoms: C_1  and  C_2
REMARK    2  A    between atoms: C_2  and  C_56
REMARK    3  A    between atoms: C_3  and  O_40
REMARK    4  A    between atoms: C_7  and  C_39
REMARK    5  A    between atoms: C_12  and  C_38
REMARK    6  A    between atoms: C_18  and  C_35
REMARK    7  A    between atoms: C_21  and  C_32
REMARK    8  A    between atoms: C_24  and  C_31
REMARK    9  A    between atoms: C_26  and  C_30
REMARK   10  A    between atoms: C_32  and  O_33
REMARK   11  A    between atoms: C_35  and  O_36
REMARK   12  A    between atoms: O_40  and  C_41
REMARK   13  A    between atoms: C_44  and  C_55
REMARK   14  A    between atoms: C_46  and  O_54
REMARK   15  A    between atoms: C_48  and  O_53
REMARK   16  A    between atoms: C_50  and  O_52
REMARK                            x       y       z     vdW  Elec       q    Type
REMARK                         _______ _______ _______ _____ _____    ______ ____
ROOT
ATOM      1  C   LIG A   1      -3.726  -1.939   1.164  0.00  0.00    +0.014 C 
ATOM      2  C   LIG A   1      -2.852  -2.643   0.089  0.00  0.00    -0.005 C 
ATOM      3  C   LIG A   1      -3.201  -2.038  -1.314  0.00  0.00    +0.127 C 
ATOM      4  C   LIG A   1      -2.355  -2.732  -2.393  0.00  0.00    +0.033 C 
ATOM      5  C   LIG A   1      -0.842  -2.554  -2.182  0.00  0.00    +0.010 C 
ATOM      6  C   LIG A   1      -0.305  -2.864  -0.728  0.00  0.00    -0.025 C 
ATOM      7  C   LIG A   1      -1.323  -2.348   0.349  0.00  0.00    +0.003 C 
ATOM      8  C   LIG A   1      -0.832  -2.683   1.759  0.00  0.00    +0.005 C 
ATOM      9  C   LIG A   1       0.472  -1.943   2.059  0.00  0.00    +0.009 C 
ATOM     10  C   LIG A   1       1.671  -2.187   1.092  0.00  0.00    -0.009 C 
ATOM     11  C   LIG A   1       1.144  -2.161  -0.423  0.00  0.00    +0.006 C 
ATOM     12  C   LIG A   1       1.210  -0.743  -1.051  0.00  0.00    +0.031 C 
ATOM     13  C   LIG A   1       1.872   0.380  -0.333  0.00  0.00    -0.026 C 
ATOM     14  C   LIG A   1       2.626   0.310   0.772  0.00  0.00    -0.052 C 
ATOM     15  C   LIG A   1       2.879  -1.073   1.410  0.00  0.00    +0.094 C 
ATOM     16  C   LIG A   1       3.045  -0.879   2.966  0.00  0.00    +0.024 C 
ATOM     17  C   LIG A   1       3.925   0.293   3.429  0.00  0.00    +0.020 C 
ATOM     18  C   LIG A   1       3.464   1.660   2.882  0.00  0.00    +0.074 C 
ATOM     19  C   LIG A   1       3.378   1.561   1.328  0.00  0.00    +0.036 C 
ATOM     20  C   LIG A   1       3.117   2.974   0.662  0.00  0.00    -0.003 C 
ATOM     21  C   LIG A   1       4.216   3.987   1.105  0.00  0.00    -0.011 C 
ATOM     22  C   LIG A   1       4.315   4.093   2.630  0.00  0.00    +0.004 C 
ATOM     23  C   LIG A   1       4.542   2.721   3.267  0.00  0.00    +0.019 C 
ATOM     24  C   LIG A   1       4.055   5.380   0.487  0.00  0.00    +0.008 C 
ATOM     25  C   LIG A   1       1.706   3.556   0.857  0.00  0.00    +0.008 C 
ATOM     26  C   LIG A   1       2.222  -3.609   1.420  0.00  0.00    +0.013 C 
ATOM     27  C   LIG A   1      -0.125  -4.411  -0.713  0.00  0.00    +0.012 C 
ATOM     28  C   LIG A   1      -3.250  -4.133   0.170  0.00  0.00    +0.014 C 
ENDROOT
BRANCH  18  29
ATOM     29  C   LIG A   1       2.123   2.014   3.550  0.00  0.00    +0.311 C 
ATOM     30  O   LIG A   1       1.018   1.692   3.186  0.00  0.00    -0.250 OA
BRANCH  29  31
ATOM     31  O   LIG A   1       2.258   2.717   4.700  0.00  0.00    -0.480 OA
ATOM     32  H   LIG A   1       1.338   2.863   5.005  0.00  0.00    +0.295 HD
ENDBRANCH  29  31
ENDBRANCH  18  29
BRANCH  15  33
ATOM     33  C   LIG A   1       4.252  -1.609   0.871  0.00  0.00    +0.316 C 
ATOM     34  O   LIG A   1       5.218  -1.871   1.577  0.00  0.00    -0.250 OA
BRANCH  33  35
ATOM     35  O   LIG A   1       4.341  -1.782  -0.467  0.00  0.00    -0.480 OA
ATOM     36  H   LIG A   1       3.559  -1.482  -0.959  0.00  0.00    +0.295 HD
ENDBRANCH  33  35
ENDBRANCH  15  33
BRANCH   3  37
ATOM     37  O   LIG A   1      -2.954  -0.619  -1.251  0.00  0.00    -0.345 OA
BRANCH  37  38
ATOM     38  C   LIG A   1      -3.228   0.138  -2.433  0.00  0.00    +0.282 C 
ATOM     39  O   LIG A   1      -4.600   0.029  -2.805  0.00  0.00    -0.343 OA
ATOM     40  C   LIG A   1      -4.900   0.868  -3.917  0.00  0.00    +0.149 C 
ATOM     41  C   LIG A   1      -4.828   2.362  -3.535  0.00  0.00    +0.174 C 
ATOM     42  C   LIG A   1      -3.939   2.623  -2.304  0.00  0.00    +0.179 C 
ATOM     43  C   LIG A   1      -2.778   1.616  -2.219  0.00  0.00    +0.201 C 
ATOM     44  C   LIG A   1      -6.285   0.485  -4.428  0.00  0.00    +0.040 C 
BRANCH  43  45
ATOM     45  O   LIG A   1      -1.791   1.970  -3.221  0.00  0.00    -0.384 OA
ATOM     46  H   LIG A   1      -2.263   2.195  -4.046  0.00  0.00    +0.210 HD
ENDBRANCH  43  45
BRANCH  42  47
ATOM     47  O   LIG A   1      -4.718   2.618  -1.109  0.00  0.00    -0.386 OA
ATOM     48  H   LIG A   1      -5.327   3.376  -1.141  0.00  0.00    +0.210 HD
ENDBRANCH  42  47
BRANCH  41  49
ATOM     49  O   LIG A   1      -4.280   3.065  -4.664  0.00  0.00    -0.387 OA
ATOM     50  H   LIG A   1      -4.434   4.018  -4.521  0.00  0.00    +0.210 HD
ENDBRANCH  41  49
ENDBRANCH  37  38
ENDBRANCH   3  37
TORSDOF 9
