@<TRIPOS>MOLECULE
NuBBE_2385
 49 51 0 0 0
SMALL
GASTEIGER

@<TRIPOS>ATOM
      1 C           1.9366   -2.9098   -0.0486 C.3     1  LIG1       -0.0315
      2 C           1.4093   -1.4523   -0.2884 C.3     1  LIG1       -0.0286
      3 C          -0.1300   -1.3486   -0.0759 C.3     1  LIG1       -0.0087
      4 C          -0.6659    0.0679   -0.2288 C.ar    1  LIG1        0.0042
      5 C          -2.0192    0.3305   -0.4948 C.ar    1  LIG1        0.1623
      6 C          -2.5044    1.6428   -0.5927 C.ar    1  LIG1        0.1620
      7 O          -3.8415    1.8177   -0.8424 O.3     1  LIG1       -0.5031
      8 C          -1.6690    2.7463   -0.4406 C.ar    1  LIG1        0.0005
      9 C          -0.3167    2.4886   -0.1724 C.ar    1  LIG1       -0.0512
     10 C           0.1895    1.1748   -0.0633 C.ar    1  LIG1       -0.0399
     11 C           1.6726    1.0185    0.1571 C.3     1  LIG1       -0.0270
     12 C           2.1078   -0.3833    0.5720 C.3     1  LIG1       -0.0452
     13 C          -2.2023    4.1647   -0.5366 C.3     1  LIG1       -0.0179
     14 C          -2.2504    4.8195    0.8460 C.3     1  LIG1       -0.0585
     15 C          -1.4019    5.0274   -1.5181 C.3     1  LIG1       -0.0585
     16 O          -2.9662   -0.6488   -0.6788 O.3     1  LIG1       -0.5031
     17 C          -0.5574   -1.9202    1.2921 C.3     1  LIG1       -0.0458
     18 C          -0.0482   -3.3378    1.5201 C.3     1  LIG1       -0.0520
     19 C           1.4596   -3.4459    1.3200 C.3     1  LIG1       -0.0476
     20 C           1.4355   -3.8395   -1.1810 C.3     1  LIG1       -0.0595
     21 C           3.4791   -2.9737   -0.0860 C.3     1  LIG1       -0.0595
     22 H           1.6209   -1.1967   -1.3381 H       1  LIG1        0.0312
     23 H          -0.5901   -1.9511   -0.8681 H       1  LIG1        0.0353
     24 H          -4.1934    0.9070   -0.9019 H       1  LIG1        0.2923
     25 H           0.3700    3.3239   -0.0424 H       1  LIG1        0.0624
     26 H           2.0115    1.7285    0.9214 H       1  LIG1        0.0313
     27 H           2.1779    1.2830   -0.7810 H       1  LIG1        0.0313
     28 H           1.8930   -0.5362    1.6355 H       1  LIG1        0.0271
     29 H           3.1961   -0.4306    0.4643 H       1  LIG1        0.0271
     30 H          -3.2293    4.1407   -0.9212 H       1  LIG1        0.0345
     31 H          -1.2509    4.9217    1.2831 H       1  LIG1        0.0235
     32 H          -2.8579    4.2267    1.5390 H       1  LIG1        0.0235
     33 H          -2.6929    5.8196    0.7847 H       1  LIG1        0.0235
     34 H          -0.3788    5.2079   -1.1719 H       1  LIG1        0.0235
     35 H          -1.8809    6.0044   -1.6464 H       1  LIG1        0.0235
     36 H          -1.3448    4.5503   -2.5027 H       1  LIG1        0.0235
     37 H          -2.5399   -1.5182   -0.6358 H       1  LIG1        0.2923
     38 H          -1.6502   -1.9277    1.3835 H       1  LIG1        0.0271
     39 H          -0.2004   -1.2746    2.1047 H       1  LIG1        0.0271
     40 H          -0.5694   -4.0282    0.8474 H       1  LIG1        0.0266
     41 H          -0.3012   -3.6538    2.5391 H       1  LIG1        0.0266
     42 H           1.7594   -4.4949    1.4401 H       1  LIG1        0.0271
     43 H           1.9579   -2.8946    2.1280 H       1  LIG1        0.0271
     44 H           0.3453   -3.8958   -1.2363 H       1  LIG1        0.0235
     45 H           1.8018   -4.8631   -1.0397 H       1  LIG1        0.0235
     46 H           1.7950   -3.4933   -2.1570 H       1  LIG1        0.0235
     47 H           3.9324   -2.4711    0.7745 H       1  LIG1        0.0235
     48 H           3.8708   -2.5110   -0.9987 H       1  LIG1        0.0235
     49 H           3.8313   -4.0118   -0.0627 H       1  LIG1        0.0235
@<TRIPOS>BOND
     1     1     2    1
     2     2     3    1
     3     3     4    1
     4     4     5   ar
     5     5     6   ar
     6     6     7    1
     7     6     8   ar
     8     8     9   ar
     9     9    10   ar
    10     4    10   ar
    11    10    11    1
    12    11    12    1
    13     2    12    1
    14     8    13    1
    15    13    14    1
    16    13    15    1
    17     5    16    1
    18     3    17    1
    19    17    18    1
    20    18    19    1
    21     1    19    1
    22     1    20    1
    23     1    21    1
    24     2    22    1
    25     3    23    1
    26     7    24    1
    27     9    25    1
    28    11    26    1
    29    11    27    1
    30    12    28    1
    31    12    29    1
    32    13    30    1
    33    14    31    1
    34    14    32    1
    35    14    33    1
    36    15    34    1
    37    15    35    1
    38    15    36    1
    39    16    37    1
    40    17    38    1
    41    17    39    1
    42    18    40    1
    43    18    41    1
    44    19    42    1
    45    19    43    1
    46    20    44    1
    47    20    45    1
    48    20    46    1
    49    21    47    1
    50    21    48    1
    51    21    49    1
