@<TRIPOS>MOLECULE
NuBBE_2391
 54 55 0 0 0
SMALL
GASTEIGER

@<TRIPOS>ATOM
      1 C          -0.0002    0.5077    1.8191 C.3     1  LIG1       -0.0587
      2 C           0.4724    0.7371    0.3629 C.3     1  LIG1       -0.0220
      3 C           2.0067    1.1000    0.2836 C.3     1  LIG1       -0.0265
      4 H           2.2068    1.1912   -0.7985 H       1  LIG1        0.0314
      5 C           2.4445    2.4954    0.8866 C.3     1  LIG1       -0.0313
      6 C           3.9108    2.8017    0.4794 C.3     1  LIG1       -0.0595
      7 C           2.4023    2.5971    2.4318 C.3     1  LIG1       -0.0595
      8 C           1.5540    3.6012    0.2757 C.3     1  LIG1       -0.0476
      9 C           0.0603    3.3006    0.3637 C.3     1  LIG1       -0.0520
     10 C          -0.3093    1.9415   -0.2389 C.3     1  LIG1       -0.0468
     11 C           2.9090   -0.0473    0.7581 C.3     1  LIG1       -0.0307
     12 C           2.4359   -1.3976    0.3523 C.2     1  LIG1       -0.0844
     13 C           1.2488   -1.6870   -0.2104 C.2     1  LIG1       -0.0729
     14 C           0.1789   -0.6139   -0.5015 C.3     1  LIG1       -0.0142
     15 H           0.3171   -0.3489   -1.5608 H       1  LIG1        0.0351
     16 C          -1.3320   -1.0742   -0.3591 C.3     1  LIG1       -0.0423
     17 C          -1.8752   -2.2063   -1.2644 C.3     1  LIG1       -0.0309
     18 C          -3.3322   -2.5809   -0.9968 C.2     1  LIG1       -0.0659
     19 C          -4.4140   -2.1948   -1.7038 C.2     1  LIG1        0.0213
     20 C          -4.4515   -1.3012   -2.8744 C.2     1  LIG1        0.3295
     21 O          -3.5835   -0.4976   -3.1782 O.2     1  LIG1       -0.2458
     22 O          -5.5815   -1.4693   -3.5869 O.3     1  LIG1       -0.4775
     23 C          -3.5382   -3.5845    0.1173 C.3     1  LIG1       -0.0433
     24 C           1.0448   -3.1140   -0.6292 C.3     1  LIG1       -0.0435
     25 H           0.1756    1.3622    2.4673 H       1  LIG1        0.0235
     26 H           0.4858   -0.3577    2.2786 H       1  LIG1        0.0235
     27 H          -1.0820    0.3483    1.8663 H       1  LIG1        0.0235
     28 H           4.0562    2.7032   -0.6015 H       1  LIG1        0.0235
     29 H           4.6178    2.1314    0.9807 H       1  LIG1        0.0235
     30 H           4.1923    3.8253    0.7560 H       1  LIG1        0.0235
     31 H           1.4334    2.9323    2.8089 H       1  LIG1        0.0235
     32 H           3.1236    3.3375    2.8000 H       1  LIG1        0.0235
     33 H           2.6473    1.6558    2.9283 H       1  LIG1        0.0235
     34 H           1.8155    3.7393   -0.7818 H       1  LIG1        0.0271
     35 H           1.7568    4.5630    0.7660 H       1  LIG1        0.0271
     36 H          -0.4858    4.0871   -0.1716 H       1  LIG1        0.0266
     37 H          -0.2791    3.3576    1.4032 H       1  LIG1        0.0266
     38 H          -0.1251    1.9872   -1.3204 H       1  LIG1        0.0271
     39 H          -1.3888    1.8065   -0.1138 H       1  LIG1        0.0271
     40 H           3.0354   -0.0542    1.8429 H       1  LIG1        0.0310
     41 H           3.9092    0.0850    0.3260 H       1  LIG1        0.0310
     42 H           3.1605   -2.1922    0.5258 H       1  LIG1        0.0572
     43 H          -1.5203   -1.3603    0.6803 H       1  LIG1        0.0274
     44 H          -1.9641   -0.2036   -0.5692 H       1  LIG1        0.0274
     45 H          -1.3286   -3.1308   -1.0883 H       1  LIG1        0.0310
     46 H          -1.7067   -1.9681   -2.3186 H       1  LIG1        0.0310
     47 H          -5.3864   -2.5658   -1.3946 H       1  LIG1        0.0688
     48 H          -6.1516   -2.2118   -3.2957 H       1  LIG1        0.2954
     49 H          -3.2496   -3.1634    1.0835 H       1  LIG1        0.0274
     50 H          -2.9452   -4.4864   -0.0711 H       1  LIG1        0.0274
     51 H          -4.5831   -3.9094    0.1935 H       1  LIG1        0.0274
     52 H           1.9697   -3.7010   -0.5853 H       1  LIG1        0.0274
     53 H           0.7062   -3.1677   -1.6674 H       1  LIG1        0.0274
     54 H           0.3365   -3.6055    0.0443 H       1  LIG1        0.0274
@<TRIPOS>BOND
     1     2     3    1
     2     3     5    1
     3     5     8    1
     4     8     9    1
     5     9    10    1
     6     2    10    1
     7     3    11    1
     8    11    12    1
     9    12    13    2
    10    13    14    1
    11     2    14    1
    12    16    17    1
    13    17    18    1
    14    18    19    2
    15    19    20    1
    16    20    21    2
    17    20    22    1
    18    18    23    1
    19     1     2    1
    20     3     4    1
    21     5     6    1
    22     5     7    1
    23    13    24    1
    24    14    15    1
    25    14    16    1
    26     1    25    1
    27     1    26    1
    28     1    27    1
    29     6    28    1
    30     6    29    1
    31     6    30    1
    32     7    31    1
    33     7    32    1
    34     7    33    1
    35     8    34    1
    36     8    35    1
    37     9    36    1
    38     9    37    1
    39    10    38    1
    40    10    39    1
    41    11    40    1
    42    11    41    1
    43    12    42    1
    44    16    43    1
    45    16    44    1
    46    17    45    1
    47    17    46    1
    48    19    47    1
    49    22    48    1
    50    23    49    1
    51    23    50    1
    52    23    51    1
    53    24    52    1
    54    24    53    1
    55    24    54    1
