@<TRIPOS>MOLECULE
NuBBE_2330
 64 66 0 0 0
SMALL
GASTEIGER

@<TRIPOS>ATOM
      1 O           4.3585   -1.3815    4.1970 O.3     1  LIG1       -0.5033
      2 C           3.7356   -1.1551    2.9972 C.ar    1  LIG1        0.1590
      3 C           3.9643    0.0389    2.2959 C.ar    1  LIG1        0.1647
      4 O           4.7310    1.0715    2.7679 O.3     1  LIG1       -0.4912
      5 C           4.6227    1.3303    4.1682 C.3     1  LIG1        0.0790
      6 C           3.4344    0.1693    1.0025 C.ar    1  LIG1        0.0019
      7 C           3.7633    1.3216    0.0805 C.3     1  LIG1       -0.0057
      8 C           2.7700    2.4523    0.1345 C.2     1  LIG1       -0.0809
      9 C           2.8979    3.6094    0.8012 C.2     1  LIG1       -0.0793
     10 C           4.0654    3.9608    1.6800 C.3     1  LIG1       -0.0440
     11 C           1.8359    4.6713    0.7368 C.3     1  LIG1       -0.0440
     12 C           2.5643   -0.8217    0.5093 C.ar    1  LIG1       -0.0514
     13 C           2.2845   -1.9866    1.2258 C.ar    1  LIG1       -0.0430
     14 C           1.3084   -3.0319    0.7259 C.3     1  LIG1       -0.0205
     15 C           1.2651   -3.3201   -0.7770 C.3     1  LIG1        0.0147
     16 C           0.6126   -2.2798   -1.6916 C.2     1  LIG1        0.1705
     17 C          -0.8690   -2.0380   -1.6901 C.ar    1  LIG1        0.1005
     18 C          -1.3892   -0.7312   -1.9141 C.ar    1  LIG1        0.1375
     19 O          -0.5162    0.3253   -1.9636 O.3     1  LIG1       -0.5055
     20 C          -2.7728   -0.5000   -2.0482 C.ar    1  LIG1        0.0367
     21 C          -3.3453    0.8435   -2.4428 C.3     1  LIG1       -0.0171
     22 C          -4.8311    0.7523   -2.7819 C.3     1  LIG1       -0.0092
     23 C          -5.5588   -0.1278   -1.7581 C.3     1  LIG1        0.1054
     24 C          -5.4978    0.4512   -0.3347 C.3     1  LIG1       -0.0252
     25 C          -7.0371   -0.2785   -2.1431 C.3     1  LIG1       -0.0252
     26 O          -5.0130   -1.4576   -1.7826 O.3     1  LIG1       -0.4857
     27 C          -3.6490   -1.5652   -1.8219 C.ar    1  LIG1        0.1314
     28 C          -3.1558   -2.8530   -1.6281 C.ar    1  LIG1        0.0228
     29 C          -1.7819   -3.0912   -1.5886 C.ar    1  LIG1        0.1343
     30 O          -1.3625   -4.3858   -1.4731 O.3     1  LIG1       -0.5058
     31 O           1.3172   -1.6591   -2.4926 O.2     1  LIG1       -0.2918
     32 C           2.9010   -2.1474    2.4762 C.ar    1  LIG1       -0.0133
     33 H           4.3639   -2.3366    4.3644 H       1  LIG1        0.2923
     34 H           4.7582    2.4046    4.3284 H       1  LIG1        0.0660
     35 H           5.4291    0.8191    4.7025 H       1  LIG1        0.0660
     36 H           3.6428    1.0678    4.5846 H       1  LIG1        0.0660
     37 H           3.7729    0.9474   -0.9543 H       1  LIG1        0.0357
     38 H           4.7938    1.6575    0.2346 H       1  LIG1        0.0357
     39 H           1.8832    2.2907   -0.4816 H       1  LIG1        0.0575
     40 H           4.8853    3.2473    1.6224 H       1  LIG1        0.0274
     41 H           3.7368    4.0150    2.7233 H       1  LIG1        0.0274
     42 H           4.4823    4.9339    1.3963 H       1  LIG1        0.0274
     43 H           0.9678    4.3581    0.1472 H       1  LIG1        0.0274
     44 H           2.2407    5.5816    0.2813 H       1  LIG1        0.0274
     45 H           1.4842    4.9136    1.7450 H       1  LIG1        0.0274
     46 H           2.1217   -0.6519   -0.4654 H       1  LIG1        0.0624
     47 H           0.3121   -2.7838    1.1056 H       1  LIG1        0.0317
     48 H           1.5972   -3.9821    1.2004 H       1  LIG1        0.0317
     49 H           0.7827   -4.2871   -0.9300 H       1  LIG1        0.0348
     50 H           2.2872   -3.4780   -1.1466 H       1  LIG1        0.0348
     51 H          -0.9915    1.1633   -1.8482 H       1  LIG1        0.2922
     52 H          -2.8131    1.2358   -3.3190 H       1  LIG1        0.0317
     53 H          -3.1973    1.5558   -1.6198 H       1  LIG1        0.0317
     54 H          -4.9362    0.3068   -3.7797 H       1  LIG1        0.0307
     55 H          -5.2712    1.7577   -2.8307 H       1  LIG1        0.0307
     56 H          -5.9474    1.4485   -0.2965 H       1  LIG1        0.0268
     57 H          -4.4742    0.5260    0.0435 H       1  LIG1        0.0268
     58 H          -6.0297   -0.1978    0.3714 H       1  LIG1        0.0268
     59 H          -7.5506    0.6878   -2.1734 H       1  LIG1        0.0268
     60 H          -7.5588   -0.9211   -1.4226 H       1  LIG1        0.0268
     61 H          -7.1454   -0.7652   -3.1194 H       1  LIG1        0.0268
     62 H          -3.8685   -3.6684   -1.5259 H       1  LIG1        0.0691
     63 H          -2.1310   -4.9807   -1.4561 H       1  LIG1        0.2922
     64 H           2.7204   -3.0519    3.0511 H       1  LIG1        0.0658
@<TRIPOS>BOND
     1     1     2    1
     2     2     3   ar
     3     3     4    1
     4     4     5    1
     5     3     6   ar
     6     6     7    1
     7     7     8    1
     8     8     9    2
     9     9    10    1
    10     9    11    1
    11     6    12   ar
    12    12    13   ar
    13    13    14    1
    14    14    15    1
    15    15    16    1
    16    16    17    1
    17    17    18   ar
    18    18    19    1
    19    18    20   ar
    20    20    21    1
    21    21    22    1
    22    22    23    1
    23    23    24    1
    24    23    25    1
    25    23    26    1
    26    20    27   ar
    27    26    27    1
    28    27    28   ar
    29    28    29   ar
    30    17    29   ar
    31    29    30    1
    32    16    31    2
    33    13    32   ar
    34     2    32   ar
    35     1    33    1
    36     5    34    1
    37     5    35    1
    38     5    36    1
    39     7    37    1
    40     7    38    1
    41     8    39    1
    42    10    40    1
    43    10    41    1
    44    10    42    1
    45    11    43    1
    46    11    44    1
    47    11    45    1
    48    12    46    1
    49    14    47    1
    50    14    48    1
    51    15    49    1
    52    15    50    1
    53    19    51    1
    54    21    52    1
    55    21    53    1
    56    22    54    1
    57    22    55    1
    58    24    56    1
    59    24    57    1
    60    24    58    1
    61    25    59    1
    62    25    60    1
    63    25    61    1
    64    28    62    1
    65    30    63    1
    66    32    64    1
