REMARK  Name = NuBBE_2176
REMARK  7 active torsions:
REMARK  status: ('A' for Active; 'I' for Inactive)
REMARK    1  A    between atoms: O_1  and  C_2
REMARK    2  A    between atoms: O_1  and  C_3
REMARK    3  A    between atoms: C_4  and  O_5
REMARK    4  A    between atoms: O_5  and  C_6
REMARK    5  A    between atoms: C_8  and  O_14
REMARK    6  A    between atoms: C_9  and  C_11
REMARK    7  A    between atoms: C_11  and  C_12
REMARK                            x       y       z     vdW  Elec       q    Type
REMARK                         _______ _______ _______ _____ _____    ______ ____
ROOT
ATOM      1  C   LIG A   1      -0.865   0.793  -0.188  0.00  0.00    +0.162 A 
ATOM      2  C   LIG A   1      -0.101   1.968  -0.288  0.00  0.00    +0.165 A 
ATOM      3  C   LIG A   1       1.264   1.881  -0.607  0.00  0.00    +0.095 A 
ATOM      4  C   LIG A   1       1.876   0.632  -0.750  0.00  0.00    +0.124 A 
ATOM      5  C   LIG A   1       1.146  -0.546  -0.577  0.00  0.00    +0.001 A 
ATOM      6  C   LIG A   1      -0.231  -0.445  -0.321  0.00  0.00    +0.057 A 
ENDROOT
BRANCH   1   7
ATOM      7  O   LIG A   1      -2.211   0.924  -0.002  0.00  0.00    -0.491 OA
ATOM      8  C   LIG A   1      -2.990  -0.244   0.184  0.00  0.00    +0.277 C 
ENDBRANCH   1   7
BRANCH   2   9
ATOM      9  O   LIG A   1      -0.578   3.250  -0.134  0.00  0.00    -0.491 OA
ATOM     10  C   LIG A   1      -1.647   3.404   0.801  0.00  0.00    +0.277 C 
ENDBRANCH   2   9
BRANCH   4  11
ATOM     11  O   LIG A   1       3.205   0.544  -1.055  0.00  0.00    -0.506 OA
ATOM     12  H   LIG A   1       3.558   1.437  -1.201  0.00  0.00    +0.292 HD
ENDBRANCH   4  11
BRANCH   5  13
ATOM     13  C   LIG A   1       1.764  -1.924  -0.672  0.00  0.00    +0.065 C 
BRANCH  13  14
ATOM     14  C   LIG A   1       1.609  -2.703   0.608  0.00  0.00    -0.030 C 
ATOM     15  C   LIG A   1       0.991  -3.898   0.705  0.00  0.00    +0.004 C 
ENDBRANCH  13  14
ENDBRANCH   5  13
TORSDOF 5
