@<TRIPOS>MOLECULE
NuBBE_162
 53 56 0 0 0
SMALL
GASTEIGER

@<TRIPOS>ATOM
      1 O           2.2131   -3.8194    4.7175 O.3     1  LIG1       -0.5065
      2 C           1.8693   -3.1668    3.5740 C.ar    1  LIG1        0.1239
      3 C           2.0967   -3.7418    2.3238 C.ar    1  LIG1        0.0223
      4 C           1.6916   -3.0489    1.2086 C.ar    1  LIG1        0.1348
      5 O           1.9512   -3.5835   -0.0366 O.3     1  LIG1       -0.5058
      6 C           1.0332   -1.8096    1.3191 C.ar    1  LIG1        0.1092
      7 C           0.3553   -1.1754    0.2367 C.ar    1  LIG1        0.2382
      8 C          -0.0201    0.2975    0.3405 C.ar    1  LIG1        0.2138
      9 O          -0.2904    1.0479   -0.8279 O.3     1  LIG1       -0.4532
     10 C          -0.1281    0.2960   -2.0767 C.3     1  LIG1        0.2311
     11 H           0.6592   -0.4290   -1.9182 H       1  LIG1        0.1084
     12 C          -1.4889   -0.2794   -2.5825 C.3     1  LIG1        0.1454
     13 H          -2.1750    0.5590   -2.7379 H       1  LIG1        0.0683
     14 C          -1.3053   -0.9823   -3.9518 C.3     1  LIG1        0.1151
     15 H          -1.6715   -0.3147   -4.7409 H       1  LIG1        0.0648
     16 C           0.1830   -1.2561   -4.2480 C.3     1  LIG1        0.1096
     17 H           0.5798   -1.9608   -3.5061 H       1  LIG1        0.0646
     18 C           0.9526    0.1036   -4.2004 C.3     1  LIG1        0.0883
     19 H           0.8175    0.6118   -5.1628 H       1  LIG1        0.0621
     20 O           0.4512    1.0289   -3.1862 O.3     1  LIG1       -0.3339
     21 C           2.4620   -0.1013   -4.0285 C.3     1  LIG1       -0.0360
     22 O           0.3515   -1.9208   -5.5060 O.3     1  LIG1       -0.3866
     23 O          -2.1418   -2.1523   -4.0139 O.3     1  LIG1       -0.3864
     24 O          -2.1797   -1.1281   -1.6527 O.3     1  LIG1       -0.3829
     25 C          -0.1254    0.7721    1.6297 C.ar    1  LIG1        0.1812
     26 O           0.2309   -0.0269    2.7280 O.2     1  LIG1       -0.4507
     27 C           0.8580   -1.2281    2.5722 C.ar    1  LIG1        0.1465
     28 C           1.2760   -1.9099    3.6974 C.ar    1  LIG1        0.0231
     29 C          -0.6606    2.1037    2.1651 C.ar    1  LIG1        0.0282
     30 C          -1.1903    2.1514    3.5074 C.ar    1  LIG1       -0.0055
     31 C          -1.7203    3.3244    4.0634 C.ar    1  LIG1        0.1626
     32 O          -2.2231    3.4422    5.3328 O.3     1  LIG1       -0.5032
     33 C          -1.7687    4.4695    3.2998 C.ar    1  LIG1        0.2006
     34 C          -1.2100    4.4796    2.0296 C.ar    1  LIG1        0.1626
     35 O          -1.2327    5.6605    1.3379 O.3     1  LIG1       -0.5032
     36 C          -0.6460    3.3220    1.4611 C.ar    1  LIG1       -0.0055
     37 O          -2.4031    5.5882    3.7770 O.3     1  LIG1       -0.5009
     38 O           0.0639   -1.9175   -0.7253 O.2     1  LIG1       -0.2830
     39 H           2.5433   -4.7044    4.4890 H       1  LIG1        0.2921
     40 H           2.5843   -4.7066    2.2306 H       1  LIG1        0.0691
     41 H           2.0254   -4.5495    0.0237 H       1  LIG1        0.2922
     42 H           2.8808   -0.7098   -4.8377 H       1  LIG1        0.0255
     43 H           2.7008   -0.5884   -3.0770 H       1  LIG1        0.0255
     44 H           2.9800    0.8641   -4.0238 H       1  LIG1        0.0255
     45 H          -0.0539   -1.3779   -6.2049 H       1  LIG1        0.2100
     46 H          -1.5848   -2.9237   -4.2295 H       1  LIG1        0.2100
     47 H          -2.4293   -1.9306   -2.1543 H       1  LIG1        0.2102
     48 H           1.1181   -1.4799    4.6831 H       1  LIG1        0.0691
     49 H          -1.1942    1.2542    4.1219 H       1  LIG1        0.0662
     50 H          -2.4162    2.5663    5.7063 H       1  LIG1        0.2923
     51 H          -1.6760    6.2872    1.9506 H       1  LIG1        0.2923
     52 H          -0.2065    3.3970    0.4708 H       1  LIG1        0.0662
     53 H          -2.7867    5.2962    4.6317 H       1  LIG1        0.2924
@<TRIPOS>BOND
     1     1     2    1
     2     2     3   ar
     3     3     4   ar
     4     4     5    1
     5     4     6   ar
     6     6     7   ar
     7     7     8   ar
     8     8     9    1
     9    10    12    1
    10    12    14    1
    11    14    15    1
    12    14    16    1
    13    16    18    1
    14    18    19    1
    15    18    20    1
    16    10    20    1
    17    18    21    1
    18    14    23    1
    19     8    25   ar
    20    25    26   ar
    21    26    27   ar
    22     6    27   ar
    23    27    28   ar
    24     2    28   ar
    25    25    29    1
    26    29    30   ar
    27    30    31   ar
    28    31    32    1
    29    31    33   ar
    30    33    34   ar
    31    34    35    1
    32    34    36   ar
    33    29    36   ar
    34    33    37    1
    35     7    38    2
    36    10    11    1
    37    10     9    1
    38    12    24    1
    39    12    13    1
    40    16    22    1
    41    16    17    1
    42     1    39    1
    43     3    40    1
    44     5    41    1
    45    21    42    1
    46    21    43    1
    47    21    44    1
    48    22    45    1
    49    23    46    1
    50    24    47    1
    51    28    48    1
    52    30    49    1
    53    32    50    1
    54    35    51    1
    55    36    52    1
    56    37    53    1
