@<TRIPOS>MOLECULE
NuBBE_1961
 42 45 0 0 0
SMALL
GASTEIGER

@<TRIPOS>ATOM
      1 C          -3.6912   -1.3009    0.4750 C.3     1  LIG1       -0.0649
      2 C          -2.5884   -0.2980    0.1653 C.3     1  LIG1       -0.0508
      3 C          -1.4300   -0.9052   -0.6614 C.3     1  LIG1       -0.0146
      4 H          -1.8963   -1.2869   -1.5809 H       1  LIG1        0.0325
      5 C          -0.3618    0.1780   -1.0571 C.3     1  LIG1        0.0412
      6 H          -0.8787    1.0454   -1.4881 H       1  LIG1        0.0516
      7 C           0.3954    0.6162    0.1789 C.ar    1  LIG1        0.0026
      8 C           1.0266    1.8472    0.5132 C.ar    1  LIG1        0.0049
      9 C           1.1937    3.0816   -0.1447 C.ar    1  LIG1       -0.0523
     10 C           1.8893    4.1142    0.4946 C.ar    1  LIG1       -0.0611
     11 C           2.4165    3.9319    1.7710 C.ar    1  LIG1       -0.0598
     12 C           2.2665    2.7168    2.4462 C.ar    1  LIG1       -0.0378
     13 C           1.5673    1.6930    1.7951 C.ar    1  LIG1        0.0472
     14 N           1.2752    0.4107    2.2180 N.ar    1  LIG1       -0.3541
     15 H           1.5568    0.0271    3.1071 H       1  LIG1        0.1659
     16 C           0.5544   -0.2339    1.2590 C.ar    1  LIG1        0.0479
     17 C           0.0226   -1.5535    1.3199 C.2     1  LIG1       -0.0273
     18 C          -0.6675   -2.0764    0.0377 C.3     1  LIG1       -0.0088
     19 H          -1.3648   -2.8830    0.2929 H       1  LIG1        0.0353
     20 C           0.4049   -2.6332   -0.9293 C.3     1  LIG1       -0.0330
     21 C           0.5627   -1.8087   -2.2158 C.3     1  LIG1       -0.0003
     22 N           0.6590   -0.3668   -1.9785 N.3     1  LIG1       -0.2981
     23 C           0.7158    0.3774   -3.2309 C.3     1  LIG1       -0.0122
     24 C           0.0610   -2.2852    2.4440 C.2     1  LIG1       -0.0933
     25 H          -4.5340   -0.7939    0.9561 H       1  LIG1        0.0230
     26 H          -3.3433   -2.0816    1.1574 H       1  LIG1        0.0230
     27 H          -4.0603   -1.7762   -0.4392 H       1  LIG1        0.0230
     28 H          -2.2374    0.1373    1.1065 H       1  LIG1        0.0266
     29 H          -3.0290    0.5272   -0.4083 H       1  LIG1        0.0266
     30 H           0.7906    3.2308   -1.1411 H       1  LIG1        0.0624
     31 H           2.0205    5.0661   -0.0134 H       1  LIG1        0.0618
     32 H           2.9556    4.7458    2.2500 H       1  LIG1        0.0618
     33 H           2.6807    2.5779    3.4391 H       1  LIG1        0.0638
     34 H           0.1235   -3.6552   -1.2148 H       1  LIG1        0.0283
     35 H           1.3806   -2.7219   -0.4339 H       1  LIG1        0.0283
     36 H          -0.2732   -2.0349   -2.8914 H       1  LIG1        0.0427
     37 H           1.4688   -2.1544   -2.7291 H       1  LIG1        0.0427
     38 H           1.5362    0.0151   -3.8604 H       1  LIG1        0.0391
     39 H           0.9127    1.4388   -3.0450 H       1  LIG1        0.0391
     40 H          -0.2175    0.2928   -3.7989 H       1  LIG1        0.0391
     41 H           0.5086   -1.9404    3.3679 H       1  LIG1        0.0538
     42 H          -0.3721   -3.2810    2.4676 H       1  LIG1        0.0538
@<TRIPOS>BOND
     1     1     2    1
     2     3     5    1
     3     5     6    1
     4     5     7    1
     5     7     8   ar
     6     8     9   ar
     7     9    10   ar
     8    10    11   ar
     9    11    12   ar
    10    12    13   ar
    11     8    13   ar
    12    13    14   ar
    13    14    15    1
    14    14    16   ar
    15     7    16   ar
    16    16    17    1
    17    17    18    1
    18    18    19    1
    19     3    18    1
    20    18    20    1
    21    20    21    1
    22    21    22    1
    23     5    22    1
    24    22    23    1
    25    17    24    2
    26     3     4    1
    27     3     2    1
    28     1    25    1
    29     1    26    1
    30     1    27    1
    31     2    28    1
    32     2    29    1
    33     9    30    1
    34    10    31    1
    35    11    32    1
    36    12    33    1
    37    20    34    1
    38    20    35    1
    39    21    36    1
    40    21    37    1
    41    23    38    1
    42    23    39    1
    43    23    40    1
    44    24    41    1
    45    24    42    1
