@<TRIPOS>MOLECULE
NuBBE_1749
 24 24 0 0 0
SMALL
GASTEIGER

@<TRIPOS>ATOM
      1 C          -1.8447   -0.9031    2.0338 C.3     1  LIG1       -0.0587
      2 C          -0.3349   -0.8753    1.7839 C.3     1  LIG1       -0.0215
      3 C          -0.0122   -0.3399    0.4004 C.ar    1  LIG1       -0.0448
      4 C          -0.3147    0.9782    0.0300 C.ar    1  LIG1       -0.0581
      5 C          -0.0113    1.4492   -1.2505 C.ar    1  LIG1       -0.0586
      6 C           0.6098    0.6155   -2.1853 C.ar    1  LIG1       -0.0504
      7 C           0.9042    1.1081   -3.5706 C.3     1  LIG1       -0.0397
      8 C           0.8984   -0.7051   -1.8273 C.ar    1  LIG1       -0.0586
      9 C           0.5952   -1.1760   -0.5468 C.ar    1  LIG1       -0.0581
     10 C           0.3849   -0.0852    2.8798 C.3     1  LIG1       -0.0587
     11 H          -2.3589   -1.4842    1.2601 H       1  LIG1        0.0235
     12 H          -2.2776    0.1033    2.0379 H       1  LIG1        0.0235
     13 H          -2.0663   -1.3646    3.0022 H       1  LIG1        0.0235
     14 H           0.0228   -1.9115    1.8492 H       1  LIG1        0.0343
     15 H          -0.7945    1.6529    0.7350 H       1  LIG1        0.0620
     16 H          -0.2640    2.4743   -1.5114 H       1  LIG1        0.0620
     17 H           1.0614    2.1918   -3.5768 H       1  LIG1        0.0278
     18 H           0.0704    0.8692   -4.2379 H       1  LIG1        0.0278
     19 H           1.8165    0.6457   -3.9619 H       1  LIG1        0.0278
     20 H           1.3629   -1.3786   -2.5438 H       1  LIG1        0.0620
     21 H           0.8362   -2.2069   -0.2970 H       1  LIG1        0.0620
     22 H           0.0398    0.9532    2.9314 H       1  LIG1        0.0235
     23 H           1.4664   -0.0695    2.7051 H       1  LIG1        0.0235
     24 H           0.2103   -0.5415    3.8603 H       1  LIG1        0.0235
@<TRIPOS>BOND
     1     1     2    1
     2     2     3    1
     3     3     4   ar
     4     4     5   ar
     5     5     6   ar
     6     6     7    1
     7     6     8   ar
     8     8     9   ar
     9     3     9   ar
    10     2    10    1
    11     1    11    1
    12     1    12    1
    13     1    13    1
    14     2    14    1
    15     4    15    1
    16     5    16    1
    17     7    17    1
    18     7    18    1
    19     7    19    1
    20     8    20    1
    21     9    21    1
    22    10    22    1
    23    10    23    1
    24    10    24    1
