REMARK  Name = NuBBE_125
REMARK  18 active torsions:
REMARK  status: ('A' for Active; 'I' for Inactive)
REMARK    1  A    between atoms: O_1  and  C_2
REMARK    2  A    between atoms: C_5  and  C_6
REMARK    3  A    between atoms: C_10  and  O_11
REMARK    4  A    between atoms: C_12  and  O_13
REMARK    5  A    between atoms: O_13  and  C_14
REMARK    6  A    between atoms: C_17  and  C_25
REMARK    7  A    between atoms: C_19  and  O_24
REMARK    8  A    between atoms: C_21  and  O_23
REMARK    9  A    between atoms: C_25  and  O_26
REMARK   10  A    between atoms: O_26  and  C_27
REMARK   11  A    between atoms: C_29  and  O_41
REMARK   12  A    between atoms: C_31  and  O_40
REMARK   13  A    between atoms: C_33  and  O_35
REMARK   14  A    between atoms: C_36  and  C_38
REMARK   15  A    between atoms: C_42  and  O_44
REMARK   16  A    between atoms: C_45  and  O_46
REMARK   17  A    between atoms: O_46  and  C_47
REMARK   18  A    between atoms: C_53  and  O_54
REMARK                            x       y       z     vdW  Elec       q    Type
REMARK                         _______ _______ _______ _____ _____    ______ ____
ROOT
ATOM      1  C   LIG A   1       0.624   1.222  -1.978  0.00  0.00    +0.340 C 
ATOM      2  O   LIG A   1      -0.257   0.205  -2.492  0.00  0.00    -0.331 OA
ATOM      3  C   LIG A   1      -0.586   0.319  -3.885  0.00  0.00    +0.179 C 
ATOM      4  C   LIG A   1       0.721   0.224  -4.696  0.00  0.00    +0.177 C 
ATOM      5  C   LIG A   1       1.763   1.267  -4.233  0.00  0.00    +0.180 C 
ATOM      6  C   LIG A   1       1.264   2.121  -3.063  0.00  0.00    +0.214 C 
ENDROOT
BRANCH   6   7
ATOM      7  O   LIG A   1       0.304   3.097  -3.510  0.00  0.00    -0.383 OA
ATOM      8  H   LIG A   1       0.543   3.389  -4.407  0.00  0.00    +0.210 HD
ENDBRANCH   6   7
BRANCH   4   9
ATOM      9  O   LIG A   1       0.479   0.388  -6.099  0.00  0.00    -0.387 OA
ATOM     10  H   LIG A   1       1.338   0.246  -6.542  0.00  0.00    +0.210 HD
ENDBRANCH   4   9
BRANCH   5  11
ATOM     11  O   LIG A   1       2.998   0.612  -3.915  0.00  0.00    -0.386 OA
ATOM     12  H   LIG A   1       2.948   0.284  -2.991  0.00  0.00    +0.210 HD
ENDBRANCH   5  11
BRANCH   3  13
ATOM     13  C   LIG A   1      -1.569  -0.809  -4.280  0.00  0.00    +0.197 C 
BRANCH  13  14
ATOM     14  O   LIG A   1      -2.795  -0.710  -3.529  0.00  0.00    -0.346 OA
BRANCH  14  15
ATOM     15  C   LIG A   1      -3.700  -1.796  -3.813  0.00  0.00    +0.282 C 
ATOM     16  C   LIG A   1      -4.936  -1.610  -2.893  0.00  0.00    +0.201 C 
ATOM     17  C   LIG A   1      -5.839  -2.846  -2.893  0.00  0.00    +0.179 C 
ATOM     18  C   LIG A   1      -5.026  -4.129  -2.676  0.00  0.00    +0.174 C 
ATOM     19  C   LIG A   1      -3.915  -4.178  -3.729  0.00  0.00    +0.149 C 
ATOM     20  C   LIG A   1      -3.054  -5.430  -3.611  0.00  0.00    +0.040 C 
ATOM     21  O   LIG A   1      -3.053  -3.046  -3.578  0.00  0.00    -0.343 OA
BRANCH  16  22
ATOM     22  O   LIG A   1      -4.532  -1.373  -1.524  0.00  0.00    -0.384 OA
ATOM     23  H   LIG A   1      -3.701  -0.855  -1.598  0.00  0.00    +0.210 HD
ENDBRANCH  16  22
BRANCH  17  24
ATOM     24  O   LIG A   1      -6.825  -2.748  -1.851  0.00  0.00    -0.386 OA
ATOM     25  H   LIG A   1      -6.362  -2.297  -1.113  0.00  0.00    +0.210 HD
ENDBRANCH  17  24
BRANCH  18  26
ATOM     26  O   LIG A   1      -5.899  -5.257  -2.787  0.00  0.00    -0.387 OA
ATOM     27  H   LIG A   1      -6.654  -5.056  -2.198  0.00  0.00    +0.210 HD
ENDBRANCH  18  26
ENDBRANCH  14  15
ENDBRANCH  13  14
ENDBRANCH   3  13
BRANCH   1  28
ATOM     28  O   LIG A   1       1.701   0.597  -1.251  0.00  0.00    -0.454 OA
BRANCH  28  34
ATOM     29  C   LIG A   1       3.529   1.415   4.810  0.00  0.00    +0.139 A 
ATOM     30  O   LIG A   1       2.283   1.248   4.237  0.00  0.00    -0.454 OA
ATOM     31  C   LIG A   1       2.195   1.077   2.884  0.00  0.00    +0.146 A 
ATOM     32  C   LIG A   1       3.288   0.912   2.049  0.00  0.00    +0.109 A 
ATOM     33  C   LIG A   1       3.091   0.750   0.665  0.00  0.00    +0.177 A 
ATOM     34  C   LIG A   1       1.789   0.788   0.110  0.00  0.00    +0.207 A 
ATOM     35  C   LIG A   1       0.698   0.977   0.982  0.00  0.00    +0.169 A 
ATOM     36  C   LIG A   1       0.914   1.089   2.359  0.00  0.00    +0.096 A 
ATOM     37  C   LIG A   1       4.668   1.276   4.116  0.00  0.00    +0.098 A 
ATOM     38  C   LIG A   1       4.608   0.959   2.678  0.00  0.00    +0.197 A 
ATOM     39  O   LIG A   1       5.635   0.775   2.015  0.00  0.00    -0.287 OA
BRANCH  29  43
ATOM     40  C   LIG A   1       3.346   2.497   8.972  0.00  0.00    +0.158 A 
ATOM     41  C   LIG A   1       2.171   2.258   8.278  0.00  0.00    +0.050 A 
ATOM     42  C   LIG A   1       2.241   1.898   6.924  0.00  0.00    +0.015 A 
ATOM     43  C   LIG A   1       3.480   1.771   6.253  0.00  0.00    +0.021 A 
ATOM     44  C   LIG A   1       4.646   2.012   6.992  0.00  0.00    +0.060 A 
ATOM     45  C   LIG A   1       4.571   2.369   8.331  0.00  0.00    +0.159 A 
BRANCH  45  46
ATOM     46  O   LIG A   1       5.733   2.601   9.009  0.00  0.00    -0.503 OA
ATOM     47  H   LIG A   1       5.447   2.835   9.914  0.00  0.00    +0.292 HD
ENDBRANCH  45  46
BRANCH  40  48
ATOM     48  O   LIG A   1       3.354   2.864  10.287  0.00  0.00    -0.503 OA
ATOM     49  H   LIG A   1       2.432   2.947  10.585  0.00  0.00    +0.292 HD
ENDBRANCH  40  48
ENDBRANCH  29  43
BRANCH  35  50
ATOM     50  O   LIG A   1      -0.589   0.975   0.509  0.00  0.00    -0.491 OA
ATOM     51  C   LIG A   1      -1.439   1.953   1.115  0.00  0.00    +0.277 C 
ENDBRANCH  35  50
BRANCH  33  52
ATOM     52  O   LIG A   1       4.171   0.587  -0.176  0.00  0.00    -0.503 OA
ATOM     53  H   LIG A   1       4.994   0.603   0.365  0.00  0.00    +0.292 HD
ENDBRANCH  33  52
ENDBRANCH  28  34
ENDBRANCH   1  28
TORSDOF 16
