REMARK  Name = NuBBE_2162
REMARK  14 active torsions:
REMARK  status: ('A' for Active; 'I' for Inactive)
REMARK    1  A    between atoms: C_2  and  C_3
REMARK    2  A    between atoms: C_2  and  C_11
REMARK    3  A    between atoms: C_4  and  O_5
REMARK    4  A    between atoms: C_9  and  O_10
REMARK    5  A    between atoms: C_11  and  C_12
REMARK    6  A    between atoms: C_12  and  C_13
REMARK    7  A    between atoms: C_13  and  C_14
REMARK    8  A    between atoms: C_14  and  C_15
REMARK    9  A    between atoms: C_15  and  C_16
REMARK   10  A    between atoms: C_16  and  C_17
REMARK   11  A    between atoms: C_17  and  C_18
REMARK   12  A    between atoms: C_18  and  C_19
REMARK   13  A    between atoms: C_19  and  C_20
REMARK   14  A    between atoms: C_20  and  C_21
REMARK                            x       y       z     vdW  Elec       q    Type
REMARK                         _______ _______ _______ _____ _____    ______ ____
ROOT
ATOM      1  C   LIG A   1      -1.379  -1.560  -3.381  0.00  0.00    +0.008 C 
ENDROOT
BRANCH   1   2
ATOM      2  C   LIG A   1      -1.533  -2.682  -2.340  0.00  0.00    +0.080 C 
BRANCH   2   4
ATOM      3  O   LIG A   1       0.744  -3.013  -1.685  0.00  0.00    -0.292 OA
ATOM      4  C   LIG A   1      -0.468  -2.872  -1.276  0.00  0.00    +0.170 C 
BRANCH   4   5
ATOM      5  C   LIG A   1      -0.765  -2.947   0.209  0.00  0.00    +0.100 A 
ATOM      6  C   LIG A   1      -2.036  -2.624   0.734  0.00  0.00    +0.131 A 
ATOM      7  C   LIG A   1      -2.297  -2.695   2.106  0.00  0.00    +0.046 A 
ATOM      8  C   LIG A   1      -1.270  -2.903   3.015  0.00  0.00    +0.007 A 
ATOM      9  C   LIG A   1       0.023  -3.072   2.551  0.00  0.00    +0.046 A 
ATOM     10  C   LIG A   1       0.256  -3.192   1.173  0.00  0.00    +0.131 A 
BRANCH   6  11
ATOM     11  O   LIG A   1      -3.061  -2.164  -0.042  0.00  0.00    -0.506 OA
ATOM     12  H   LIG A   1      -3.839  -1.943   0.496  0.00  0.00    +0.292 HD
ENDBRANCH   6  11
BRANCH  10  13
ATOM     13  O   LIG A   1       1.565  -3.420   0.818  0.00  0.00    -0.506 OA
ATOM     14  H   LIG A   1       2.167  -3.114   1.522  0.00  0.00    +0.292 HD
ENDBRANCH  10  13
ENDBRANCH   4   5
ENDBRANCH   2   4
ENDBRANCH   1   2
BRANCH   1  15
ATOM     15  C   LIG A   1      -1.396  -0.137  -2.857  0.00  0.00    +0.000 C 
BRANCH  15  16
ATOM     16  C   LIG A   1      -0.220   0.172  -1.973  0.00  0.00    +0.000 C 
BRANCH  16  17
ATOM     17  C   LIG A   1       1.206  -0.071  -2.467  0.00  0.00    -0.000 C 
BRANCH  17  18
ATOM     18  C   LIG A   1       2.377   0.135  -1.476  0.00  0.00    -0.000 C 
BRANCH  18  19
ATOM     19  C   LIG A   1       2.353  -0.660  -0.178  0.00  0.00    +0.000 C 
BRANCH  19  20
ATOM     20  C   LIG A   1       1.196  -0.463   0.794  0.00  0.00    +0.000 C 
BRANCH  20  21
ATOM     21  C   LIG A   1       0.823   0.868   1.378  0.00  0.00    +0.005 C 
BRANCH  21  22
ATOM     22  C   LIG A   1       0.562   1.933   0.355  0.00  0.00    +0.035 C 
BRANCH  22  23
ATOM     23  C   LIG A   1       0.384   3.267   0.937  0.00  0.00    -0.047 A 
ATOM     24  C   LIG A   1       1.504   4.040   1.224  0.00  0.00    +0.003 A 
ATOM     25  C   LIG A   1       1.314   5.221   1.904  0.00  0.00    +0.000 A 
ATOM     26  C   LIG A   1       0.017   5.606   2.260  0.00  0.00    +0.000 A 
ATOM     27  C   LIG A   1      -1.101   4.861   1.877  0.00  0.00    +0.000 A 
ATOM     28  C   LIG A   1      -0.918   3.687   1.192  0.00  0.00    +0.003 A 
ENDBRANCH  22  23
ENDBRANCH  21  22
ENDBRANCH  20  21
ENDBRANCH  19  20
ENDBRANCH  18  19
ENDBRANCH  17  18
ENDBRANCH  16  17
ENDBRANCH  15  16
ENDBRANCH   1  15
TORSDOF 14
