@<TRIPOS>MOLECULE
NuBBE_1163
 77 81 0 0 0
SMALL
GASTEIGER

@<TRIPOS>ATOM
      1 C          -0.3494   -1.7045    2.5973 C.3     1  LIG1       -0.0520
      2 C           0.5928   -1.0899    1.5264 C.3     1  LIG1        0.0398
      3 C          -0.2550   -0.2420    0.4283 C.3     1  LIG1        0.0177
      4 H          -0.5643   -0.9526   -0.3488 H       1  LIG1        0.0353
      5 C           0.6043    0.8629   -0.2530 C.3     1  LIG1        0.0162
      6 C           1.7324    0.1812   -1.0987 C.3     1  LIG1       -0.0555
      7 C           1.1280    1.8319    0.8470 C.3     1  LIG1        0.1094
      8 O           2.2335    2.5702    0.3096 O.3     1  LIG1       -0.4608
      9 C           2.0053    3.2210   -0.8645 C.2     1  LIG1        0.3077
     10 C           0.5737    3.1715   -1.3696 C.3     1  LIG1        0.0493
     11 C          -0.1406    1.7839   -1.3026 C.3     1  LIG1       -0.0096
     12 H           0.0185    1.3347   -2.2937 H       1  LIG1        0.0322
     13 C          -1.6978    1.8818   -1.1406 C.3     1  LIG1        0.0339
     14 C          -2.3999    0.8534   -2.0897 C.2     1  LIG1        0.1464
     15 C          -2.7664    1.2475   -3.5209 C.3     1  LIG1        0.0622
     16 H          -2.9910    2.3116   -3.6095 H       1  LIG1        0.0416
     17 C          -3.9923    0.4914   -3.9986 C.3     1  LIG1        0.1025
     18 O          -3.8555    0.3737   -5.4135 O.3     1  LIG1       -0.4639
     19 C          -2.5533    0.5600   -5.7554 C.2     1  LIG1        0.3079
     20 C          -1.7251    0.8664   -4.5481 C.3     1  LIG1        0.0576
     21 O          -2.1284    0.4840   -6.9030 O.2     1  LIG1       -0.2508
     22 O          -2.6159   -0.3013   -1.7188 O.2     1  LIG1       -0.2964
     23 C          -2.2779    3.2838   -1.4644 C.3     1  LIG1       -0.0524
     24 C          -2.1099    1.6222    0.3238 C.3     1  LIG1       -0.0030
     25 C          -1.5677    0.3610    1.0152 C.3     1  LIG1        0.1083
     26 H          -1.3931    0.6390    2.0595 H       1  LIG1        0.0737
     27 O          -2.5950   -0.6544    0.9809 O.3     1  LIG1       -0.4612
     28 C          -3.6306   -0.5096    1.8515 C.2     1  LIG1        0.3042
     29 C          -4.7036   -1.5060    1.5482 C.3     1  LIG1        0.0332
     30 O          -3.6977    0.3399    2.7283 O.2     1  LIG1       -0.2512
     31 O           2.8771    3.8706   -1.4283 O.2     1  LIG1       -0.2508
     32 H           0.3705    2.5833    1.0989 H       1  LIG1        0.0739
     33 C           1.4810    1.2175    2.2154 C.3     1  LIG1       -0.0112
     34 C           1.7957   -0.2666    2.1140 C.3     1  LIG1       -0.0224
     35 H           2.6300   -0.2916    1.4062 H       1  LIG1        0.0314
     36 C           2.3976   -0.9545    3.3609 C.3     1  LIG1       -0.0363
     37 H           1.6135   -1.1921    4.0868 H       1  LIG1        0.0302
     38 C           3.0795   -2.2594    2.8870 C.3     1  LIG1       -0.0057
     39 C           2.3013   -3.0814    1.8372 C.3     1  LIG1        0.1613
     40 H           1.6872   -3.8011    2.3929 H       1  LIG1        0.0815
     41 O           3.1696   -3.8989    1.0306 O.3     1  LIG1       -0.4538
     42 C           3.8162   -3.2340    0.0307 C.2     1  LIG1        0.3046
     43 C           4.0452   -4.1398   -1.1355 C.3     1  LIG1        0.0333
     44 O           4.1071   -2.0459    0.0509 O.2     1  LIG1       -0.2511
     45 C           1.2822   -2.3266    0.9286 C.2     1  LIG1        0.1800
     46 O           0.9788   -2.7681   -0.1826 O.2     1  LIG1       -0.2929
     47 C           3.4130   -0.0941    4.1204 C.3     1  LIG1       -0.0620
     48 H          -1.1716   -2.2493    2.1210 H       1  LIG1        0.0239
     49 H          -0.7564   -0.9509    3.2759 H       1  LIG1        0.0239
     50 H           0.1327   -2.4563    3.2300 H       1  LIG1        0.0239
     51 H           2.5173   -0.2749   -0.5080 H       1  LIG1        0.0236
     52 H           2.2435    0.8758   -1.7732 H       1  LIG1        0.0236
     53 H           1.3085   -0.5991   -1.7426 H       1  LIG1        0.0236
     54 H           0.5672    3.5185   -2.4099 H       1  LIG1        0.0381
     55 H           0.0589    3.9277   -0.7709 H       1  LIG1        0.0381
     56 H          -4.9098    1.0473   -3.7781 H       1  LIG1        0.0704
     57 H          -4.1005   -0.5143   -3.5808 H       1  LIG1        0.0704
     58 H          -1.0527    1.7041   -4.7554 H       1  LIG1        0.0385
     59 H          -1.1483   -0.0212   -4.2708 H       1  LIG1        0.0385
     60 H          -1.9373    3.6591   -2.4340 H       1  LIG1        0.0239
     61 H          -2.0027    4.0321   -0.7133 H       1  LIG1        0.0239
     62 H          -3.3748    3.2583   -1.4754 H       1  LIG1        0.0239
     63 H          -3.2054    1.6437    0.3896 H       1  LIG1        0.0310
     64 H          -1.7736    2.4771    0.9262 H       1  LIG1        0.0310
     65 H          -5.1002   -1.3208    0.5462 H       1  LIG1        0.0342
     66 H          -5.5161   -1.3895    2.2710 H       1  LIG1        0.0342
     67 H          -4.3083   -2.5211    1.6257 H       1  LIG1        0.0342
     68 H           0.6405    1.3476    2.9076 H       1  LIG1        0.0304
     69 H           2.3241    1.7745    2.6368 H       1  LIG1        0.0304
     70 H           3.2694   -2.8985    3.7608 H       1  LIG1        0.0308
     71 H           4.0824   -2.0234    2.5112 H       1  LIG1        0.0308
     72 H           4.8247   -4.8660   -0.9041 H       1  LIG1        0.0342
     73 H           4.3447   -3.5398   -2.0001 H       1  LIG1        0.0342
     74 H           3.1071   -4.6418   -1.3914 H       1  LIG1        0.0342
     75 H           4.2020    0.2750    3.4572 H       1  LIG1        0.0233
     76 H           3.8858   -0.6710    4.9227 H       1  LIG1        0.0233
     77 H           2.9252    0.7669    4.5896 H       1  LIG1        0.0233
@<TRIPOS>BOND
     1     2     3    1
     2     3     5    1
     3     5     7    1
     4     7     8    1
     5     8     9    1
     6     9    10    1
     7    10    11    1
     8     5    11    1
     9    11    13    1
    10    15    17    1
    11    17    18    1
    12    18    19    1
    13    19    20    1
    14    15    20    1
    15    19    21    2
    16    14    22    2
    17    13    24    1
    18    24    25    1
    19     3    25    1
    20    27    28    1
    21    28    29    1
    22    28    30    2
    23     7    33    1
    24    33    34    1
    25     2    34    1
    26    34    36    1
    27    36    38    1
    28    38    39    1
    29    41    42    1
    30    42    43    1
    31    42    44    2
    32    39    45    1
    33     2    45    1
    34     1     2    1
    35     3     4    1
    36     5     6    1
    37     7    32    1
    38     9    31    2
    39    11    12    1
    40    25    26    1
    41    25    27    1
    42    34    35    1
    43    45    46    2
    44    13    23    1
    45    13    14    1
    46    15    16    1
    47    15    14    1
    48    36    47    1
    49    36    37    1
    50    39    41    1
    51    39    40    1
    52     1    48    1
    53     1    49    1
    54     1    50    1
    55     6    51    1
    56     6    52    1
    57     6    53    1
    58    10    54    1
    59    10    55    1
    60    17    56    1
    61    17    57    1
    62    20    58    1
    63    20    59    1
    64    23    60    1
    65    23    61    1
    66    23    62    1
    67    24    63    1
    68    24    64    1
    69    29    65    1
    70    29    66    1
    71    29    67    1
    72    33    68    1
    73    33    69    1
    74    38    70    1
    75    38    71    1
    76    43    72    1
    77    43    73    1
    78    43    74    1
    79    47    75    1
    80    47    76    1
    81    47    77    1
