@<TRIPOS>MOLECULE
NuBBE_2382
 59 61 0 0 0
SMALL
GASTEIGER

@<TRIPOS>ATOM
      1 C          -1.5352    2.8019    2.1732 C.3     1  LIG1       -0.0312
      2 C          -1.0060    1.3736    1.6978 C.3     1  LIG1       -0.0237
      3 C          -0.1189    1.3543    0.3527 C.3     1  LIG1        0.0260
      4 C           1.2614    2.0016    0.7634 C.3     1  LIG1        0.0542
      5 O           2.2375    2.2207   -0.2431 O.3     1  LIG1       -0.3941
      6 C           0.1380   -0.1139   -0.1797 C.ar    1  LIG1        0.0097
      7 C           0.9216   -0.4140   -1.3401 C.ar    1  LIG1        0.1658
      8 C           1.2406   -1.7445   -1.7023 C.ar    1  LIG1        0.1652
      9 O           1.8965   -2.0794   -2.8590 O.3     1  LIG1       -0.4912
     10 C           3.2933   -1.7938   -2.8747 C.3     1  LIG1        0.0790
     11 C           0.7403   -2.8203   -0.9326 C.ar    1  LIG1        0.0008
     12 C          -0.1223   -2.5203    0.1206 C.ar    1  LIG1       -0.0512
     13 C          -0.4705   -1.2105    0.4735 C.ar    1  LIG1       -0.0396
     14 C          -1.5115   -1.0588    1.5391 C.3     1  LIG1       -0.0270
     15 C          -2.1232    0.3252    1.5765 C.3     1  LIG1       -0.0448
     16 C           1.0918   -4.2731   -1.2262 C.3     1  LIG1       -0.0179
     17 C          -0.1536   -5.1083   -1.5250 C.3     1  LIG1       -0.0585
     18 C           1.8868   -4.8916   -0.0626 C.3     1  LIG1       -0.0585
     19 O           1.3734    0.6958   -2.0107 O.3     1  LIG1       -0.4911
     20 C           1.5569    0.6977   -3.4155 C.3     1  LIG1        0.0790
     21 C          -0.8499    2.1589   -0.7661 C.3     1  LIG1       -0.0408
     22 C          -1.9018    3.1719   -0.3055 C.3     1  LIG1       -0.0517
     23 C          -1.5549    3.8258    1.0177 C.3     1  LIG1       -0.0476
     24 C          -2.9603    2.7626    2.7932 C.3     1  LIG1       -0.0595
     25 C          -0.6414    3.3506    3.3162 C.3     1  LIG1       -0.0595
     26 H          -0.3575    1.0071    2.5091 H       1  LIG1        0.0315
     27 H           1.1023    2.9966    1.1707 H       1  LIG1        0.0566
     28 H           1.7376    1.3995    1.5457 H       1  LIG1        0.0566
     29 H           2.3731    1.3677   -0.6957 H       1  LIG1        0.2094
     30 H           3.8523   -2.7336   -2.8647 H       1  LIG1        0.0660
     31 H           3.6301   -1.1509   -2.0571 H       1  LIG1        0.0660
     32 H           3.5197   -1.3060   -3.8305 H       1  LIG1        0.0660
     33 H          -0.5724   -3.3410    0.6910 H       1  LIG1        0.0624
     34 H          -1.0636   -1.3012    2.5116 H       1  LIG1        0.0313
     35 H          -2.3240   -1.7777    1.3634 H       1  LIG1        0.0313
     36 H          -2.7966    0.3348    2.4376 H       1  LIG1        0.0271
     37 H          -2.7355    0.5052    0.6850 H       1  LIG1        0.0271
     38 H           1.7384   -4.3299   -2.1077 H       1  LIG1        0.0345
     39 H          -0.8202   -5.1854   -0.6597 H       1  LIG1        0.0235
     40 H           0.1261   -6.1279   -1.8116 H       1  LIG1        0.0235
     41 H          -0.7263   -4.6694   -2.3490 H       1  LIG1        0.0235
     42 H           1.2864   -4.9724    0.8502 H       1  LIG1        0.0235
     43 H           2.7735   -4.2929    0.1743 H       1  LIG1        0.0235
     44 H           2.2249   -5.9006   -0.3239 H       1  LIG1        0.0235
     45 H           1.1555    1.6388   -3.8043 H       1  LIG1        0.0660
     46 H           1.0561   -0.1164   -3.9440 H       1  LIG1        0.0660
     47 H           2.6306    0.7121   -3.6249 H       1  LIG1        0.0660
     48 H          -1.3681    1.4748   -1.4525 H       1  LIG1        0.0275
     49 H          -0.1161    2.6912   -1.3825 H       1  LIG1        0.0275
     50 H          -2.8803    2.6823   -0.2282 H       1  LIG1        0.0266
     51 H          -2.0182    3.9428   -1.0769 H       1  LIG1        0.0266
     52 H          -2.2881    4.6171    1.2249 H       1  LIG1        0.0271
     53 H          -0.5940    4.3434    0.9243 H       1  LIG1        0.0271
     54 H          -3.7167    2.4412    2.0701 H       1  LIG1        0.0235
     55 H          -3.2655    3.7554    3.1478 H       1  LIG1        0.0235
     56 H          -3.0008    2.0996    3.6655 H       1  LIG1        0.0235
     57 H           0.4036    3.4648    3.0253 H       1  LIG1        0.0235
     58 H          -0.6654    2.6829    4.1856 H       1  LIG1        0.0235
     59 H          -0.9889    4.3359    3.6503 H       1  LIG1        0.0235
@<TRIPOS>BOND
     1     1     2    1
     2     2     3    1
     3     4     5    1
     4     3     6    1
     5     6     7   ar
     6     7     8   ar
     7     9    10    1
     8     8    11   ar
     9    11    12   ar
    10    12    13   ar
    11     6    13   ar
    12    13    14    1
    13    14    15    1
    14     2    15    1
    15    16    17    1
    16    16    18    1
    17    19    20    1
    18     3    21    1
    19    21    22    1
    20    22    23    1
    21     1    23    1
    22     1    24    1
    23     1    25    1
    24     3     4    1
    25     7    19    1
    26     8     9    1
    27    11    16    1
    28     2    26    1
    29     4    27    1
    30     4    28    1
    31     5    29    1
    32    10    30    1
    33    10    31    1
    34    10    32    1
    35    12    33    1
    36    14    34    1
    37    14    35    1
    38    15    36    1
    39    15    37    1
    40    16    38    1
    41    17    39    1
    42    17    40    1
    43    17    41    1
    44    18    42    1
    45    18    43    1
    46    18    44    1
    47    20    45    1
    48    20    46    1
    49    20    47    1
    50    21    48    1
    51    21    49    1
    52    22    50    1
    53    22    51    1
    54    23    52    1
    55    23    53    1
    56    24    54    1
    57    24    55    1
    58    24    56    1
    59    25    57    1
    60    25    58    1
    61    25    59    1
