@<TRIPOS>MOLECULE
NuBBE_1263
 41 44 0 0 0
SMALL
GASTEIGER

@<TRIPOS>ATOM
      1 O          -4.3395   -1.0742    0.0911 O.2     1  LIG1       -0.2869
      2 C          -3.1195   -0.9914    0.0477 C.ar    1  LIG1        0.1966
      3 C          -2.3301   -2.2336    0.0182 C.ar    1  LIG1        0.0288
      4 C          -0.9953   -2.1673   -0.0340 C.ar    1  LIG1        0.1393
      5 C          -0.1560   -3.3811   -0.0543 C.ar    1  LIG1        0.0176
      6 C           1.0106   -3.4397    0.7258 C.ar    1  LIG1       -0.0476
      7 C           1.8268   -4.5750    0.7134 C.ar    1  LIG1       -0.0195
      8 C           1.4798   -5.6561   -0.0881 C.ar    1  LIG1        0.1169
      9 O           2.2448   -6.7831   -0.1329 O.3     1  LIG1       -0.5068
     10 C           0.3366   -5.6182   -0.8755 C.ar    1  LIG1       -0.0195
     11 C          -0.4784   -4.4832   -0.8616 C.ar    1  LIG1       -0.0476
     12 O          -0.2808   -0.9862   -0.0464 O.2     1  LIG1       -0.4538
     13 C          -2.3591    0.2807    0.0220 C.ar    1  LIG1        0.1061
     14 C          -0.9601    0.2121   -0.0248 C.ar    1  LIG1        0.1534
     15 C          -0.1827    1.3866   -0.0489 C.ar    1  LIG1        0.0597
     16 C           1.2750    1.3519   -0.1094 C.2     1  LIG1       -0.0478
     17 C           1.9406    2.5097   -0.0846 C.2     1  LIG1       -0.0408
     18 C           1.2629    3.8560   -0.0010 C.3     1  LIG1        0.1235
     19 C           1.6495    4.5403    1.3152 C.3     1  LIG1       -0.0215
     20 C           1.7105    4.7217   -1.1846 C.3     1  LIG1       -0.0215
     21 O          -0.1782    3.8299   -0.0457 O.3     1  LIG1       -0.4814
     22 C          -0.8252    2.6267   -0.0221 C.ar    1  LIG1        0.1359
     23 C          -2.2179    2.7014    0.0200 C.ar    1  LIG1        0.0231
     24 C          -2.9822    1.5347    0.0428 C.ar    1  LIG1        0.1347
     25 O          -4.3421    1.6454    0.0856 O.3     1  LIG1       -0.5058
     26 H          -2.8898   -3.1596    0.0521 H       1  LIG1        0.0693
     27 H           1.2892   -2.5995    1.3590 H       1  LIG1        0.0626
     28 H           2.7193   -4.5938    1.3305 H       1  LIG1        0.0654
     29 H           3.0004   -6.6709    0.4667 H       1  LIG1        0.2921
     30 H           0.0805   -6.4676   -1.5028 H       1  LIG1        0.0654
     31 H          -1.3597   -4.4690   -1.4991 H       1  LIG1        0.0626
     32 H           1.7940    0.4019   -0.1704 H       1  LIG1        0.0624
     33 H           3.0272    2.4954   -0.1209 H       1  LIG1        0.0611
     34 H           2.7335    4.6700    1.4076 H       1  LIG1        0.0271
     35 H           1.2982    3.9587    2.1760 H       1  LIG1        0.0271
     36 H           1.1763    5.5260    1.3964 H       1  LIG1        0.0271
     37 H           2.7968    4.8623   -1.2036 H       1  LIG1        0.0271
     38 H           1.2364    5.7097   -1.1472 H       1  LIG1        0.0271
     39 H           1.4052    4.2699   -2.1362 H       1  LIG1        0.0271
     40 H          -2.6890    3.6802    0.0353 H       1  LIG1        0.0691
     41 H          -4.6085    2.5784    0.0887 H       1  LIG1        0.2922
@<TRIPOS>BOND
     1     1     2    2
     2     2     3   ar
     3     3     4   ar
     4     4     5    1
     5     5     6   ar
     6     6     7   ar
     7     7     8   ar
     8     8     9    1
     9     8    10   ar
    10    10    11   ar
    11     5    11   ar
    12     4    12   ar
    13     2    13   ar
    14    13    14   ar
    15    12    14   ar
    16    14    15   ar
    17    15    16    1
    18    16    17    2
    19    17    18    1
    20    18    19    1
    21    18    20    1
    22    18    21    1
    23    15    22   ar
    24    21    22    1
    25    22    23   ar
    26    23    24   ar
    27    13    24   ar
    28    24    25    1
    29     3    26    1
    30     6    27    1
    31     7    28    1
    32     9    29    1
    33    10    30    1
    34    11    31    1
    35    16    32    1
    36    17    33    1
    37    19    34    1
    38    19    35    1
    39    19    36    1
    40    20    37    1
    41    20    38    1
    42    20    39    1
    43    23    40    1
    44    25    41    1
