@<TRIPOS>MOLECULE
NuBBE_2224
 36 38 0 0 0
SMALL
GASTEIGER

@<TRIPOS>ATOM
      1 O          -0.5749   -4.5984   -0.7619 O.3     1  LIG1       -0.4914
      2 C          -1.1926   -5.8177   -0.3762 C.3     1  LIG1        0.0790
      3 C          -0.8532   -3.4740   -0.0314 C.ar    1  LIG1        0.1616
      4 C          -0.2273   -2.3240   -0.5402 C.ar    1  LIG1       -0.0096
      5 C          -0.3874   -1.0658    0.0638 C.ar    1  LIG1       -0.0037
      6 C           0.3227    0.1534   -0.5044 C.3     1  LIG1        0.1256
      7 O          -0.4720    1.3166   -0.2227 O.3     1  LIG1       -0.4838
      8 C           0.1539    2.5241   -0.3558 C.ar    1  LIG1        0.1280
      9 C           1.5374    2.6718   -0.5003 C.ar    1  LIG1       -0.0053
     10 C           2.4312    1.4679   -0.5471 C.3     1  LIG1       -0.0206
     11 C           1.7342    0.2671    0.0748 C.3     1  LIG1       -0.0074
     12 C           2.0777    3.9597   -0.6260 C.ar    1  LIG1       -0.0517
     13 C           1.2497    5.0839   -0.5773 C.ar    1  LIG1       -0.0197
     14 C          -0.1212    4.9154   -0.4091 C.ar    1  LIG1        0.1203
     15 C          -0.6722    3.6459   -0.2980 C.ar    1  LIG1        0.0218
     16 O          -0.9659    5.9839   -0.3487 O.3     1  LIG1       -0.5066
     17 C          -1.1881   -0.9775    1.2095 C.ar    1  LIG1       -0.0514
     18 C          -1.8189   -2.1099    1.7262 C.ar    1  LIG1       -0.0161
     19 C          -1.6503   -3.3543    1.1118 C.ar    1  LIG1        0.1585
     20 O          -2.2795   -4.4347    1.6661 O.3     1  LIG1       -0.5033
     21 H          -0.8917   -6.5829   -1.0989 H       1  LIG1        0.0660
     22 H          -2.2841   -5.7466   -0.4208 H       1  LIG1        0.0660
     23 H          -0.8402   -6.1463    0.6066 H       1  LIG1        0.0660
     24 H           0.3948   -2.4228   -1.4283 H       1  LIG1        0.0659
     25 H           0.3632    0.0495   -1.5976 H       1  LIG1        0.0784
     26 H           3.3660    1.6629   -0.0087 H       1  LIG1        0.0316
     27 H           2.6826    1.2576   -1.5938 H       1  LIG1        0.0316
     28 H           1.6831    0.4051    1.1635 H       1  LIG1        0.0307
     29 H           2.3210   -0.6401   -0.1111 H       1  LIG1        0.0307
     30 H           3.1498    4.0939   -0.7532 H       1  LIG1        0.0623
     31 H           1.6883    6.0722   -0.6681 H       1  LIG1        0.0654
     32 H          -1.7441    3.5273   -0.1683 H       1  LIG1        0.0691
     33 H          -0.4452    6.7985   -0.4389 H       1  LIG1        0.2921
     34 H          -1.3322   -0.0193    1.7056 H       1  LIG1        0.0623
     35 H          -2.4388   -1.9982    2.6109 H       1  LIG1        0.0655
     36 H          -2.7758   -4.1439    2.4484 H       1  LIG1        0.2923
@<TRIPOS>BOND
     1     1     2    1
     2     1     3    1
     3     3     4   ar
     4     4     5   ar
     5     5     6    1
     6     6     7    1
     7     7     8    1
     8     8     9   ar
     9     9    10    1
    10    10    11    1
    11     6    11    1
    12     9    12   ar
    13    12    13   ar
    14    13    14   ar
    15    14    15   ar
    16     8    15   ar
    17    14    16    1
    18     5    17   ar
    19    17    18   ar
    20    18    19   ar
    21     3    19   ar
    22    19    20    1
    23     2    21    1
    24     2    22    1
    25     2    23    1
    26     4    24    1
    27     6    25    1
    28    10    26    1
    29    10    27    1
    30    11    28    1
    31    11    29    1
    32    12    30    1
    33    13    31    1
    34    15    32    1
    35    16    33    1
    36    17    34    1
    37    18    35    1
    38    20    36    1
