REMARK  Name = NuBBE_291
REMARK  10 active torsions:
REMARK  status: ('A' for Active; 'I' for Inactive)
REMARK    1  A    between atoms: O_1  and  C_2
REMARK    2  A    between atoms: C_3  and  C_4
REMARK    3  A    between atoms: C_4  and  C_5
REMARK    4  A    between atoms: C_6  and  C_7
REMARK    5  A    between atoms: C_6  and  C_8
REMARK    6  A    between atoms: C_8  and  C_9
REMARK    7  A    between atoms: C_9  and  C_10
REMARK    8  A    between atoms: C_11  and  C_12
REMARK    9  A    between atoms: C_11  and  C_13
REMARK   10  A    between atoms: C_16  and  O_17
REMARK                            x       y       z     vdW  Elec       q    Type
REMARK                         _______ _______ _______ _____ _____    ______ ____
ROOT
ATOM      1  C   LIG A   1       1.449  -1.379  -0.789  0.00  0.00    +0.190 C 
ATOM      2  O   LIG A   1       1.793  -1.952  -1.815  0.00  0.00    -0.287 OA
ENDROOT
BRANCH   1   4
ATOM      3  C   LIG A   1       3.669  -0.245  -0.641  0.00  0.00    +0.128 A 
ATOM      4  C   LIG A   1       2.487  -0.654   0.004  0.00  0.00    +0.066 A 
ATOM      5  C   LIG A   1       2.327  -0.368   1.368  0.00  0.00    +0.060 A 
ATOM      6  C   LIG A   1       3.313   0.353   2.043  0.00  0.00    +0.118 A 
ATOM      7  C   LIG A   1       4.463   0.782   1.390  0.00  0.00    +0.049 A 
ATOM      8  C   LIG A   1       4.645   0.476   0.044  0.00  0.00    +0.050 A 
BRANCH   3   9
ATOM      9  O   LIG A   1       3.936  -0.516  -1.957  0.00  0.00    -0.506 OA
ATOM     10  H   LIG A   1       3.260  -1.157  -2.276  0.00  0.00    +0.292 HD
ENDBRANCH   3   9
BRANCH   6  11
ATOM     11  O   LIG A   1       3.190   0.664   3.365  0.00  0.00    -0.507 OA
ATOM     12  H   LIG A   1       2.360   0.299   3.712  0.00  0.00    +0.292 HD
ENDBRANCH   6  11
ENDBRANCH   1   4
BRANCH   1  13
ATOM     13  C   LIG A   1       0.024  -1.287  -0.353  0.00  0.00    +0.050 C 
ATOM     14  C   LIG A   1      -1.052  -1.801  -0.982  0.00  0.00    -0.069 C 
ATOM     15  C   LIG A   1      -1.031  -2.628  -2.238  0.00  0.00    +0.039 C 
BRANCH  14  16
ATOM     16  C   LIG A   1      -2.438  -1.516  -0.419  0.00  0.00    +0.034 C 
BRANCH  16  17
ATOM     17  C   LIG A   1      -3.090  -0.256  -1.005  0.00  0.00    +0.031 C 
BRANCH  17  18
ATOM     18  C   LIG A   1      -2.284   0.986  -0.725  0.00  0.00    -0.028 C 
ATOM     19  C   LIG A   1      -2.380   1.805   0.341  0.00  0.00    -0.080 C 
ATOM     20  C   LIG A   1      -3.354   1.636   1.472  0.00  0.00    +0.038 C 
ATOM     21  C   LIG A   1      -1.455   2.985   0.482  0.00  0.00    +0.038 C 
ENDBRANCH  17  18
ENDBRANCH  16  17
ENDBRANCH  14  16
ENDBRANCH   1  13
TORSDOF 7
