@<TRIPOS>MOLECULE
NuBBE_2309
 53 56 0 0 0
SMALL
GASTEIGER

@<TRIPOS>ATOM
      1 C          -0.7420    1.8584   -3.9741 C.ar    1  LIG1       -0.0159
      2 C           0.1251    2.9053   -3.7665 C.ar    1  LIG1        0.1662
      3 C           0.5916    3.1974   -2.5124 C.ar    1  LIG1        0.1665
      4 C           0.2336    2.4544   -1.4030 C.ar    1  LIG1       -0.0126
      5 C          -0.6167    1.3451   -1.5545 C.ar    1  LIG1       -0.0374
      6 C          -1.0313    0.4122   -0.3842 C.3     1  LIG1        0.0221
      7 H          -2.1205    0.5286   -0.3169 H       1  LIG1        0.0382
      8 C          -0.6194   -1.0731   -0.7269 C.3     1  LIG1       -0.0223
      9 H          -0.1985   -1.1400   -1.7369 H       1  LIG1        0.0314
     10 C           0.5339   -1.4468    0.2921 C.3     1  LIG1        0.0275
     11 C          -0.0389   -2.2185    1.4710 C.2     1  LIG1       -0.0345
     12 C          -0.8422   -1.5874    2.3632 C.2     1  LIG1        0.1253
     13 O          -1.3579   -2.3009    3.4294 O.2     1  LIG1       -0.4970
     14 C          -1.5724   -1.5309    4.6162 C.3     1  LIG1        0.0784
     15 C          -1.1599   -0.1178    2.1930 C.3     1  LIG1        0.1434
     16 H          -0.9101    0.3596    3.1454 H       1  LIG1        0.0705
     17 C          -0.3917    0.6416    1.0478 C.3     1  LIG1        0.1353
     18 C           0.9821   -0.0283    0.8133 C.3     1  LIG1        0.0972
     19 O           1.7978   -0.0693    1.9833 O.3     1  LIG1       -0.3879
     20 O          -0.4070    2.0403    1.3937 O.3     1  LIG1       -0.3703
     21 C           0.4405    2.4456    2.4666 C.3     1  LIG1        0.0374
     22 O          -2.5779    0.0541    2.0647 O.3     1  LIG1       -0.3811
     23 C           1.7450   -2.1768   -0.3458 C.3     1  LIG1       -0.0230
     24 C           1.4921   -3.5002   -1.0254 C.2     1  LIG1       -0.0902
     25 C           2.1205   -4.6523   -0.7277 C.2     1  LIG1       -0.1026
     26 C          -1.8705   -1.9751   -0.7273 C.3     1  LIG1       -0.0609
     27 C          -1.1156    1.0832   -2.8620 C.ar    1  LIG1       -0.0545
     28 O           1.4453    4.2575   -2.5057 O.3     1  LIG1       -0.4526
     29 C           1.5141    4.5545   -3.9146 C.3     1  LIG1        0.2332
     30 O           0.6283    3.7410   -4.7140 O.3     1  LIG1       -0.4526
     31 H          -1.1110    1.6321   -4.9686 H       1  LIG1        0.0655
     32 H           0.6479    2.7584   -0.4523 H       1  LIG1        0.0658
     33 H           0.1661   -3.2698    1.5898 H       1  LIG1        0.0612
     34 H          -1.9535   -2.1988    5.3948 H       1  LIG1        0.0660
     35 H          -2.3252   -0.7529    4.4654 H       1  LIG1        0.0660
     36 H          -0.6319   -1.0956    4.9681 H       1  LIG1        0.0660
     37 H           1.5603    0.5123    0.0574 H       1  LIG1        0.0632
     38 H           2.6641   -0.4295    1.7279 H       1  LIG1        0.2099
     39 H           0.0739    3.4086    2.8337 H       1  LIG1        0.0524
     40 H           1.4652    2.5808    2.1126 H       1  LIG1        0.0524
     41 H           0.4375    1.7577    3.3151 H       1  LIG1        0.0524
     42 H          -2.7480    0.9982    2.2339 H       1  LIG1        0.2105
     43 H           2.1764   -1.5184   -1.1130 H       1  LIG1        0.0317
     44 H           2.5312   -2.3028    0.4104 H       1  LIG1        0.0317
     45 H           0.8030   -3.5050   -1.8659 H       1  LIG1        0.0567
     46 H           2.8444   -4.7346    0.0766 H       1  LIG1        0.0532
     47 H           1.9270   -5.5513   -1.3066 H       1  LIG1        0.0532
     48 H          -2.4889   -1.8397    0.1666 H       1  LIG1        0.0233
     49 H          -1.6145   -3.0356   -0.8028 H       1  LIG1        0.0233
     50 H          -2.5141   -1.7242   -1.5775 H       1  LIG1        0.0233
     51 H          -1.7947    0.2481   -3.0295 H       1  LIG1        0.0622
     52 H           2.5447    4.3905   -4.2534 H       1  LIG1        0.1166
     53 H           1.2623    5.6104   -4.0647 H       1  LIG1        0.1166
@<TRIPOS>BOND
     1     1     2   ar
     2     2     3   ar
     3     3     4   ar
     4     4     5   ar
     5     6     8    1
     6     8    10    1
     7    10    11    1
     8    11    12    2
     9    13    14    1
    10    12    15    1
    11    15    17    1
    12     6    17    1
    13    17    18    1
    14    10    18    1
    15    20    21    1
    16    23    24    1
    17    24    25    2
    18     5    27   ar
    19     1    27   ar
    20     3    28    1
    21    28    29    1
    22    29    30    1
    23     2    30    1
    24    10    23    1
    25    12    13    1
    26    15    16    1
    27    15    22    1
    28    17    20    1
    29    18    19    1
    30     8    26    1
    31     8     9    1
    32     6     7    1
    33     6     5    1
    34     1    31    1
    35     4    32    1
    36    11    33    1
    37    14    34    1
    38    14    35    1
    39    14    36    1
    40    18    37    1
    41    19    38    1
    42    21    39    1
    43    21    40    1
    44    21    41    1
    45    22    42    1
    46    23    43    1
    47    23    44    1
    48    24    45    1
    49    25    46    1
    50    25    47    1
    51    26    48    1
    52    26    49    1
    53    26    50    1
    54    27    51    1
    55    29    52    1
    56    29    53    1
