@<TRIPOS>MOLECULE
NuBBE_855
 45 47 0 0 0
SMALL
GASTEIGER

@<TRIPOS>ATOM
      1 O          -1.3216    2.8541   -0.6487 O.2     1  LIG1       -0.2895
      2 C          -0.3149    2.5215   -0.0140 C.2     1  LIG1        0.1910
      3 C           0.6578    3.5524    0.5938 C.3     1  LIG1        0.1232
      4 O           0.7917    4.6396   -0.3327 O.3     1  LIG1       -0.3718
      5 C           1.5274    5.7465    0.1658 C.3     1  LIG1        0.0374
      6 C           2.0222    2.9356    0.8938 C.3     1  LIG1        0.0139
      7 C           1.8899    1.6388    1.6700 C.3     1  LIG1        0.1152
      8 O           1.3584    1.9035    2.9624 O.3     1  LIG1       -0.3840
      9 C          -0.0434    1.0629    0.1805 C.2     1  LIG1        0.0380
     10 C           0.9845    0.6716    0.9659 C.2     1  LIG1        0.1334
     11 O           1.3589   -0.6596    1.1366 O.2     1  LIG1       -0.4869
     12 C           0.8517   -1.5266    0.1140 C.3     1  LIG1        0.1112
     13 C           1.7007   -1.3465   -1.1632 C.3     1  LIG1       -0.0247
     14 C          -0.6612   -1.3186   -0.0255 C.3     1  LIG1        0.0093
     15 C          -0.9536    0.0876   -0.5289 C.3     1  LIG1       -0.0140
     16 H          -1.1141   -1.3866    0.9787 H       1  LIG1        0.0348
     17 C          -1.1216   -2.5306   -0.8459 C.3     1  LIG1       -0.0135
     18 H          -0.8568   -2.3736   -1.9011 H       1  LIG1        0.0349
     19 C          -2.6189   -2.7776   -0.7982 C.2     1  LIG1       -0.0762
     20 C          -3.4262   -2.0957   -1.8747 C.3     1  LIG1       -0.0438
     21 C          -3.2345   -3.5598    0.1048 C.2     1  LIG1       -0.0994
     22 C          -0.1921   -3.6691   -0.3281 C.3     1  LIG1       -0.0425
     23 C           0.8833   -2.9947    0.5422 C.3     1  LIG1       -0.0123
     24 H           0.1846    3.9213    1.5132 H       1  LIG1        0.0680
     25 H           1.3513    6.5998   -0.4948 H       1  LIG1        0.0524
     26 H           2.5988    5.5260    0.1470 H       1  LIG1        0.0524
     27 H           1.2121    6.0143    1.1783 H       1  LIG1        0.0524
     28 H           2.6225    3.6446    1.4765 H       1  LIG1        0.0324
     29 H           2.5652    2.7633   -0.0448 H       1  LIG1        0.0324
     30 H           2.8883    1.2043    1.7995 H       1  LIG1        0.0675
     31 H           1.2347    1.0361    3.3904 H       1  LIG1        0.2104
     32 H           1.6293   -0.3342   -1.5732 H       1  LIG1        0.0268
     33 H           1.4274   -2.0449   -1.9592 H       1  LIG1        0.0268
     34 H           2.7610   -1.5009   -0.9300 H       1  LIG1        0.0268
     35 H          -2.0025    0.3345   -0.3272 H       1  LIG1        0.0319
     36 H          -0.7979    0.1598   -1.6113 H       1  LIG1        0.0319
     37 H          -4.4835   -2.3800   -1.8403 H       1  LIG1        0.0274
     38 H          -3.0474   -2.3671   -2.8655 H       1  LIG1        0.0274
     39 H          -3.3733   -1.0089   -1.7671 H       1  LIG1        0.0274
     40 H          -4.3103   -3.7123    0.0799 H       1  LIG1        0.0534
     41 H          -2.7045   -4.0636    0.9053 H       1  LIG1        0.0534
     42 H           0.2793   -4.1651   -1.1856 H       1  LIG1        0.0272
     43 H          -0.6952   -4.4534    0.2423 H       1  LIG1        0.0272
     44 H           1.8671   -3.4587    0.4144 H       1  LIG1        0.0304
     45 H           0.6257   -3.0902    1.6048 H       1  LIG1        0.0304
@<TRIPOS>BOND
     1     1     2    2
     2     2     3    1
     3     3     4    1
     4     4     5    1
     5     3     6    1
     6     6     7    1
     7     7     8    1
     8     2     9    1
     9     9    10    2
    10     7    10    1
    11    10    11    1
    12    11    12    1
    13    12    13    1
    14    12    14    1
    15    14    15    1
    16     9    15    1
    17    14    16    1
    18    14    17    1
    19    19    20    1
    20    19    21    2
    21    17    22    1
    22    22    23    1
    23    12    23    1
    24    17    19    1
    25    17    18    1
    26     3    24    1
    27     5    25    1
    28     5    26    1
    29     5    27    1
    30     6    28    1
    31     6    29    1
    32     7    30    1
    33     8    31    1
    34    13    32    1
    35    13    33    1
    36    13    34    1
    37    15    35    1
    38    15    36    1
    39    20    37    1
    40    20    38    1
    41    20    39    1
    42    21    40    1
    43    21    41    1
    44    22    42    1
    45    22    43    1
    46    23    44    1
    47    23    45    1
