REMARK  Name = NuBBE_2445
REMARK  6 active torsions:
REMARK  status: ('A' for Active; 'I' for Inactive)
REMARK    1  A    between atoms: O_1  and  C_2
REMARK    2  A    between atoms: O_1  and  C_3
REMARK    3  A    between atoms: C_6  and  O_7
REMARK    4  A    between atoms: O_7  and  C_8
REMARK    5  A    between atoms: C_13  and  C_17
REMARK    6  A    between atoms: C_15  and  O_16
REMARK                            x       y       z     vdW  Elec       q    Type
REMARK                         _______ _______ _______ _____ _____    ______ ____
ROOT
ATOM      1  C   LIG A   1      -1.703  -0.984  -0.310  0.00  0.00    +0.205 A 
ATOM      2  C   LIG A   1      -1.003   0.235  -0.203  0.00  0.00    +0.188 A 
ATOM      3  C   LIG A   1       0.397   0.327  -0.107  0.00  0.00    +0.066 A 
ATOM      4  C   LIG A   1       0.973   1.670   0.127  0.00  0.00    +0.138 A 
ATOM      5  C   LIG A   1       0.184   2.751   0.063  0.00  0.00    +0.138 A 
ATOM      6  C   LIG A   1      -1.255   2.674  -0.191  0.00  0.00    +0.341 A 
ATOM      7  O   LIG A   1      -1.922   3.691  -0.312  0.00  0.00    -0.245 OA
ATOM      8  O   LIG A   1      -1.802   1.409  -0.225  0.00  0.00    -0.418 OA
ATOM      9  C   LIG A   1       1.133  -0.875  -0.204  0.00  0.00    -0.033 A 
ATOM     10  C   LIG A   1       0.444  -2.101  -0.307  0.00  0.00    +0.053 A 
ATOM     11  C   LIG A   1      -0.953  -2.158  -0.346  0.00  0.00    +0.163 A 
ATOM     12  C   LIG A   1       2.639  -0.932  -0.202  0.00  0.00    +0.045 C 
ENDROOT
BRANCH   1  13
ATOM     13  O   LIG A   1      -3.065  -0.856  -0.358  0.00  0.00    -0.488 OA
ATOM     14  C   LIG A   1      -3.863  -2.026  -0.430  0.00  0.00    +0.277 C 
ENDBRANCH   1  13
BRANCH   4  15
ATOM     15  O   LIG A   1       2.311   1.698   0.452  0.00  0.00    -0.494 OA
ATOM     16  C   LIG A   1       2.779   2.800   1.223  0.00  0.00    +0.277 C 
ENDBRANCH   4  15
BRANCH  11  17
ATOM     17  O   LIG A   1      -1.544  -3.388  -0.430  0.00  0.00    -0.503 OA
ATOM     18  H   LIG A   1      -0.862  -4.078  -0.399  0.00  0.00    +0.292 HD
ENDBRANCH  11  17
TORSDOF 3
