REMARK  Name = NuBBE_924
REMARK  10 active torsions:
REMARK  status: ('A' for Active; 'I' for Inactive)
REMARK    1  A    between atoms: C_1  and  C_2
REMARK    2  A    between atoms: C_5  and  C_6
REMARK    3  A    between atoms: C_13  and  C_14
REMARK    4  A    between atoms: C_13  and  C_23
REMARK    5  A    between atoms: C_14  and  C_15
REMARK    6  A    between atoms: C_25  and  O_27
REMARK    7  A    between atoms: O_27  and  C_28
REMARK    8  A    between atoms: C_28  and  C_29
REMARK    9  A    between atoms: C_36  and  C_44
REMARK   10  A    between atoms: C_39  and  O_41
REMARK                            x       y       z     vdW  Elec       q    Type
REMARK                         _______ _______ _______ _____ _____    ______ ____
ROOT
ATOM      1  C   LIG A   1      -0.854   3.131   0.159  0.00  0.00    +0.020 C 
ATOM      2  C   LIG A   1      -1.257   1.808   0.854  0.00  0.00    +0.039 C 
ATOM      3  C   LIG A   1      -1.202   0.550  -0.190  0.00  0.00    +0.053 C 
ATOM      4  C   LIG A   1      -0.840  -0.782   0.533  0.00  0.00    +0.016 C 
ATOM      5  C   LIG A   1      -2.046  -1.172   1.462  0.00  0.00    +0.015 C 
ATOM      6  C   LIG A   1       0.504  -0.632   1.271  0.00  0.00    +0.183 C 
ATOM      7  O   LIG A   1       0.671  -1.715   2.193  0.00  0.00    -0.461 OA
ATOM      8  C   LIG A   1       0.635  -2.977   1.696  0.00  0.00    +0.308 C 
ATOM      9  C   LIG A   1      -0.196  -3.236   0.446  0.00  0.00    +0.126 C 
ATOM     10  C   LIG A   1      -0.633  -2.023  -0.406  0.00  0.00    +0.023 C 
ATOM     11  C   LIG A   1       0.201  -1.822  -1.723  0.00  0.00    +0.034 C 
ATOM     12  C   LIG A   1      -0.224  -2.897  -2.761  0.00  0.00    +0.019 C 
ATOM     13  C   LIG A   1      -0.219  -0.476  -2.366  0.00  0.00    +0.059 C 
ATOM     14  C   LIG A   1      -0.303   0.760  -1.456  0.00  0.00    +0.182 C 
ATOM     15  O   LIG A   1       1.169  -3.907   2.293  0.00  0.00    -0.251 OA
ATOM     16  C   LIG A   1       0.807   0.726   1.923  0.00  0.00    +0.050 C 
ATOM     17  C   LIG A   1      -0.454   1.530   2.180  0.00  0.00    +0.009 C 
ATOM     18  C   LIG A   1      -0.309   2.809   3.042  0.00  0.00    -0.007 C 
ATOM     19  C   LIG A   1      -1.721   3.182   3.543  0.00  0.00    +0.042 C 
ATOM     20  C   LIG A   1      -2.818   3.195   2.471  0.00  0.00    +0.181 C 
ATOM     21  C   LIG A   1      -2.680   2.080   1.400  0.00  0.00    +0.168 C 
ATOM     22  O   LIG A   1      -3.676   1.460   1.022  0.00  0.00    -0.294 OA
ATOM     23  C   LIG A   1       0.636   2.656   4.235  0.00  0.00    +0.008 C 
ENDROOT
BRANCH  11  24
ATOM     24  C   LIG A   1       1.769  -1.872  -1.591  0.00  0.00    +0.146 C 
ATOM     25  O   LIG A   1       2.399  -0.839  -1.353  0.00  0.00    -0.296 OA
BRANCH  24  26
ATOM     26  C   LIG A   1       2.531  -3.192  -1.772  0.00  0.00    +0.104 C 
ATOM     27  C   LIG A   1       2.935  -3.400  -3.218  0.00  0.00    +0.243 C 
ATOM     28  O   LIG A   1       4.135  -4.158  -3.206  0.00  0.00    -0.464 OA
ATOM     29  C   LIG A   1       4.721  -4.085  -1.969  0.00  0.00    +0.308 C 
ATOM     30  C   LIG A   1       3.865  -3.241  -1.055  0.00  0.00    +0.135 C 
ATOM     31  O   LIG A   1       5.784  -4.609  -1.667  0.00  0.00    -0.251 OA
ENDBRANCH  24  26
ENDBRANCH  11  24
BRANCH  20  32
ATOM     32  O   LIG A   1      -4.075   3.109   3.142  0.00  0.00    -0.384 OA
ATOM     33  H   LIG A   1      -4.520   2.306   2.804  0.00  0.00    +0.210 HD
ENDBRANCH  20  32
BRANCH  14  34
ATOM     34  O   LIG A   1      -0.934   1.803  -2.250  0.00  0.00    -0.461 OA
BRANCH  34  35
ATOM     35  C   LIG A   1      -0.166   2.490  -3.137  0.00  0.00    +0.304 C 
ATOM     36  C   LIG A   1      -0.914   3.679  -3.664  0.00  0.00    +0.136 C 
ATOM     37  O   LIG A   1       0.980   2.199  -3.457  0.00  0.00    -0.251 OA
ENDBRANCH  34  35
ENDBRANCH  14  34
TORSDOF 5
