REMARK  Name = NuBBE_71
REMARK  9 active torsions:
REMARK  status: ('A' for Active; 'I' for Inactive)
REMARK    1  A    between atoms: O_1  and  C_2
REMARK    2  A    between atoms: C_6  and  C_35
REMARK    3  A    between atoms: C_8  and  C_9
REMARK    4  A    between atoms: C_8  and  C_10
REMARK    5  A    between atoms: C_14  and  C_34
REMARK    6  A    between atoms: C_20  and  C_33
REMARK    7  A    between atoms: C_23  and  C_32
REMARK    8  A    between atoms: C_27  and  C_28
REMARK    9  A    between atoms: C_27  and  C_31
REMARK                            x       y       z     vdW  Elec       q    Type
REMARK                         _______ _______ _______ _____ _____    ______ ____
ROOT
ATOM      1  C   LIG A   1      -2.968  -1.952   2.868  0.00  0.00    +0.120 C 
ATOM      2  C   LIG A   1      -2.509  -2.810   1.694  0.00  0.00    +0.032 C 
ATOM      3  C   LIG A   1      -1.411  -2.157   0.857  0.00  0.00    +0.010 C 
ATOM      4  C   LIG A   1      -0.148  -1.687   1.683  0.00  0.00    -0.025 C 
ATOM      5  C   LIG A   1      -0.794  -0.600   2.633  0.00  0.00    +0.003 C 
ATOM      6  C   LIG A   1      -1.823  -1.242   3.700  0.00  0.00    -0.006 C 
ATOM      7  C   LIG A   1      -2.552  -0.244   4.638  0.00  0.00    +0.014 C 
ATOM      8  C   LIG A   1      -1.145  -2.230   4.689  0.00  0.00    +0.014 C 
ATOM      9  C   LIG A   1       0.213   0.485   3.028  0.00  0.00    +0.005 C 
ATOM     10  C   LIG A   1       0.862   1.149   1.737  0.00  0.00    +0.008 C 
ATOM     11  C   LIG A   1       1.869   0.236   0.973  0.00  0.00    -0.019 C 
ATOM     12  C   LIG A   1       1.135  -1.224   0.785  0.00  0.00    +0.006 C 
ATOM     13  C   LIG A   1       0.856  -1.756  -0.645  0.00  0.00    +0.031 C 
ATOM     14  C   LIG A   1       1.733  -1.163  -1.699  0.00  0.00    -0.026 C 
ATOM     15  C   LIG A   1       1.675   0.144  -1.561  0.00  0.00    -0.063 C 
ATOM     16  C   LIG A   1       2.551   0.771  -0.492  0.00  0.00    -0.005 C 
ATOM     17  C   LIG A   1       2.793   2.293  -0.819  0.00  0.00    +0.012 C 
ATOM     18  C   LIG A   1       2.365   2.720  -2.271  0.00  0.00    +0.008 C 
ATOM     19  C   LIG A   1       0.861   2.441  -2.504  0.00  0.00    -0.025 C 
ATOM     20  C   LIG A   1       0.669   0.925  -2.388  0.00  0.00    +0.022 C 
ATOM     21  C   LIG A   1      -0.844   0.599  -2.338  0.00  0.00    +0.014 C 
ATOM     22  C   LIG A   1      -1.445   0.766  -3.748  0.00  0.00    -0.034 C 
ATOM     23  C   LIG A   1      -2.992   0.694  -3.692  0.00  0.00    +0.011 C 
ATOM     24  C   LIG A   1      -1.011   2.140  -4.355  0.00  0.00    +0.007 C 
ATOM     25  C   LIG A   1       0.357   2.779  -3.942  0.00  0.00    +0.008 C 
ATOM     26  C   LIG A   1      -1.019  -0.480  -4.577  0.00  0.00    +0.011 C 
ATOM     27  C   LIG A   1       0.093   3.303  -1.480  0.00  0.00    +0.012 C 
ATOM     28  C   LIG A   1       4.013   0.178  -0.674  0.00  0.00    +0.016 C 
ATOM     29  C   LIG A   1       3.069   0.097   1.978  0.00  0.00    +0.012 C 
ATOM     30  C   LIG A   1       0.421  -2.974   2.342  0.00  0.00    +0.012 C 
ENDROOT
BRANCH   1  31
ATOM     31  O   LIG A   1      -3.833  -0.968   2.276  0.00  0.00    -0.391 OA
ATOM     32  H   LIG A   1      -4.500  -0.722   2.938  0.00  0.00    +0.210 HD
ENDBRANCH   1  31
TORSDOF 1
