REMARK  Name = NuBBE_1030
REMARK  10 active torsions:
REMARK  status: ('A' for Active; 'I' for Inactive)
REMARK    1  A    between atoms: O_1  and  C_2
REMARK    2  A    between atoms: C_5  and  C_8
REMARK    3  A    between atoms: C_10  and  O_12
REMARK    4  A    between atoms: O_12  and  C_13
REMARK    5  A    between atoms: C_15  and  O_17
REMARK    6  A    between atoms: C_18  and  O_20
REMARK    7  A    between atoms: C_21  and  O_23
REMARK    8  A    between atoms: C_24  and  C_26
REMARK    9  A    between atoms: C_30  and  O_31
REMARK   10  A    between atoms: C_33  and  O_34
REMARK                            x       y       z     vdW  Elec       q    Type
REMARK                         _______ _______ _______ _____ _____    ______ ____
ROOT
ATOM      1  C   LIG A   1      -0.476   2.078  -0.089  0.00  0.00    +0.233 C 
ATOM      2  C   LIG A   1      -0.157   0.600   0.245  0.00  0.00    +0.171 C 
ATOM      3  C   LIG A   1      -0.417   0.355   1.729  0.00  0.00    +0.078 C 
ATOM      4  C   LIG A   1      -1.714   0.930   2.192  0.00  0.00    +0.038 A 
ATOM      5  C   LIG A   1      -2.360   0.456   3.343  0.00  0.00    +0.127 A 
ATOM      6  C   LIG A   1      -3.582   0.980   3.754  0.00  0.00    +0.091 A 
ATOM      7  C   LIG A   1      -4.158   2.007   3.024  0.00  0.00    +0.124 A 
ATOM      8  C   LIG A   1      -3.521   2.515   1.891  0.00  0.00    +0.091 A 
ATOM      9  C   LIG A   1      -2.301   1.975   1.475  0.00  0.00    +0.132 A 
ATOM     10  O   LIG A   1      -1.782   2.509   0.333  0.00  0.00    -0.481 OA
ENDROOT
BRANCH   1  14
ATOM     11  C   LIG A   1      -0.401   2.876  -4.347  0.00  0.00    +0.117 A 
ATOM     12  C   LIG A   1      -1.301   1.949  -3.839  0.00  0.00    +0.046 A 
ATOM     13  C   LIG A   1      -1.319   1.694  -2.466  0.00  0.00    +0.011 A 
ATOM     14  C   LIG A   1      -0.431   2.349  -1.592  0.00  0.00    -0.005 A 
ATOM     15  C   LIG A   1       0.466   3.284  -2.132  0.00  0.00    +0.011 A 
ATOM     16  C   LIG A   1       0.481   3.545  -3.506  0.00  0.00    +0.046 A 
BRANCH  11  17
ATOM     17  O   LIG A   1      -0.358   3.166  -5.679  0.00  0.00    -0.507 OA
ATOM     18  H   LIG A   1      -1.060   2.664  -6.125  0.00  0.00    +0.292 HD
ENDBRANCH  11  17
ENDBRANCH   1  14
BRANCH   5  19
ATOM     19  O   LIG A   1      -1.859  -0.547   4.126  0.00  0.00    -0.506 OA
ATOM     20  H   LIG A   1      -0.965  -0.786   3.839  0.00  0.00    +0.292 HD
ENDBRANCH   5  19
BRANCH   7  21
ATOM     21  O   LIG A   1      -5.356   2.548   3.385  0.00  0.00    -0.506 OA
ATOM     22  H   LIG A   1      -5.688   2.064   4.160  0.00  0.00    +0.292 HD
ENDBRANCH   7  21
BRANCH   2  23
ATOM     23  O   LIG A   1       1.220   0.292  -0.064  0.00  0.00    -0.341 OA
BRANCH  23  24
ATOM     24  C   LIG A   1       1.567  -1.094   0.153  0.00  0.00    +0.282 C 
ATOM     25  C   LIG A   1       3.013  -1.278  -0.342  0.00  0.00    +0.201 C 
ATOM     26  C   LIG A   1       3.432  -2.749  -0.291  0.00  0.00    +0.179 C 
ATOM     27  C   LIG A   1       2.384  -3.643  -0.956  0.00  0.00    +0.174 C 
ATOM     28  C   LIG A   1       0.962  -3.350  -0.435  0.00  0.00    +0.149 C 
ATOM     29  C   LIG A   1       0.680  -3.918   0.956  0.00  0.00    +0.040 C 
ATOM     30  O   LIG A   1       0.646  -1.952  -0.503  0.00  0.00    -0.343 OA
BRANCH  25  31
ATOM     31  O   LIG A   1       3.924  -0.522   0.484  0.00  0.00    -0.384 OA
ATOM     32  H   LIG A   1       3.575   0.392   0.475  0.00  0.00    +0.210 HD
ENDBRANCH  25  31
BRANCH  26  33
ATOM     33  O   LIG A   1       3.654  -3.150   1.067  0.00  0.00    -0.386 OA
ATOM     34  H   LIG A   1       4.217  -2.444   1.447  0.00  0.00    +0.210 HD
ENDBRANCH  26  33
BRANCH  27  35
ATOM     35  O   LIG A   1       2.401  -3.407  -2.372  0.00  0.00    -0.387 OA
ATOM     36  H   LIG A   1       3.232  -3.769  -2.725  0.00  0.00    +0.210 HD
ENDBRANCH  27  35
ENDBRANCH  23  24
ENDBRANCH   2  23
TORSDOF 9
