@<TRIPOS>MOLECULE
NuBBE_1673
 46 48 0 0 0
SMALL
GASTEIGER

@<TRIPOS>ATOM
      1 O          -2.9959    1.0461    1.0355 O.3     1  LIG1       -0.4914
      2 C          -3.5971   -0.2415    1.0178 C.3     1  LIG1        0.0790
      3 C          -1.6363    1.0979    1.1474 C.ar    1  LIG1        0.1624
      4 C          -0.7422    0.0440    1.2487 C.ar    1  LIG1        0.1664
      5 C           0.6282    0.2630    1.3166 C.ar    1  LIG1        0.0052
      6 C           1.3508   -1.0389    1.3898 C.3     1  LIG1        0.0262
      7 H           2.1205   -1.1103    0.6131 H       1  LIG1        0.0387
      8 C           0.1743   -2.0185    1.1403 C.3     1  LIG1        0.1321
      9 H           0.1690   -2.7938    1.9172 H       1  LIG1        0.0790
     10 O          -1.0713   -1.2882    1.2804 O.3     1  LIG1       -0.4797
     11 C           0.1684   -2.7173   -0.2161 C.ar    1  LIG1       -0.0031
     12 C           0.1325   -1.9800   -1.4156 C.ar    1  LIG1       -0.0096
     13 C           0.1080   -2.6222   -2.6564 C.ar    1  LIG1        0.1616
     14 O           0.0637   -2.0051   -3.8809 O.3     1  LIG1       -0.4914
     15 C           0.0553   -0.5812   -3.8650 C.3     1  LIG1        0.0790
     16 C           0.1237   -4.0189   -2.6939 C.ar    1  LIG1        0.1585
     17 C           0.1409   -4.7719   -1.5285 C.ar    1  LIG1       -0.0161
     18 C           0.1556   -4.1220   -0.2916 C.ar    1  LIG1       -0.0514
     19 O           0.1227   -4.6786   -3.8932 O.3     1  LIG1       -0.5033
     20 C           1.9864   -1.2521    2.7620 C.3     1  LIG1       -0.0546
     21 C           1.1527    1.5513    1.3048 C.ar    1  LIG1       -0.0473
     22 C           0.2779    2.6430    1.1952 C.ar    1  LIG1       -0.0214
     23 C          -1.1078    2.3989    1.1300 C.ar    1  LIG1       -0.0091
     24 C           0.8340    4.0087    1.1925 C.2     1  LIG1       -0.0587
     25 C           0.2700    5.0544    0.5757 C.2     1  LIG1       -0.0865
     26 C           0.8466    6.4354    0.5567 C.3     1  LIG1       -0.0465
     27 H          -4.6669   -0.1058    0.8329 H       1  LIG1        0.0660
     28 H          -3.4883   -0.7326    1.9900 H       1  LIG1        0.0660
     29 H          -3.2085   -0.8588    0.2015 H       1  LIG1        0.0660
     30 H           0.1072   -0.8974   -1.3541 H       1  LIG1        0.0659
     31 H          -0.0594   -0.2341   -4.8958 H       1  LIG1        0.0660
     32 H           1.0058   -0.1949   -3.4822 H       1  LIG1        0.0660
     33 H          -0.7918   -0.1910   -3.2907 H       1  LIG1        0.0660
     34 H           0.1392   -5.8568   -1.5853 H       1  LIG1        0.0655
     35 H           0.1482   -4.7277    0.6122 H       1  LIG1        0.0623
     36 H           0.1211   -3.9725   -4.5686 H       1  LIG1        0.2923
     37 H           2.7786   -0.5186    2.9482 H       1  LIG1        0.0237
     38 H           2.4302   -2.2509    2.8279 H       1  LIG1        0.0237
     39 H           1.2522   -1.1544    3.5706 H       1  LIG1        0.0237
     40 H           2.2274    1.7036    1.3649 H       1  LIG1        0.0627
     41 H          -1.8062    3.2298    1.0664 H       1  LIG1        0.0661
     42 H           1.7801    4.1373    1.7202 H       1  LIG1        0.0620
     43 H          -0.6621    4.9399    0.0249 H       1  LIG1        0.0569
     44 H           1.7829    6.5017    1.1200 H       1  LIG1        0.0272
     45 H           0.1345    7.1435    0.9903 H       1  LIG1        0.0272
     46 H           1.0456    6.7375   -0.4756 H       1  LIG1        0.0272
@<TRIPOS>BOND
     1     1     2    1
     2     1     3    1
     3     3     4   ar
     4     4     5   ar
     5     5     6    1
     6     6     7    1
     7     6     8    1
     8     8    10    1
     9     4    10    1
    10    11    12   ar
    11    12    13   ar
    12    13    14    1
    13    14    15    1
    14    13    16   ar
    15    16    17   ar
    16    17    18   ar
    17    11    18   ar
    18    16    19    1
    19     6    20    1
    20     5    21   ar
    21    21    22   ar
    22    22    23   ar
    23     3    23   ar
    24    22    24    1
    25    24    25    2
    26    25    26    1
    27     8    11    1
    28     8     9    1
    29     2    27    1
    30     2    28    1
    31     2    29    1
    32    12    30    1
    33    15    31    1
    34    15    32    1
    35    15    33    1
    36    17    34    1
    37    18    35    1
    38    19    36    1
    39    20    37    1
    40    20    38    1
    41    20    39    1
    42    21    40    1
    43    23    41    1
    44    24    42    1
    45    25    43    1
    46    26    44    1
    47    26    45    1
    48    26    46    1
