@<TRIPOS>MOLECULE
NuBBE_1014
 28 29 0 0 0
SMALL
GASTEIGER

@<TRIPOS>ATOM
      1 C          -3.7825   -0.8668   -0.3245 C.3     1  LIG1       -0.0062
      2 C          -2.2930   -0.9865   -0.2459 C.ar    1  LIG1        0.1064
      3 C          -1.6698   -2.1629   -0.1177 C.ar    1  LIG1        0.0236
      4 C          -0.2007   -2.2066   -0.0453 C.ar    1  LIG1        0.1931
      5 C           0.5164   -0.9098   -0.1175 C.ar    1  LIG1        0.0707
      6 C           1.9265   -0.8127   -0.0631 C.ar    1  LIG1       -0.0324
      7 C           2.5255    0.4588   -0.1388 C.ar    1  LIG1       -0.0127
      8 C           1.7414    1.6034   -0.2613 C.ar    1  LIG1        0.1625
      9 C           0.3509    1.5032   -0.3004 C.ar    1  LIG1        0.2046
     10 O          -0.4031    2.6379   -0.4743 O.3     1  LIG1       -0.4885
     11 C          -0.8315    3.1406    0.7904 C.3     1  LIG1        0.0791
     12 C          -0.2637    0.2473   -0.2441 C.ar    1  LIG1        0.1840
     13 O          -1.6366    0.2253   -0.3179 O.2     1  LIG1       -0.4559
     14 O           2.3267    2.8367   -0.3311 O.3     1  LIG1       -0.5032
     15 C           2.8218   -2.0156    0.0689 C.3     1  LIG1       -0.0388
     16 O           0.3588   -3.2889    0.0751 O.2     1  LIG1       -0.2870
     17 H          -4.2788   -1.8406   -0.2606 H       1  LIG1        0.0308
     18 H          -4.0746   -0.4008   -1.2710 H       1  LIG1        0.0308
     19 H          -4.1547   -0.2448    0.4961 H       1  LIG1        0.0308
     20 H          -2.1907   -3.1101   -0.0623 H       1  LIG1        0.0689
     21 H           3.6087    0.5443   -0.0995 H       1  LIG1        0.0658
     22 H          -1.2141    4.1539    0.6360 H       1  LIG1        0.0660
     23 H          -0.0104    3.1958    1.5142 H       1  LIG1        0.0660
     24 H          -1.6468    2.5287    1.1904 H       1  LIG1        0.0660
     25 H           3.2887    2.7314   -0.4040 H       1  LIG1        0.2923
     26 H           2.6883   -2.6886   -0.7838 H       1  LIG1        0.0278
     27 H           2.6184   -2.5441    1.0055 H       1  LIG1        0.0278
     28 H           3.8790   -1.7285    0.0867 H       1  LIG1        0.0278
@<TRIPOS>BOND
     1     1     2    1
     2     2     3   ar
     3     3     4   ar
     4     4     5   ar
     5     5     6   ar
     6     6     7   ar
     7     7     8   ar
     8     8     9   ar
     9     9    10    1
    10    10    11    1
    11     9    12   ar
    12     5    12   ar
    13    12    13   ar
    14     2    13   ar
    15     8    14    1
    16     6    15    1
    17     4    16    2
    18     1    17    1
    19     1    18    1
    20     1    19    1
    21     3    20    1
    22     7    21    1
    23    11    22    1
    24    11    23    1
    25    11    24    1
    26    14    25    1
    27    15    26    1
    28    15    27    1
    29    15    28    1
