@<TRIPOS>MOLECULE
NuBBE_123
 53 56 0 0 0
SMALL
GASTEIGER

@<TRIPOS>ATOM
      1 O          -0.4649   -0.7492   -2.2225 O.2     1  LIG1       -0.2830
      2 C           0.3269   -0.7834   -1.3013 C.ar    1  LIG1        0.2382
      3 C           0.8896   -2.0687   -0.9383 C.ar    1  LIG1        0.1092
      4 C           0.2205   -3.2632   -1.2056 C.ar    1  LIG1        0.1348
      5 O          -1.0427   -3.3106   -1.7286 O.3     1  LIG1       -0.5058
      6 C           0.8419   -4.4742   -0.9304 C.ar    1  LIG1        0.0223
      7 C           2.1417   -4.4639   -0.4280 C.ar    1  LIG1        0.1239
      8 O           2.8094   -5.6302   -0.1941 O.3     1  LIG1       -0.5065
      9 C           2.8049   -3.2679   -0.1454 C.ar    1  LIG1        0.0231
     10 C           2.1542   -2.0600   -0.3736 C.ar    1  LIG1        0.1465
     11 O           2.7831   -0.8884   -0.0412 O.2     1  LIG1       -0.4507
     12 C           2.0100    0.2803    0.0493 C.ar    1  LIG1        0.1810
     13 C           2.7078    1.3514    0.8171 C.ar    1  LIG1        0.0247
     14 C           4.1203    1.3893    0.8455 C.ar    1  LIG1       -0.0473
     15 C           4.8184    2.3429    1.6001 C.ar    1  LIG1       -0.0159
     16 C           4.1023    3.2804    2.3273 C.ar    1  LIG1        0.1583
     17 O           4.7171    4.2233    3.1019 O.3     1  LIG1       -0.5033
     18 C           2.7131    3.2725    2.2949 C.ar    1  LIG1        0.1589
     19 O           2.0095    4.2190    2.9850 O.3     1  LIG1       -0.5033
     20 C           2.0163    2.3098    1.5728 C.ar    1  LIG1       -0.0057
     21 C           0.7882    0.4022   -0.5220 C.ar    1  LIG1        0.2138
     22 O           0.0112    1.5505   -0.4716 O.3     1  LIG1       -0.4532
     23 C          -1.4253    1.3630   -0.3949 C.3     1  LIG1        0.2311
     24 H          -1.7766    2.2019    0.2225 H       1  LIG1        0.1084
     25 C          -2.0744    1.4779   -1.8066 C.3     1  LIG1        0.1454
     26 H          -1.3486    1.2302   -2.5819 H       1  LIG1        0.0683
     27 O          -2.4080    2.8519   -2.1016 O.3     1  LIG1       -0.3829
     28 C          -3.3378    0.5949   -1.9459 C.3     1  LIG1        0.1152
     29 H          -3.9971    1.0565   -2.6907 H       1  LIG1        0.0648
     30 O          -3.0801   -0.7278   -2.4187 O.3     1  LIG1       -0.3864
     31 C          -4.0928    0.5034   -0.6170 C.3     1  LIG1        0.1120
     32 H          -4.9417   -0.1861   -0.7022 H       1  LIG1        0.0647
     33 O          -4.6304    1.8068   -0.3323 O.3     1  LIG1       -0.3865
     34 C          -3.1935    0.0790    0.5658 C.3     1  LIG1        0.1140
     35 H          -3.3715    0.7269    1.4334 H       1  LIG1        0.0647
     36 C          -3.4752   -1.3699    0.9910 C.3     1  LIG1        0.0731
     37 O          -2.7152   -1.7108    2.1536 O.3     1  LIG1       -0.3924
     38 O          -1.7851    0.1603    0.2888 O.3     1  LIG1       -0.3313
     39 H          -1.3091   -2.3990   -1.9876 H       1  LIG1        0.2922
     40 H           0.3080   -5.3985   -1.1243 H       1  LIG1        0.0691
     41 H           2.2390   -6.3722   -0.4595 H       1  LIG1        0.2921
     42 H           3.8140   -3.2869    0.2539 H       1  LIG1        0.0691
     43 H           4.7012    0.6652    0.2752 H       1  LIG1        0.0626
     44 H           5.9038    2.3364    1.5967 H       1  LIG1        0.0655
     45 H           5.6503    3.9670    3.2023 H       1  LIG1        0.2923
     46 H           2.6931    4.8198    3.3426 H       1  LIG1        0.2923
     47 H           0.9331    2.3243    1.6230 H       1  LIG1        0.0662
     48 H          -3.0760    3.1383   -1.4517 H       1  LIG1        0.2102
     49 H          -2.5311   -0.6360   -3.2235 H       1  LIG1        0.2100
     50 H          -5.4937    1.8527   -0.7869 H       1  LIG1        0.2100
     51 H          -4.5304   -1.4984    1.2491 H       1  LIG1        0.0584
     52 H          -3.2144   -2.0777    0.1974 H       1  LIG1        0.0584
     53 H          -1.9136   -1.1549    2.1385 H       1  LIG1        0.2095
@<TRIPOS>BOND
     1     1     2    2
     2     2     3   ar
     3     3     4   ar
     4     4     5    1
     5     4     6   ar
     6     6     7   ar
     7     7     8    1
     8     7     9   ar
     9     9    10   ar
    10     3    10   ar
    11    10    11   ar
    12    11    12   ar
    13    12    13    1
    14    13    14   ar
    15    14    15   ar
    16    15    16   ar
    17    16    17    1
    18    16    18   ar
    19    18    19    1
    20    18    20   ar
    21    13    20   ar
    22    12    21   ar
    23     2    21   ar
    24    21    22    1
    25    22    23    1
    26    23    24    1
    27    23    25    1
    28    25    28    1
    29    28    31    1
    30    31    32    1
    31    31    33    1
    32    31    34    1
    33    36    37    1
    34    34    38    1
    35    23    38    1
    36    25    27    1
    37    25    26    1
    38    28    30    1
    39    28    29    1
    40    34    36    1
    41    34    35    1
    42     5    39    1
    43     6    40    1
    44     8    41    1
    45     9    42    1
    46    14    43    1
    47    15    44    1
    48    17    45    1
    49    19    46    1
    50    20    47    1
    51    27    48    1
    52    30    49    1
    53    33    50    1
    54    36    51    1
    55    36    52    1
    56    37    53    1
