REMARK  Name = NuBBE_2000
REMARK  10 active torsions:
REMARK  status: ('A' for Active; 'I' for Inactive)
REMARK    1  A    between atoms: C_1  and  C_2
REMARK    2  A    between atoms: C_7  and  C_9
REMARK    3  A    between atoms: C_12  and  O_13
REMARK    4  A    between atoms: C_14  and  O_15
REMARK    5  A    between atoms: O_15  and  C_16
REMARK    6  A    between atoms: C_20  and  O_21
REMARK    7  A    between atoms: C_22  and  C_23
REMARK    8  A    between atoms: C_24  and  O_25
REMARK    9  A    between atoms: O_25  and  C_26
REMARK   10  A    between atoms: C_26  and  C_27
REMARK                            x       y       z     vdW  Elec       q    Type
REMARK                         _______ _______ _______ _____ _____    ______ ____
ROOT
ATOM      1  C   LIG A   1      -2.811  -1.077  -1.660  0.00  0.00    +0.051 C 
ATOM      2  C   LIG A   1      -1.309  -0.976  -1.734  0.00  0.00    +0.034 A 
ATOM      3  C   LIG A   1      -0.671   0.275  -1.676  0.00  0.00    +0.142 A 
ATOM      4  C   LIG A   1       0.713   0.362  -1.855  0.00  0.00    +0.101 A 
ATOM      5  C   LIG A   1       1.307   1.700  -1.966  0.00  0.00    +0.174 C 
ATOM      6  C   LIG A   1       0.398   2.884  -1.899  0.00  0.00    +0.129 C 
ATOM      7  C   LIG A   1      -0.747   2.542  -0.959  0.00  0.00    +0.211 C 
ATOM      8  O   LIG A   1      -1.453   1.379  -1.442  0.00  0.00    -0.483 OA
ATOM      9  O   LIG A   1       2.531   1.819  -2.166  0.00  0.00    -0.292 OA
ATOM     10  C   LIG A   1       1.483  -0.800  -1.993  0.00  0.00    +0.137 A 
ATOM     11  C   LIG A   1       0.881  -2.065  -2.001  0.00  0.00    +0.034 A 
ATOM     12  C   LIG A   1       1.740  -3.290  -2.170  0.00  0.00    +0.051 C 
ATOM     13  C   LIG A   1      -0.516  -2.141  -1.832  0.00  0.00    +0.133 A 
ENDROOT
BRANCH   7  14
ATOM     14  C   LIG A   1      -0.432   2.443   0.537  0.00  0.00    -0.003 A 
ATOM     15  C   LIG A   1      -1.477   2.135   1.423  0.00  0.00    +0.011 A 
ATOM     16  C   LIG A   1      -1.260   2.067   2.801  0.00  0.00    +0.049 A 
ATOM     17  C   LIG A   1       0.009   2.305   3.321  0.00  0.00    +0.159 A 
ATOM     18  C   LIG A   1       1.080   2.589   2.471  0.00  0.00    +0.162 A 
ATOM     19  C   LIG A   1       0.846   2.680   1.087  0.00  0.00    +0.056 A 
BRANCH  17  20
ATOM     20  O   LIG A   1       0.173   2.276   4.677  0.00  0.00    -0.503 OA
ATOM     21  H   LIG A   1      -0.645   1.981   5.104  0.00  0.00    +0.292 HD
ENDBRANCH  17  20
BRANCH  18  22
ATOM     22  O   LIG A   1       2.378   2.817   2.864  0.00  0.00    -0.491 OA
ATOM     23  C   LIG A   1       2.766   2.152   4.067  0.00  0.00    +0.277 C 
ENDBRANCH  18  22
ENDBRANCH   7  14
BRANCH  10  24
ATOM     24  O   LIG A   1       2.851  -0.742  -2.116  0.00  0.00    -0.506 OA
ATOM     25  H   LIG A   1       3.125   0.202  -2.123  0.00  0.00    +0.292 HD
ENDBRANCH  10  24
BRANCH  13  26
ATOM     26  O   LIG A   1      -1.169  -3.352  -1.851  0.00  0.00    -0.491 OA
BRANCH  26  27
ATOM     27  C   LIG A   1      -0.966  -4.117  -0.654  0.00  0.00    +0.226 C 
ATOM     28  C   LIG A   1      -2.153  -3.974   0.281  0.00  0.00    +0.048 C 
ENDBRANCH  26  27
ENDBRANCH  13  26
TORSDOF 6
