@<TRIPOS>MOLECULE
NuBBE_2408
 48 51 0 0 0
SMALL
GASTEIGER

@<TRIPOS>ATOM
      1 C          -4.8319    0.8880    2.2237 C.3     1  LIG1       -0.0465
      2 C          -3.3479    1.0709    2.1723 C.2     1  LIG1       -0.0864
      3 C          -2.4569    0.3656    1.4427 C.2     1  LIG1       -0.0559
      4 C          -2.8455   -0.7682    0.5137 C.3     1  LIG1        0.0203
      5 N          -1.9328   -0.9813   -0.6056 N.3     1  LIG1       -0.2979
      6 C          -2.3216   -2.1564   -1.3851 C.3     1  LIG1       -0.0121
      7 C          -0.4773   -0.9735   -0.3128 C.3     1  LIG1        0.0199
      8 C           0.1442   -0.0824   -1.4342 C.3     1  LIG1       -0.0090
      9 C           1.4493    0.5998   -1.1415 C.ar    1  LIG1       -0.0101
     10 C           1.6820    1.6343   -0.2360 C.ar    1  LIG1        0.0865
     11 N           3.0175    1.9570   -0.3305 N.ar    1  LIG1       -0.3517
     12 H           3.4588    2.6724    0.2325 H       1  LIG1        0.1660
     13 C           3.6521    1.1867   -1.2694 C.ar    1  LIG1        0.0472
     14 C           4.9884    1.1935   -1.6867 C.ar    1  LIG1       -0.0378
     15 C           5.3611    0.2857   -2.6814 C.ar    1  LIG1       -0.0598
     16 C           4.4327   -0.5937   -3.2311 C.ar    1  LIG1       -0.0611
     17 C           3.1016   -0.5874   -2.7977 C.ar    1  LIG1       -0.0523
     18 C           2.6974    0.3210   -1.7962 C.ar    1  LIG1        0.0036
     19 C           0.8261    2.3128    0.7259 C.2     1  LIG1        0.1800
     20 O           1.2905    3.1464    1.5075 O.2     1  LIG1       -0.2905
     21 C          -0.6504    1.9731    0.7786 C.3     1  LIG1        0.0189
     22 C          -0.9668    0.6804    1.5581 C.3     1  LIG1       -0.0053
     23 H          -0.7322    0.8805    2.6141 H       1  LIG1        0.0354
     24 C          -0.1349   -0.5491    1.1401 C.3     1  LIG1        0.0050
     25 C          -0.2681   -1.7066    2.1543 C.3     1  LIG1        0.0490
     26 O           0.6786   -2.7258    1.8436 O.3     1  LIG1       -0.3947
     27 H          -5.1752   -0.0199    1.7226 H       1  LIG1        0.0272
     28 H          -5.3280    1.7478    1.7631 H       1  LIG1        0.0272
     29 H          -5.1562    0.8264    3.2674 H       1  LIG1        0.0272
     30 H          -2.9792    1.8713    2.8140 H       1  LIG1        0.0569
     31 H          -3.8292   -0.5473    0.0820 H       1  LIG1        0.0473
     32 H          -2.9663   -1.6851    1.1013 H       1  LIG1        0.0473
     33 H          -3.3663   -2.0815   -1.7070 H       1  LIG1        0.0391
     34 H          -2.2040   -3.0815   -0.8093 H       1  LIG1        0.0391
     35 H          -1.7205   -2.2390   -2.2972 H       1  LIG1        0.0391
     36 H          -0.0583   -1.9797   -0.4526 H       1  LIG1        0.0469
     37 H          -0.5605    0.6945   -1.7585 H       1  LIG1        0.0329
     38 H           0.2573   -0.7100   -2.3288 H       1  LIG1        0.0329
     39 H           5.7132    1.8787   -1.2592 H       1  LIG1        0.0638
     40 H           6.3910    0.2671   -3.0300 H       1  LIG1        0.0618
     41 H           4.7415   -1.2926   -4.0044 H       1  LIG1        0.0618
     42 H           2.3899   -1.2800   -3.2365 H       1  LIG1        0.0624
     43 H          -1.0729    1.9871   -0.2290 H       1  LIG1        0.0351
     44 H          -1.1416    2.8180    1.2827 H       1  LIG1        0.0351
     45 H           0.9304   -0.3076    1.1967 H       1  LIG1        0.0344
     46 H          -1.2546   -2.1689    2.1722 H       1  LIG1        0.0560
     47 H          -0.0438   -1.3463    3.1644 H       1  LIG1        0.0560
     48 H           0.6197   -3.3949    2.5473 H       1  LIG1        0.2094
@<TRIPOS>BOND
     1     1     2    1
     2     2     3    2
     3     3     4    1
     4     4     5    1
     5     5     6    1
     6     5     7    1
     7     7     8    1
     8     8     9    1
     9     9    10   ar
    10    10    11   ar
    11    11    12    1
    12    11    13   ar
    13    13    14   ar
    14    14    15   ar
    15    15    16   ar
    16    16    17   ar
    17    17    18   ar
    18     9    18   ar
    19    13    18   ar
    20    10    19    1
    21    19    20    2
    22    19    21    1
    23    21    22    1
    24    22    23    1
    25     3    22    1
    26    22    24    1
    27     7    24    1
    28    24    25    1
    29    25    26    1
    30     1    27    1
    31     1    28    1
    32     1    29    1
    33     2    30    1
    34     4    31    1
    35     4    32    1
    36     6    33    1
    37     6    34    1
    38     6    35    1
    39     7    36    1
    40     8    37    1
    41     8    38    1
    42    14    39    1
    43    15    40    1
    44    16    41    1
    45    17    42    1
    46    21    43    1
    47    21    44    1
    48    24    45    1
    49    25    46    1
    50    25    47    1
    51    26    48    1
