REMARK  Name = NuBBE_734
REMARK  6 active torsions:
REMARK  status: ('A' for Active; 'I' for Inactive)
REMARK    1  A    between atoms: C_2  and  C_3
REMARK    2  A    between atoms: C_3  and  C_4
REMARK    3  A    between atoms: C_6  and  O_7
REMARK    4  A    between atoms: O_7  and  C_8
REMARK    5  A    between atoms: C_9  and  O_10
REMARK    6  A    between atoms: O_10  and  C_11
REMARK                            x       y       z     vdW  Elec       q    Type
REMARK                         _______ _______ _______ _____ _____    ______ ____
ROOT
ATOM      1  C   LIG A   1      -1.171   0.237   0.898  0.00  0.00    -0.040 A 
ATOM      2  C   LIG A   1       0.040   0.934   0.775  0.00  0.00    +0.053 A 
ATOM      3  C   LIG A   1       1.211   0.296   0.330  0.00  0.00    +0.162 A 
ATOM      4  C   LIG A   1       1.180  -1.074   0.028  0.00  0.00    +0.162 A 
ATOM      5  C   LIG A   1      -0.026  -1.775   0.158  0.00  0.00    +0.050 A 
ATOM      6  C   LIG A   1      -1.191  -1.125   0.578  0.00  0.00    +0.008 A 
ENDROOT
BRANCH   3   7
ATOM      7  O   LIG A   1       2.296   1.134   0.257  0.00  0.00    -0.491 OA
ATOM      8  C   LIG A   1       3.323   0.771  -0.660  0.00  0.00    +0.277 C 
ENDBRANCH   3   7
BRANCH   4   9
ATOM      9  O   LIG A   1       2.349  -1.718  -0.282  0.00  0.00    -0.491 OA
ATOM     10  C   LIG A   1       2.250  -2.696  -1.313  0.00  0.00    +0.277 C 
ENDBRANCH   4   9
BRANCH   1  11
ATOM     11  C   LIG A   1      -2.428   0.941   1.357  0.00  0.00    +0.061 C 
BRANCH  11  13
ATOM     12  C   LIG A   1      -3.632   2.719   0.032  0.00  0.00    +0.004 C 
ATOM     13  C   LIG A   1      -3.280   1.443   0.220  0.00  0.00    -0.030 C 
ENDBRANCH  11  13
ENDBRANCH   1  11
TORSDOF 4
