@<TRIPOS>MOLECULE
NuBBE_1186
 59 62 0 0 0
SMALL
GASTEIGER

@<TRIPOS>ATOM
      1 O          -5.0211   -0.6246   -0.3715 O.3     1  LIG1       -0.3924
      2 C          -3.6000   -0.6802   -0.3680 C.3     1  LIG1        0.0729
      3 C          -3.0902   -1.6696    0.6735 C.3     1  LIG1        0.1105
      4 H          -3.4574   -2.6654    0.3838 H       1  LIG1        0.0646
      5 O          -1.6395   -1.6613    0.6853 O.3     1  LIG1       -0.3624
      6 C          -1.1052   -2.8380    1.3440 C.3     1  LIG1        0.1214
      7 H          -1.2561   -3.7210    0.7126 H       1  LIG1        0.0657
      8 C          -1.8771   -3.0302    2.6525 C.3     1  LIG1        0.1128
      9 H          -1.2047   -3.4684    3.3871 H       1  LIG1        0.0647
     10 C          -2.4932   -1.6527    3.0724 C.3     1  LIG1        0.1118
     11 H          -2.9436   -1.7276    4.0618 H       1  LIG1        0.0647
     12 C          -3.6068   -1.3005    2.0766 C.3     1  LIG1        0.1117
     13 H          -3.8863   -0.2407    2.1226 H       1  LIG1        0.0647
     14 O          -4.7730   -2.0692    2.4210 O.3     1  LIG1       -0.3865
     15 O          -1.5344   -0.5870    3.1401 O.3     1  LIG1       -0.3865
     16 O          -2.8810   -4.0394    2.4149 O.3     1  LIG1       -0.3865
     17 C           0.4101   -2.7023    1.6116 C.3     1  LIG1        0.1185
     18 O           1.2804   -2.5745    0.4578 O.3     1  LIG1       -0.4824
     19 C           1.3072   -1.3839   -0.2326 C.ar    1  LIG1        0.2078
     20 C           0.4739   -1.1919   -1.3720 C.ar    1  LIG1        0.1689
     21 C           0.5044   -0.0227   -2.0980 C.ar    1  LIG1        0.0300
     22 C           1.4286    0.9264   -1.8289 C.ar    1  LIG1        0.1780
     23 O           1.3357    1.9888   -2.6626 O.3     1  LIG1       -0.4482
     24 C           2.0360    3.0636   -2.2473 C.ar    1  LIG1        0.1751
     25 C           3.0309    2.9479   -1.2815 C.ar    1  LIG1        0.2119
     26 O           3.3035    1.7575   -0.6287 O.3     1  LIG1       -0.4411
     27 C           2.3592    0.7598   -0.8138 C.ar    1  LIG1        0.2160
     28 C           2.3332   -0.4109   -0.0017 C.ar    1  LIG1        0.2116
     29 O           3.3748   -0.4559    0.8994 O.3     1  LIG1       -0.4883
     30 C           3.5796   -1.6038    1.7068 C.3     1  LIG1        0.0791
     31 C           3.7378    4.0873   -0.9450 C.ar    1  LIG1        0.1636
     32 O           4.7426    4.0249   -0.0257 O.3     1  LIG1       -0.5032
     33 C           3.4180    5.3169   -1.5263 C.ar    1  LIG1       -0.0023
     34 C           2.3717    5.4098   -2.4533 C.ar    1  LIG1        0.0660
     35 C           2.0232    6.7259   -3.0408 C.2     1  LIG1        0.3370
     36 O           0.7067    6.7854   -3.3752 O.3     1  LIG1       -0.4771
     37 O           2.7539    7.6442   -3.1778 O.2     1  LIG1       -0.2451
     38 C           1.6797    4.2687   -2.8342 C.ar    1  LIG1       -0.0014
     39 O          -0.3642   -1.9678   -2.1114 O.3     1  LIG1       -0.4912
     40 C          -0.8978   -3.1304   -1.5924 C.3     1  LIG1        0.0790
     41 H          -5.3537   -1.5394   -0.3096 H       1  LIG1        0.2095
     42 H          -3.2003    0.3180   -0.1628 H       1  LIG1        0.0584
     43 H          -3.2596   -0.9638   -1.3686 H       1  LIG1        0.0584
     44 H          -5.1019   -1.6972    3.2629 H       1  LIG1        0.2100
     45 H          -1.0986   -0.4931    2.2663 H       1  LIG1        0.2100
     46 H          -3.7176   -3.7654    2.8395 H       1  LIG1        0.2100
     47 H           0.6095   -1.9418    2.3736 H       1  LIG1        0.0724
     48 H           0.7200   -3.6537    2.0792 H       1  LIG1        0.0724
     49 H          -0.1748    0.1228   -2.9345 H       1  LIG1        0.0693
     50 H           2.7034   -1.8159    2.3124 H       1  LIG1        0.0660
     51 H           4.3782   -1.3852    2.4259 H       1  LIG1        0.0660
     52 H           3.8937   -2.4692    1.1148 H       1  LIG1        0.0660
     53 H           4.8039    3.0877    0.2466 H       1  LIG1        0.2923
     54 H           3.9695    6.2066   -1.2400 H       1  LIG1        0.0663
     55 H           0.5951    7.7021   -3.6980 H       1  LIG1        0.2954
     56 H           0.8697    4.2968   -3.5598 H       1  LIG1        0.0664
     57 H          -1.8365   -2.8689   -1.1214 H       1  LIG1        0.0660
     58 H          -0.1687   -3.6268   -0.9696 H       1  LIG1        0.0660
     59 H          -1.1909   -3.8008   -2.3922 H       1  LIG1        0.0660
@<TRIPOS>BOND
     1     1     2    1
     2     2     3    1
     3     3     4    1
     4     3     5    1
     5     5     6    1
     6     6     8    1
     7     8     9    1
     8     8    10    1
     9    10    12    1
    10    12    13    1
    11     3    12    1
    12    12    14    1
    13     8    16    1
    14    17    18    1
    15    18    19    1
    16    19    20   ar
    17    20    21   ar
    18    21    22   ar
    19    22    23    1
    20    23    24    1
    21    24    25   ar
    22    25    26    1
    23    26    27    1
    24    22    27   ar
    25    27    28   ar
    26    19    28   ar
    27    28    29    1
    28    29    30    1
    29    25    31   ar
    30    31    32    1
    31    31    33   ar
    32    33    34   ar
    33    34    35    1
    34    35    36    1
    35    35    37    2
    36    34    38   ar
    37    24    38   ar
    38    20    39    1
    39    39    40    1
    40    10    15    1
    41    10    11    1
    42     6    17    1
    43     6     7    1
    44     1    41    1
    45     2    42    1
    46     2    43    1
    47    14    44    1
    48    15    45    1
    49    16    46    1
    50    17    47    1
    51    17    48    1
    52    21    49    1
    53    30    50    1
    54    30    51    1
    55    30    52    1
    56    32    53    1
    57    33    54    1
    58    36    55    1
    59    38    56    1
    60    40    57    1
    61    40    58    1
    62    40    59    1
