REMARK  Name = NuBBE_1361
REMARK  5 active torsions:
REMARK  status: ('A' for Active; 'I' for Inactive)
REMARK    1  A    between atoms: C_2  and  C_3
REMARK    2  A    between atoms: C_3  and  C_4
REMARK    3  A    between atoms: N_5  and  C_7
REMARK    4  A    between atoms: C_10  and  C_12
REMARK    5  A    between atoms: C_15  and  C_16
REMARK                            x       y       z     vdW  Elec       q    Type
REMARK                         _______ _______ _______ _____ _____    ______ ____
ROOT
ATOM      1  C   LIG A   1       1.366   1.370   0.927  0.00  0.00    +0.065 C 
ATOM      2  N   LIG A   1       1.595   1.693  -0.508  0.00  0.00    -0.301 NA
ATOM      3  C   LIG A   1       2.920   1.226  -0.937  0.00  0.00    +0.089 C 
ATOM      4  C   LIG A   1       1.414   3.091  -0.882  0.00  0.00    +0.105 C 
ATOM      5  C   LIG A   1       1.502  -0.189   1.188  0.00  0.00    +0.028 C 
ATOM      6  C   LIG A   1       0.564  -1.210   0.427  0.00  0.00    +0.089 C 
ATOM      7  C   LIG A   1       2.952  -0.557   0.812  0.00  0.00    +0.013 C 
ATOM      8  C   LIG A   1       3.125  -0.276  -0.681  0.00  0.00    +0.021 C 
ATOM      9  C   LIG A   1       2.164  -1.198  -1.469  0.00  0.00    +0.062 C 
ATOM     10  N   LIG A   1       0.739  -1.128  -1.040  0.00  0.00    -0.292 NA
ATOM     11  C   LIG A   1      -0.009  -2.109  -1.835  0.00  0.00    +0.085 C 
ATOM     12  C   LIG A   1      -0.150  -1.572  -3.267  0.00  0.00    +0.015 C 
ATOM     13  C   LIG A   1       0.982  -0.620  -3.664  0.00  0.00    +0.003 C 
ATOM     14  C   LIG A   1       2.298  -1.028  -3.006  0.00  0.00    +0.019 C 
ENDROOT
BRANCH   6  15
ATOM     15  C   LIG A   1      -0.895  -1.160   0.907  0.00  0.00    -0.038 C 
ATOM     16  C   LIG A   1      -1.839  -0.398   0.335  0.00  0.00    +0.078 C 
ATOM     17  N   LIG A   1      -3.177  -0.421   0.681  0.00  0.00    -0.278 N 
ATOM     18  C   LIG A   1      -4.187   0.299   0.017  0.00  0.00    +0.216 C 
ATOM     19  C   LIG A   1      -3.764   1.207  -1.112  0.00  0.00    +0.110 C 
ATOM     20  O   LIG A   1      -5.378   0.206   0.305  0.00  0.00    -0.276 OA
ATOM     21  C   LIG A   1      -3.639  -1.402   1.670  0.00  0.00    +0.113 C 
ATOM     22  C   LIG A   1      -2.575  -1.742   2.702  0.00  0.00    +0.024 C 
ATOM     23  C   LIG A   1      -1.271  -2.130   2.011  0.00  0.00    +0.035 C 
ENDBRANCH   6  15
BRANCH   1  24
ATOM     24  C   LIG A   1       0.124   2.064   1.546  0.00  0.00    +0.045 C 
BRANCH  24  26
ATOM     25  C   LIG A   1      -0.096   2.699   3.970  0.00  0.00    +0.004 C 
ATOM     26  C   LIG A   1      -0.100   1.770   3.006  0.00  0.00    -0.033 C 
ENDBRANCH  24  26
ENDBRANCH   1  24
TORSDOF 3
