REMARK  Name = NuBBE_2371
REMARK  12 active torsions:
REMARK  status: ('A' for Active; 'I' for Inactive)
REMARK    1  A    between atoms: C_2  and  O_29
REMARK    2  A    between atoms: C_3  and  O_27
REMARK    3  A    between atoms: C_5  and  C_7
REMARK    4  A    between atoms: C_7  and  C_8
REMARK    5  A    between atoms: C_14  and  C_16
REMARK    6  A    between atoms: C_16  and  C_17
REMARK    7  A    between atoms: C_19  and  O_25
REMARK    8  A    between atoms: C_20  and  O_23
REMARK    9  A    between atoms: O_23  and  C_24
REMARK   10  A    between atoms: O_25  and  C_26
REMARK   11  A    between atoms: O_27  and  C_28
REMARK   12  A    between atoms: O_29  and  C_30
REMARK                            x       y       z     vdW  Elec       q    Type
REMARK                         _______ _______ _______ _____ _____    ______ ____
ROOT
ATOM      1  C   LIG A   1      -1.606  -0.206  -0.147  0.00  0.00    +0.109 C 
ATOM      2  C   LIG A   1      -2.843  -0.760   0.480  0.00  0.00    +0.311 C 
ATOM      3  O   LIG A   1      -2.961  -1.082   1.668  0.00  0.00    -0.251 OA
ATOM      4  O   LIG A   1      -3.807  -0.963  -0.442  0.00  0.00    -0.464 OA
ATOM      5  C   LIG A   1      -3.373  -0.449  -1.701  0.00  0.00    +0.236 C 
ATOM      6  C   LIG A   1      -1.855  -0.377  -1.642  0.00  0.00    +0.045 C 
ENDROOT
BRANCH   1   7
ATOM      7  C   LIG A   1      -1.248   1.221   0.302  0.00  0.00    +0.050 C 
BRANCH   7  12
ATOM      8  C   LIG A   1       0.042   0.435   3.815  0.00  0.00    +0.050 A 
ATOM      9  C   LIG A   1      -0.274   1.606   4.516  0.00  0.00    +0.162 A 
ATOM     10  C   LIG A   1      -0.888   2.674   3.832  0.00  0.00    +0.162 A 
ATOM     11  C   LIG A   1      -1.116   2.528   2.451  0.00  0.00    +0.053 A 
ATOM     12  C   LIG A   1      -0.875   1.329   1.769  0.00  0.00    -0.043 A 
ATOM     13  C   LIG A   1      -0.273   0.289   2.472  0.00  0.00    +0.007 A 
BRANCH  10  14
ATOM     14  O   LIG A   1      -1.208   3.845   4.477  0.00  0.00    -0.491 OA
ATOM     15  C   LIG A   1      -2.243   4.665   3.910  0.00  0.00    +0.277 C 
ENDBRANCH  10  14
BRANCH   9  16
ATOM     16  O   LIG A   1       0.091   1.466   5.826  0.00  0.00    -0.491 OA
ATOM     17  C   LIG A   1      -0.128   2.531   6.723  0.00  0.00    +0.277 C 
ENDBRANCH   9  16
ENDBRANCH   7  12
ENDBRANCH   1   7
BRANCH   6  18
ATOM     18  C   LIG A   1      -1.251  -1.693  -2.203  0.00  0.00    +0.042 C 
BRANCH  18  19
ATOM     19  C   LIG A   1       0.262  -1.756  -2.271  0.00  0.00    -0.043 A 
ATOM     20  C   LIG A   1       0.892  -1.858  -3.519  0.00  0.00    +0.053 A 
ATOM     21  C   LIG A   1       2.289  -1.941  -3.646  0.00  0.00    +0.162 A 
ATOM     22  C   LIG A   1       3.073  -1.889  -2.476  0.00  0.00    +0.162 A 
ATOM     23  C   LIG A   1       2.454  -1.786  -1.234  0.00  0.00    +0.050 A 
ATOM     24  C   LIG A   1       1.070  -1.780  -1.135  0.00  0.00    +0.007 A 
BRANCH  22  25
ATOM     25  O   LIG A   1       4.439  -1.877  -2.373  0.00  0.00    -0.491 OA
ATOM     26  C   LIG A   1       5.127  -2.771  -3.232  0.00  0.00    +0.277 C 
ENDBRANCH  22  25
BRANCH  21  27
ATOM     27  O   LIG A   1       2.915  -2.060  -4.857  0.00  0.00    -0.491 OA
ATOM     28  C   LIG A   1       2.134  -2.090  -6.050  0.00  0.00    +0.277 C 
ENDBRANCH  21  27
ENDBRANCH  18  19
ENDBRANCH   6  18
TORSDOF 8
