@<TRIPOS>MOLECULE
NuBBE_152
 43 44 0 0 0
SMALL
GASTEIGER

@<TRIPOS>ATOM
      1 C          -3.5948    1.7376   -1.9326 C.3     1  LIG1       -0.0215
      2 C          -2.0700    1.8023   -1.7922 C.3     1  LIG1        0.1235
      3 C          -1.4118    1.7386   -3.1739 C.3     1  LIG1       -0.0215
      4 O          -1.6824    0.6031   -1.0880 O.3     1  LIG1       -0.4813
      5 C          -0.7787    0.6949   -0.0638 C.ar    1  LIG1        0.1323
      6 C          -0.2851   -0.5087    0.4742 C.ar    1  LIG1       -0.0006
      7 C          -0.7157   -1.8598   -0.0557 C.3     1  LIG1       -0.0057
      8 C           0.1563   -2.3570   -1.1783 C.2     1  LIG1       -0.0809
      9 C           0.8710   -3.4997   -1.2284 C.2     1  LIG1       -0.0793
     10 C           0.9705   -4.5064   -0.1152 C.3     1  LIG1       -0.0440
     11 C           1.6482   -3.8710   -2.4650 C.3     1  LIG1       -0.0440
     12 C           0.6309   -0.4528    1.5424 C.ar    1  LIG1       -0.0408
     13 C           1.0177    0.7774    2.0860 C.ar    1  LIG1        0.0600
     14 C           1.9106    0.7908    3.2817 C.2     1  LIG1        0.3390
     15 O           2.1065    2.0755    3.6771 O.3     1  LIG1       -0.4645
     16 C           2.7996    2.2603    4.9074 C.3     1  LIG1        0.0820
     17 O           2.3356   -0.2084    3.8251 O.2     1  LIG1       -0.2450
     18 C           0.5157    1.9618    1.5406 C.ar    1  LIG1       -0.0371
     19 C          -0.3788    1.9248    0.4708 C.ar    1  LIG1        0.0176
     20 C          -0.9088    3.1715   -0.0539 C.2     1  LIG1       -0.0513
     21 C          -1.7011    3.1050   -1.1242 C.2     1  LIG1       -0.0409
     22 H          -3.9015    0.8196   -2.4465 H       1  LIG1        0.0271
     23 H          -3.9929    2.5933   -2.4893 H       1  LIG1        0.0271
     24 H          -4.0758    1.7156   -0.9469 H       1  LIG1        0.0271
     25 H          -1.6824    0.8113   -3.6914 H       1  LIG1        0.0271
     26 H          -0.3185    1.7335   -3.0849 H       1  LIG1        0.0271
     27 H          -1.7005    2.5857   -3.8055 H       1  LIG1        0.0271
     28 H          -1.7518   -1.8084   -0.4121 H       1  LIG1        0.0357
     29 H          -0.7534   -2.5654    0.7807 H       1  LIG1        0.0357
     30 H           0.1535   -1.7085   -2.0552 H       1  LIG1        0.0575
     31 H           0.6472   -4.1161    0.8520 H       1  LIG1        0.0274
     32 H           2.0092   -4.8299    0.0126 H       1  LIG1        0.0274
     33 H           0.3637   -5.3866   -0.3510 H       1  LIG1        0.0274
     34 H           1.5477   -3.1264   -3.2615 H       1  LIG1        0.0274
     35 H           1.2954   -4.8300   -2.8593 H       1  LIG1        0.0274
     36 H           2.7136   -3.9641   -2.2296 H       1  LIG1        0.0274
     37 H           1.0241   -1.3773    1.9638 H       1  LIG1        0.0630
     38 H           3.3571    3.1986    4.8363 H       1  LIG1        0.0661
     39 H           3.5026    1.4541    5.1286 H       1  LIG1        0.0661
     40 H           2.0621    2.3559    5.7095 H       1  LIG1        0.0661
     41 H           0.8039    2.9251    1.9553 H       1  LIG1        0.0633
     42 H          -0.6476    4.1150    0.4113 H       1  LIG1        0.0623
     43 H          -2.0910    4.0252   -1.5512 H       1  LIG1        0.0611
@<TRIPOS>BOND
     1     1     2    1
     2     2     3    1
     3     2     4    1
     4     4     5    1
     5     5     6   ar
     6     6     7    1
     7     7     8    1
     8     8     9    2
     9     9    10    1
    10     9    11    1
    11     6    12   ar
    12    12    13   ar
    13    13    14    1
    14    14    15    1
    15    15    16    1
    16    14    17    2
    17    13    18   ar
    18    18    19   ar
    19     5    19   ar
    20    19    20    1
    21    20    21    2
    22     2    21    1
    23     1    22    1
    24     1    23    1
    25     1    24    1
    26     3    25    1
    27     3    26    1
    28     3    27    1
    29     7    28    1
    30     7    29    1
    31     8    30    1
    32    10    31    1
    33    10    32    1
    34    10    33    1
    35    11    34    1
    36    11    35    1
    37    11    36    1
    38    12    37    1
    39    16    38    1
    40    16    39    1
    41    16    40    1
    42    18    41    1
    43    20    42    1
    44    21    43    1
