@<TRIPOS>MOLECULE
NuBBE_2462
 50 52 0 0 0
SMALL
GASTEIGER

@<TRIPOS>ATOM
      1 C          -3.2743   -2.8990    4.1474 C.3     1  LIG1        0.0790
      2 O          -2.8352   -3.4180    2.8960 O.3     1  LIG1       -0.4914
      3 C          -2.2662   -2.5128    2.0388 C.ar    1  LIG1        0.1615
      4 C          -1.3291   -3.0305    1.1459 C.ar    1  LIG1        0.1587
      5 O          -0.9957   -4.3572    1.1919 O.3     1  LIG1       -0.5033
      6 C          -0.7135   -2.2281    0.1916 C.ar    1  LIG1       -0.0125
      7 C          -1.0378   -0.8616    0.0884 C.ar    1  LIG1       -0.0328
      8 C          -0.3581   -0.0165   -0.9947 C.3     1  LIG1        0.0149
      9 H          -0.5164   -0.5996   -1.9159 H       1  LIG1        0.0401
     10 C           1.1727    0.0803   -0.8785 C.ar    1  LIG1       -0.0359
     11 C           1.8354   -0.0890    0.3396 C.ar    1  LIG1       -0.0543
     12 C           3.2268    0.0036    0.4282 C.ar    1  LIG1       -0.0162
     13 C           3.9834    0.2604   -0.7170 C.ar    1  LIG1        0.1585
     14 O           5.3380    0.4030   -0.5620 O.3     1  LIG1       -0.5033
     15 C           3.3688    0.3854   -1.9586 C.ar    1  LIG1        0.1615
     16 O           3.9994    0.6084   -3.1611 O.3     1  LIG1       -0.4914
     17 C           5.3419    0.1367   -3.2579 C.3     1  LIG1        0.0790
     18 C           1.9619    0.3139   -2.0317 C.ar    1  LIG1       -0.0125
     19 C          -1.0378    1.3733   -1.2180 C.3     1  LIG1       -0.0018
     20 H          -0.3194    2.0744   -1.6632 H       1  LIG1        0.0335
     21 C          -2.1633    1.2054   -2.2671 C.3     1  LIG1        0.0482
     22 O          -2.8149    2.4389   -2.5466 O.3     1  LIG1       -0.3947
     23 C          -1.5966    2.0276    0.0768 C.3     1  LIG1       -0.0081
     24 H          -2.2121    2.8872   -0.2235 H       1  LIG1        0.0330
     25 C          -0.5326    2.6313    0.9993 C.3     1  LIG1        0.0477
     26 O           0.1664    3.6545    0.3021 O.3     1  LIG1       -0.3947
     27 C          -2.5140    1.0762    0.8461 C.3     1  LIG1       -0.0220
     28 C          -1.9993   -0.3340    0.9713 C.ar    1  LIG1       -0.0396
     29 C          -2.6037   -1.1659    1.9403 C.ar    1  LIG1       -0.0128
     30 H          -3.7364   -3.7216    4.7025 H       1  LIG1        0.0660
     31 H          -4.0358   -2.1220    4.0381 H       1  LIG1        0.0660
     32 H          -2.4215   -2.5353    4.7296 H       1  LIG1        0.0660
     33 H          -1.5768   -4.7392    1.8778 H       1  LIG1        0.2923
     34 H           0.0176   -2.6758   -0.4785 H       1  LIG1        0.0658
     35 H           1.2830   -0.3005    1.2546 H       1  LIG1        0.0622
     36 H           3.6990   -0.1284    1.3932 H       1  LIG1        0.0655
     37 H           5.5628    0.3504    0.3748 H       1  LIG1        0.2923
     38 H           5.6561    0.2133   -4.3035 H       1  LIG1        0.0660
     39 H           5.4157   -0.9171   -2.9654 H       1  LIG1        0.0660
     40 H           6.0360    0.7632   -2.6904 H       1  LIG1        0.0660
     41 H           1.4869    0.4299   -3.0003 H       1  LIG1        0.0658
     42 H          -1.7582    0.8278   -3.2119 H       1  LIG1        0.0560
     43 H          -2.9260    0.4973   -1.9294 H       1  LIG1        0.0560
     44 H          -2.1585    3.0283   -2.9581 H       1  LIG1        0.2094
     45 H          -1.0158    3.0973    1.8667 H       1  LIG1        0.0560
     46 H           0.1806    1.8949    1.3716 H       1  LIG1        0.0560
     47 H           0.5925    4.2204    0.9684 H       1  LIG1        0.2094
     48 H          -3.4837    1.0231    0.3341 H       1  LIG1        0.0317
     49 H          -2.7166    1.4849    1.8448 H       1  LIG1        0.0317
     50 H          -3.3756   -0.7395    2.5736 H       1  LIG1        0.0658
@<TRIPOS>BOND
     1     1     2    1
     2     2     3    1
     3     3     4   ar
     4     4     5    1
     5     4     6   ar
     6     6     7   ar
     7     7     8    1
     8     8     9    1
     9     8    10    1
    10    10    11   ar
    11    11    12   ar
    12    12    13   ar
    13    13    14    1
    14    13    15   ar
    15    15    16    1
    16    16    17    1
    17    15    18   ar
    18    10    18   ar
    19     8    19    1
    20    21    22    1
    21    19    23    1
    22    25    26    1
    23    23    27    1
    24     7    28   ar
    25    27    28    1
    26    28    29   ar
    27     3    29   ar
    28    19    21    1
    29    19    20    1
    30    23    25    1
    31    23    24    1
    32     1    30    1
    33     1    31    1
    34     1    32    1
    35     5    33    1
    36     6    34    1
    37    11    35    1
    38    12    36    1
    39    14    37    1
    40    17    38    1
    41    17    39    1
    42    17    40    1
    43    18    41    1
    44    21    42    1
    45    21    43    1
    46    22    44    1
    47    25    45    1
    48    25    46    1
    49    26    47    1
    50    27    48    1
    51    27    49    1
    52    29    50    1
