@<TRIPOS>MOLECULE
NuBBE_2491
 79 83 0 0 0
SMALL
GASTEIGER

@<TRIPOS>ATOM
      1 C          -2.2416   -3.9443   -0.4251 C.3     1  LIG1       -0.0598
      2 C          -1.2704   -2.9964   -1.1655 C.3     1  LIG1       -0.0346
      3 C          -1.7034   -1.7059   -0.4864 C.3     1  LIG1       -0.0598
      4 C          -1.5252   -3.3487   -2.6315 C.3     1  LIG1       -0.0473
      5 C          -1.5912   -2.1201   -3.4526 C.3     1  LIG1       -0.0466
      6 C          -0.2411   -1.3718   -3.5390 C.3     1  LIG1       -0.0250
      7 C           0.4563   -1.9077   -4.8114 C.3     1  LIG1       -0.0590
      8 C          -0.6832    0.0519   -3.8751 C.3     1  LIG1       -0.0288
      9 C          -0.4688    0.9604   -2.7398 C.2     1  LIG1       -0.0832
     10 C          -0.2494    0.5164   -1.4590 C.2     1  LIG1       -0.0611
     11 C          -1.0693    1.3723   -0.3635 C.3     1  LIG1       -0.0072
     12 C          -2.2589    2.0104   -1.2207 C.3     1  LIG1       -0.0556
     13 C          -1.9260    0.8540    0.8904 C.3     1  LIG1       -0.0433
     14 C          -1.2660    0.3008    2.1746 C.3     1  LIG1       -0.0480
     15 C          -0.3360    1.3411    2.8146 C.3     1  LIG1       -0.0235
     16 H          -0.9975    2.0844    3.2861 H       1  LIG1        0.0315
     17 C           0.6806    0.8109    4.0468 C.3     1  LIG1        0.0267
     18 C          -0.1164    0.1438    5.1970 C.3     1  LIG1       -0.0528
     19 C           1.8508   -0.2425    3.8594 C.3     1  LIG1       -0.0528
     20 C           1.3803    2.0502    4.5390 C.2     1  LIG1        0.1392
     21 O           1.8766    2.0692    5.7342 O.2     1  LIG1       -0.2968
     22 C           1.6785    3.2262    3.6624 C.3     1  LIG1        0.0069
     23 C           1.0762    3.3320    2.2715 C.3     1  LIG1       -0.0404
     24 C           0.4722    2.0686    1.6786 C.3     1  LIG1       -0.0244
     25 C           1.4538    1.0264    1.3487 C.3     1  LIG1       -0.0590
     26 C          -0.0735    2.4265    0.1829 C.3     1  LIG1       -0.0262
     27 H          -0.6067    3.3871    0.2448 H       1  LIG1        0.0314
     28 C           1.1537    2.6241   -0.9024 C.3     1  LIG1       -0.0481
     29 C           1.9329    1.3042   -1.5645 C.3     1  LIG1       -0.0433
     30 C           1.1817   -0.1421   -1.3787 C.3     1  LIG1       -0.0072
     31 C           2.4011   -0.8427   -0.5393 C.3     1  LIG1       -0.0556
     32 C           0.7813   -1.5198   -2.2604 C.3     1  LIG1       -0.0258
     33 H           1.7418   -1.8800   -2.6644 H       1  LIG1        0.0315
     34 C           0.2786   -2.8159   -1.1970 C.3     1  LIG1       -0.0437
     35 H          -2.3175   -4.9572   -0.8168 H       1  LIG1        0.0235
     36 H          -3.2581   -3.5176   -0.6099 H       1  LIG1        0.0235
     37 H          -2.1497   -3.9583    0.6644 H       1  LIG1        0.0235
     38 H          -0.8277   -1.1946   -0.0895 H       1  LIG1        0.0235
     39 H          -2.2454   -1.8607    0.4554 H       1  LIG1        0.0235
     40 H          -2.3103   -1.0574   -1.1072 H       1  LIG1        0.0235
     41 H          -2.4379   -3.9306   -2.7851 H       1  LIG1        0.0271
     42 H          -0.7284   -4.0092   -3.0098 H       1  LIG1        0.0271
     43 H          -2.3928   -1.4975   -3.0405 H       1  LIG1        0.0271
     44 H          -1.9530   -2.3839   -4.4530 H       1  LIG1        0.0271
     45 H          -0.1681   -1.7137   -5.6955 H       1  LIG1        0.0235
     46 H           0.6204   -2.9868   -4.7610 H       1  LIG1        0.0235
     47 H           1.4142   -1.4070   -4.9823 H       1  LIG1        0.0235
     48 H          -1.7587    0.1334   -4.0934 H       1  LIG1        0.0313
     49 H          -0.2050    0.4356   -4.7838 H       1  LIG1        0.0313
     50 H           0.3189    1.5815   -3.1889 H       1  LIG1        0.0572
     51 H          -2.7846    1.2120   -1.7771 H       1  LIG1        0.0238
     52 H          -1.9192    2.7582   -1.9454 H       1  LIG1        0.0238
     53 H          -3.0363    2.4883   -0.6201 H       1  LIG1        0.0238
     54 H          -2.7327    0.1870    0.5701 H       1  LIG1        0.0274
     55 H          -2.4978    1.7268    1.2489 H       1  LIG1        0.0274
     56 H          -0.7572   -0.6482    1.9986 H       1  LIG1        0.0269
     57 H          -2.0762    0.0733    2.8851 H       1  LIG1        0.0269
     58 H          -0.8028    0.8330    5.6880 H       1  LIG1        0.0239
     59 H           0.5791   -0.2031    5.9820 H       1  LIG1        0.0239
     60 H          -0.6463   -0.7491    4.8573 H       1  LIG1        0.0239
     61 H           2.6818    0.0884    3.2168 H       1  LIG1        0.0239
     62 H           1.4793   -1.2188    3.5167 H       1  LIG1        0.0239
     63 H           2.3902   -0.4229    4.7984 H       1  LIG1        0.0239
     64 H           2.7714    3.2849    3.5511 H       1  LIG1        0.0342
     65 H           1.3642    4.1211    4.2177 H       1  LIG1        0.0342
     66 H           1.8465    3.7271    1.6024 H       1  LIG1        0.0275
     67 H           0.2973    4.1075    2.2910 H       1  LIG1        0.0275
     68 H           1.4629    0.1234    1.9114 H       1  LIG1        0.0235
     69 H           2.4423    1.4011    1.1136 H       1  LIG1        0.0235
     70 H           0.9627    0.4895    0.5733 H       1  LIG1        0.0235
     71 H           1.9176    3.2795   -0.4695 H       1  LIG1        0.0269
     72 H           0.7492    3.2060   -1.7426 H       1  LIG1        0.0269
     73 H           2.9118    1.3283   -1.0580 H       1  LIG1        0.0274
     74 H           2.2232    1.4966   -2.6054 H       1  LIG1        0.0274
     75 H           3.3199   -0.7655   -1.1451 H       1  LIG1        0.0238
     76 H           2.3267   -1.9043   -0.3269 H       1  LIG1        0.0238
     77 H           2.7342   -0.4255    0.4046 H       1  LIG1        0.0238
     78 H           0.6303   -2.6621   -0.1681 H       1  LIG1        0.0274
     79 H           0.7894   -3.7311   -1.5265 H       1  LIG1        0.0274
@<TRIPOS>BOND
     1     2     4    1
     2     4     5    1
     3     5     6    1
     4     6     8    1
     5     8     9    1
     6     9    10    2
     7    10    11    1
     8    11    13    1
     9    13    14    1
    10    14    15    1
    11    15    17    1
    12    17    20    1
    13    20    22    1
    14    22    23    1
    15    23    24    1
    16    15    24    1
    17    24    26    1
    18    11    26    1
    19    26    28    1
    20    28    29    1
    21    29    30    1
    22    10    30    1
    23    30    32    1
    24     6    32    1
    25    32    34    1
    26     2    34    1
    27     1     2    1
    28     2     3    1
    29     6     7    1
    30    11    12    1
    31    15    16    1
    32    17    18    1
    33    17    19    1
    34    20    21    2
    35    24    25    1
    36    26    27    1
    37    30    31    1
    38    32    33    1
    39     1    35    1
    40     1    36    1
    41     1    37    1
    42     3    38    1
    43     3    39    1
    44     3    40    1
    45     4    41    1
    46     4    42    1
    47     5    43    1
    48     5    44    1
    49     7    45    1
    50     7    46    1
    51     7    47    1
    52     8    48    1
    53     8    49    1
    54     9    50    1
    55    12    51    1
    56    12    52    1
    57    12    53    1
    58    13    54    1
    59    13    55    1
    60    14    56    1
    61    14    57    1
    62    18    58    1
    63    18    59    1
    64    18    60    1
    65    19    61    1
    66    19    62    1
    67    19    63    1
    68    22    64    1
    69    22    65    1
    70    23    66    1
    71    23    67    1
    72    25    68    1
    73    25    69    1
    74    25    70    1
    75    28    71    1
    76    28    72    1
    77    29    73    1
    78    29    74    1
    79    31    75    1
    80    31    76    1
    81    31    77    1
    82    34    78    1
    83    34    79    1
