REMARK  Name = NuBBE_81
REMARK  5 active torsions:
REMARK  status: ('A' for Active; 'I' for Inactive)
REMARK    1  A    between atoms: C_2  and  C_8
REMARK    2  A    between atoms: C_8  and  C_9
REMARK    3  A    between atoms: C_9  and  C_10
REMARK    4  A    between atoms: C_10  and  C_11
REMARK    5  A    between atoms: C_11  and  C_12
REMARK                            x       y       z     vdW  Elec       q    Type
REMARK                         _______ _______ _______ _____ _____    ______ ____
ROOT
ATOM      1  C   LIG A   1       0.887   0.191  -0.233  0.00  0.00    +0.005 C 
ENDROOT
BRANCH   1   2
ATOM      2  C   LIG A   1       0.551  -0.770   0.915  0.00  0.00    +0.010 C 
BRANCH   2   3
ATOM      3  C   LIG A   1      -0.941  -0.743   1.266  0.00  0.00    +0.096 C 
BRANCH   3   5
ATOM      4  O   LIG A   1      -0.433  -2.380   2.967  0.00  0.00    -0.276 OA
ATOM      5  C   LIG A   1      -1.282  -1.684   2.418  0.00  0.00    +0.216 C 
ATOM      6  N   LIG A   1      -2.607  -1.712   2.804  0.00  0.00    -0.301 N 
ATOM      7  C   LIG A   1      -3.074  -2.588   3.868  0.00  0.00    +0.107 C 
ATOM      8  C   LIG A   1      -4.594  -2.523   3.777  0.00  0.00    +0.020 C 
ATOM      9  C   LIG A   1      -4.842  -1.125   3.227  0.00  0.00    +0.020 C 
ATOM     10  C   LIG A   1      -3.702  -0.945   2.235  0.00  0.00    +0.107 C 
ENDBRANCH   3   5
ENDBRANCH   2   3
ENDBRANCH   1   2
BRANCH   1  11
ATOM     11  C   LIG A   1       2.383   0.169  -0.574  0.00  0.00    +0.035 C 
BRANCH  11  12
ATOM     12  C   LIG A   1       2.744   1.095  -1.716  0.00  0.00    -0.044 A 
ATOM     13  C   LIG A   1       3.123   2.434  -1.463  0.00  0.00    +0.007 A 
ATOM     14  C   LIG A   1       3.466   3.300  -2.510  0.00  0.00    +0.050 A 
ATOM     15  C   LIG A   1       3.418   2.805  -3.795  0.00  0.00    +0.166 A 
ATOM     16  C   LIG A   1       3.052   1.507  -4.054  0.00  0.00    +0.167 A 
ATOM     17  O   LIG A   1       3.073   1.218  -5.383  0.00  0.00    -0.453 OA
ATOM     18  C   LIG A   1       3.491   2.487  -5.931  0.00  0.00    +0.466 C 
ATOM     19  O   LIG A   1       3.713   3.499  -4.927  0.00  0.00    -0.453 OA
ATOM     20  C   LIG A   1       2.709   0.631  -3.042  0.00  0.00    +0.053 A 
ENDBRANCH  11  12
ENDBRANCH   1  11
TORSDOF 5
