REMARK  Name = NuBBE_1919
REMARK  4 active torsions:
REMARK  status: ('A' for Active; 'I' for Inactive)
REMARK    1  A    between atoms: C_1  and  C_2
REMARK    2  A    between atoms: C_8  and  C_10
REMARK    3  A    between atoms: C_13  and  C_16
REMARK    4  A    between atoms: C_16  and  C_18
REMARK                            x       y       z     vdW  Elec       q    Type
REMARK                         _______ _______ _______ _____ _____    ______ ____
ROOT
ATOM      1  C   LIG A   1      -0.882   2.950  -1.395  0.00  0.00    +0.012 C 
ATOM      2  C   LIG A   1       0.463   2.259  -1.189  0.00  0.00    +0.012 C 
ATOM      3  C   LIG A   1       0.430   0.796  -0.773  0.00  0.00    -0.067 C 
ATOM      4  C   LIG A   1       1.339   0.545   0.192  0.00  0.00    -0.067 C 
ATOM      5  C   LIG A   1       2.078   1.810   0.559  0.00  0.00    +0.031 C 
ATOM      6  C   LIG A   1       1.226   2.914  -0.040  0.00  0.00    +0.012 C 
ATOM      7  C   LIG A   1       1.800  -0.778   0.769  0.00  0.00    +0.012 C 
ATOM      8  C   LIG A   1       2.512  -0.620   2.126  0.00  0.00    +0.012 C 
ATOM      9  C   LIG A   1       0.712  -1.849   0.946  0.00  0.00    +0.008 C 
ATOM     10  C   LIG A   1       0.090  -2.346  -0.353  0.00  0.00    +0.009 C 
ATOM     11  C   LIG A   1      -0.996  -1.438  -0.944  0.00  0.00    +0.018 C 
ATOM     12  C   LIG A   1      -0.418  -0.153  -1.574  0.00  0.00    +0.039 C 
ENDROOT
BRANCH  11  13
ATOM     13  C   LIG A   1      -2.206  -1.271  -0.017  0.00  0.00    -0.076 C 
ATOM     14  C   LIG A   1      -2.506  -0.152   0.666  0.00  0.00    +0.007 C 
ATOM     15  C   LIG A   1      -3.118  -2.470   0.082  0.00  0.00    +0.038 C 
ENDBRANCH  11  13
TORSDOF 1
