REMARK  Name = NuBBE_1914
REMARK  3 active torsions:
REMARK  status: ('A' for Active; 'I' for Inactive)
REMARK    1  A    between atoms: C_1  and  C_3
REMARK    2  A    between atoms: C_1  and  C_4
REMARK    3  A    between atoms: C_7  and  C_10
REMARK                            x       y       z     vdW  Elec       q    Type
REMARK                         _______ _______ _______ _____ _____    ______ ____
ROOT
ATOM      1  C   LIG A   1      -0.273  -0.151   1.247  0.00  0.00    +0.018 C 
ATOM      2  C   LIG A   1       0.492   1.136   0.889  0.00  0.00    +0.012 C 
ATOM      3  C   LIG A   1       0.902   1.182  -0.587  0.00  0.00    +0.030 C 
ATOM      4  C   LIG A   1       1.496  -0.114  -1.082  0.00  0.00    -0.076 C 
ATOM      5  C   LIG A   1       1.374  -1.260  -0.390  0.00  0.00    -0.027 C 
ATOM      6  C   LIG A   1       0.611  -1.376   0.902  0.00  0.00    +0.035 C 
ATOM      7  C   LIG A   1       2.225  -0.046  -2.393  0.00  0.00    +0.038 C 
ENDROOT
BRANCH   1   8
ATOM      8  C   LIG A   1      -1.693  -0.150   0.668  0.00  0.00    -0.076 C 
ATOM      9  C   LIG A   1      -2.096  -0.888  -0.380  0.00  0.00    +0.007 C 
ATOM     10  C   LIG A   1      -2.682   0.737   1.384  0.00  0.00    +0.038 C 
ENDBRANCH   1   8
TORSDOF 1
