@<TRIPOS>MOLECULE
NuBBE_2181
 55 56 0 0 0
SMALL
GASTEIGER

@<TRIPOS>ATOM
      1 C           0.3198   -0.9545    0.4994 C.3     1  LIG1        0.0000
      2 H           0.0276   -1.9796    0.2263 H       1  LIG1        0.0337
      3 C          -0.2469    0.0108   -0.5711 C.3     1  LIG1       -0.0216
      4 C           0.1373   -0.3319   -1.9886 C.ar    1  LIG1       -0.0433
      5 C           1.2990    0.2048   -2.5627 C.ar    1  LIG1       -0.0131
      6 C           1.6460   -0.0744   -3.8900 C.ar    1  LIG1        0.1617
      7 O           2.7566    0.4549   -4.5003 O.3     1  LIG1       -0.4914
      8 C           3.2621    1.6745   -3.9598 C.3     1  LIG1        0.0790
      9 C           0.8296   -0.9371   -4.6450 C.ar    1  LIG1        0.1615
     10 C          -0.3099   -1.4980   -4.0548 C.ar    1  LIG1       -0.0160
     11 C          -0.6600   -1.1907   -2.7432 C.ar    1  LIG1       -0.0549
     12 O           1.1970   -1.2078   -5.9429 O.3     1  LIG1       -0.4915
     13 C           0.1201   -1.5563   -6.8116 C.3     1  LIG1        0.0790
     14 C           1.8628   -0.9684    0.4887 C.3     1  LIG1       -0.0588
     15 C          -0.2685   -0.6549    1.9343 C.3     1  LIG1        0.1473
     16 O           0.3007   -1.6376    2.8232 O.3     1  LIG1       -0.3645
     17 C          -0.0956   -1.5644    4.1880 C.3     1  LIG1        0.0382
     18 C          -1.7944   -0.8271    1.9003 C.2     1  LIG1        0.1367
     19 C          -2.6379    0.1699    2.2267 C.2     1  LIG1        0.0260
     20 C          -2.1492    1.4946    2.6584 C.2     1  LIG1        0.1855
     21 O          -2.9621    2.3717    2.9660 O.2     1  LIG1       -0.2875
     22 C          -0.6846    1.7238    2.7229 C.2     1  LIG1        0.0023
     23 C           0.1529    0.7245    2.3941 C.2     1  LIG1       -0.0379
     24 C          -0.2132    3.0852    3.1569 C.3     1  LIG1       -0.0063
     25 C          -0.0076    3.1498    4.6438 C.2     1  LIG1       -0.0867
     26 C           1.1593    2.9037    5.2543 C.2     1  LIG1       -0.1023
     27 O          -2.1931   -2.1022    1.5369 O.2     1  LIG1       -0.4960
     28 C          -3.4392   -2.2405    0.8674 C.3     1  LIG1        0.0785
     29 H           0.0553    1.0448   -0.3655 H       1  LIG1        0.0317
     30 H          -1.3435    0.0184   -0.5342 H       1  LIG1        0.0317
     31 H           1.9334    0.8346   -1.9462 H       1  LIG1        0.0658
     32 H           4.0309    1.4678   -3.2072 H       1  LIG1        0.0660
     33 H           2.4801    2.3174   -3.5397 H       1  LIG1        0.0660
     34 H           3.7274    2.2359   -4.7755 H       1  LIG1        0.0660
     35 H          -0.9509   -2.1873   -4.5918 H       1  LIG1        0.0655
     36 H          -1.5603   -1.6307   -2.3218 H       1  LIG1        0.0621
     37 H           0.5088   -1.6479   -7.8293 H       1  LIG1        0.0660
     38 H          -0.6473   -0.7737   -6.8095 H       1  LIG1        0.0660
     39 H          -0.3137   -2.5279   -6.5511 H       1  LIG1        0.0660
     40 H           2.2491   -1.3219   -0.4723 H       1  LIG1        0.0234
     41 H           2.2611   -1.6497    1.2463 H       1  LIG1        0.0234
     42 H           2.2814    0.0273    0.6645 H       1  LIG1        0.0234
     43 H           0.4793   -0.7923    4.7068 H       1  LIG1        0.0524
     44 H           0.1300   -2.5275    4.6542 H       1  LIG1        0.0524
     45 H          -1.1657   -1.3790    4.3130 H       1  LIG1        0.0524
     46 H          -3.7134    0.0607    2.2426 H       1  LIG1        0.0690
     47 H           1.2228    0.8940    2.4795 H       1  LIG1        0.0609
     48 H          -0.9258    3.8641    2.8579 H       1  LIG1        0.0357
     49 H           0.7182    3.3448    2.6359 H       1  LIG1        0.0357
     50 H          -0.8779    3.4162    5.2412 H       1  LIG1        0.0570
     51 H           2.0467    2.6225    4.6955 H       1  LIG1        0.0532
     52 H           1.2436    2.9616    6.3350 H       1  LIG1        0.0532
     53 H          -3.5695   -3.2998    0.6268 H       1  LIG1        0.0660
     54 H          -3.4300   -1.6779   -0.0716 H       1  LIG1        0.0660
     55 H          -4.2786   -1.9375    1.4987 H       1  LIG1        0.0660
@<TRIPOS>BOND
     1     1     2    1
     2     1     3    1
     3     3     4    1
     4     4     5   ar
     5     5     6   ar
     6     6     7    1
     7     7     8    1
     8     6     9   ar
     9     9    10   ar
    10    10    11   ar
    11     4    11   ar
    12     9    12    1
    13    12    13    1
    14     1    14    1
    15    16    17    1
    16    15    18    1
    17    18    19    2
    18    19    20    1
    19    20    21    2
    20    20    22    1
    21    22    23    2
    22    15    23    1
    23    22    24    1
    24    24    25    1
    25    25    26    2
    26    18    27    1
    27    27    28    1
    28    15    16    1
    29    15     1    1
    30     3    29    1
    31     3    30    1
    32     5    31    1
    33     8    32    1
    34     8    33    1
    35     8    34    1
    36    10    35    1
    37    11    36    1
    38    13    37    1
    39    13    38    1
    40    13    39    1
    41    14    40    1
    42    14    41    1
    43    14    42    1
    44    17    43    1
    45    17    44    1
    46    17    45    1
    47    19    46    1
    48    23    47    1
    49    24    48    1
    50    24    49    1
    51    25    50    1
    52    26    51    1
    53    26    52    1
    54    28    53    1
    55    28    54    1
    56    28    55    1
