REMARK  Name = NuBBE_1978
REMARK  1 active torsions:
REMARK  status: ('A' for Active; 'I' for Inactive)
REMARK    1  A    between atoms: C_1  and  C_3
REMARK                            x       y       z     vdW  Elec       q    Type
REMARK                         _______ _______ _______ _____ _____    ______ ____
ROOT
ATOM      1  C   LIG A   1      -0.088  -0.117  -0.906  0.00  0.00    +0.102 C 
ATOM      2  C   LIG A   1       0.466   0.984  -0.025  0.00  0.00    -0.012 C 
ATOM      3  C   LIG A   1       1.284   0.896   1.043  0.00  0.00    -0.018 C 
ATOM      4  C   LIG A   1       1.856  -0.336   1.696  0.00  0.00    +0.107 C 
ATOM      5  S   LIG A   1       0.910  -1.836   1.336  0.00  0.00    -0.088 S 
ATOM      6  S   LIG A   1       0.808  -1.694  -0.711  0.00  0.00    -0.081 S 
ENDROOT
BRANCH   1   7
ATOM      7  C   LIG A   1      -1.561  -0.319  -0.666  0.00  0.00    -0.016 C 
ATOM      8  C   LIG A   1      -2.518  -0.140  -1.589  0.00  0.00    +0.005 C 
ENDBRANCH   1   7
TORSDOF 1
