REMARK  Name = NuBBE_1801
REMARK  21 active torsions:
REMARK  status: ('A' for Active; 'I' for Inactive)
REMARK    1  A    between atoms: C_4  and  C_5
REMARK    2  A    between atoms: C_5  and  C_6
REMARK    3  A    between atoms: C_6  and  O_7
REMARK    4  A    between atoms: C_6  and  C_11
REMARK    5  A    between atoms: O_7  and  C_8
REMARK    6  A    between atoms: C_8  and  C_9
REMARK    7  A    between atoms: C_8  and  C_10
REMARK    8  A    between atoms: C_11  and  O_12
REMARK    9  A    between atoms: O_12  and  C_13
REMARK   10  A    between atoms: C_13  and  C_14
REMARK   11  A    between atoms: C_13  and  C_15
REMARK   12  A    between atoms: C_17  and  C_18
REMARK   13  A    between atoms: C_18  and  C_19
REMARK   14  A    between atoms: C_19  and  C_20
REMARK   15  A    between atoms: C_20  and  C_21
REMARK   16  A    between atoms: C_21  and  C_22
REMARK   17  A    between atoms: C_22  and  C_23
REMARK   18  A    between atoms: C_23  and  C_24
REMARK   19  A    between atoms: C_24  and  C_25
REMARK   20  A    between atoms: C_25  and  C_26
REMARK   21  A    between atoms: C_26  and  C_27
REMARK                            x       y       z     vdW  Elec       q    Type
REMARK                         _______ _______ _______ _____ _____    ______ ____
ROOT
ATOM      1  O   LIG A   1      -3.991   0.216   1.827  0.00  0.00    -0.251 OA
ATOM      2  C   LIG A   1      -2.773   0.040   1.774  0.00  0.00    +0.311 C 
ATOM      3  O   LIG A   1      -2.189  -1.078   1.255  0.00  0.00    -0.461 OA
ATOM      4  C   LIG A   1      -1.733   0.992   2.297  0.00  0.00    +0.104 C 
ATOM      5  C   LIG A   1      -0.523   0.503   1.532  0.00  0.00    +0.059 C 
ATOM      6  C   LIG A   1      -0.775  -0.984   1.459  0.00  0.00    +0.177 C 
ENDROOT
BRANCH   6   7
ATOM      7  C   LIG A   1      -0.007  -1.620   0.312  0.00  0.00    +0.045 C 
BRANCH   7   8
ATOM      8  C   LIG A   1      -0.269  -3.123   0.186  0.00  0.00    +0.003 C 
BRANCH   8   9
ATOM      9  C   LIG A   1       0.528  -3.755  -0.961  0.00  0.00    +0.000 C 
BRANCH   9  10
ATOM     10  C   LIG A   1       0.159  -3.138  -2.312  0.00  0.00    -0.000 C 
BRANCH  10  11
ATOM     11  C   LIG A   1       0.926  -3.748  -3.482  0.00  0.00    -0.000 C 
BRANCH  11  12
ATOM     12  C   LIG A   1       0.501  -3.073  -4.794  0.00  0.00    -0.000 C 
BRANCH  12  13
ATOM     13  C   LIG A   1       1.248  -3.635  -6.008  0.00  0.00    -0.000 C 
BRANCH  13  14
ATOM     14  C   LIG A   1       0.825  -2.956  -7.320  0.00  0.00    -0.000 C 
BRANCH  14  15
ATOM     15  C   LIG A   1       1.569  -3.543  -8.526  0.00  0.00    -0.003 C 
ATOM     16  C   LIG A   1       1.170  -2.889  -9.842  0.00  0.00    +0.004 C 
ENDBRANCH  14  15
ENDBRANCH  13  14
ENDBRANCH  12  13
ENDBRANCH  11  12
ENDBRANCH  10  11
ENDBRANCH   9  10
ENDBRANCH   8   9
ENDBRANCH   7   8
ENDBRANCH   6   7
BRANCH   4  17
ATOM     17  C   LIG A   1      -1.669   0.876   3.826  0.00  0.00    +0.048 C 
BRANCH  17  18
ATOM     18  C   LIG A   1      -0.643   1.773   4.541  0.00  0.00    +0.145 C 
BRANCH  18  19
ATOM     19  C   LIG A   1      -1.019   3.268   4.485  0.00  0.00    +0.191 C 
BRANCH  19  20
ATOM     20  O   LIG A   1      -1.110   3.784   3.158  0.00  0.00    -0.375 OA
BRANCH  20  21
ATOM     21  C   LIG A   1      -1.434   5.181   3.107  0.00  0.00    +0.112 C 
ATOM     22  C   LIG A   1      -1.527   5.586   1.638  0.00  0.00    +0.037 C 
ATOM     23  C   LIG A   1      -2.755   5.501   3.807  0.00  0.00    +0.037 C 
ENDBRANCH  20  21
ENDBRANCH  19  20
ENDBRANCH  18  19
BRANCH  18  24
ATOM     24  O   LIG A   1       0.667   1.454   4.061  0.00  0.00    -0.372 OA
BRANCH  24  25
ATOM     25  C   LIG A   1       1.768   2.167   4.627  0.00  0.00    +0.112 C 
ATOM     26  C   LIG A   1       1.851   1.974   6.136  0.00  0.00    +0.037 C 
ATOM     27  C   LIG A   1       3.048   1.644   3.976  0.00  0.00    +0.037 C 
ENDBRANCH  24  25
ENDBRANCH  18  24
ENDBRANCH  17  18
ENDBRANCH   4  17
TORSDOF 16
