@<TRIPOS>MOLECULE
NuBBE_969
 48 48 0 0 0
SMALL
GASTEIGER

@<TRIPOS>ATOM
      1 C           0.5345    3.4835    2.6750 C.3     1  LIG1       -0.0361
      2 C          -0.0985    3.0210    1.3545 C.3     1  LIG1        0.0633
      3 C          -1.4749    3.6927    1.2045 C.3     1  LIG1       -0.0361
      4 O           0.7407    3.4677    0.2887 O.3     1  LIG1       -0.3888
      5 C          -0.2156    1.4677    1.2708 C.3     1  LIG1       -0.0121
      6 H          -0.9322    1.2165    2.0603 H       1  LIG1        0.0328
      7 C          -0.8354    0.9964   -0.0723 C.3     1  LIG1       -0.0402
      8 C          -0.2448   -0.2912   -0.7083 C.3     1  LIG1       -0.0079
      9 H          -1.0735   -0.7128   -1.2986 H       1  LIG1        0.0355
     10 C           0.8436    0.0298   -1.7692 C.2     1  LIG1       -0.0757
     11 C           0.3444    0.2318   -3.1857 C.3     1  LIG1       -0.0437
     12 C           2.1769    0.0909   -1.5985 C.2     1  LIG1       -0.0994
     13 C           0.0582   -1.3508    0.4153 C.3     1  LIG1        0.0291
     14 C           0.6148   -2.6900   -0.1888 C.3     1  LIG1        0.1020
     15 O          -0.3307   -3.3676   -1.0553 O.3     1  LIG1       -0.4639
     16 C           0.0884   -3.6837   -2.3135 C.2     1  LIG1        0.3040
     17 C          -0.9089   -4.5848   -2.9988 C.3     1  LIG1        0.0332
     18 O           1.1356   -3.3575   -2.8213 O.2     1  LIG1       -0.2512
     19 C          -1.2649   -1.7050    1.1564 C.2     1  LIG1       -0.0812
     20 C          -1.7147   -1.2987    2.3556 C.2     1  LIG1       -0.1020
     21 C           1.1150   -0.7868    1.4001 C.3     1  LIG1       -0.0399
     22 C           1.0917    0.7350    1.6217 C.3     1  LIG1       -0.0467
     23 H          -0.0032    3.0855    3.5425 H       1  LIG1        0.0257
     24 H           0.5349    4.5771    2.7445 H       1  LIG1        0.0257
     25 H           1.5854    3.1826    2.7433 H       1  LIG1        0.0257
     26 H          -2.1381    3.4463    2.0407 H       1  LIG1        0.0257
     27 H          -1.9743    3.4005    0.2758 H       1  LIG1        0.0257
     28 H          -1.3718    4.7826    1.1538 H       1  LIG1        0.0257
     29 H           0.7053    4.4382    0.2617 H       1  LIG1        0.2101
     30 H          -0.8697    1.8003   -0.8155 H       1  LIG1        0.0275
     31 H          -1.8963    0.7953    0.1465 H       1  LIG1        0.0275
     32 H           1.1600    0.4727   -3.8806 H       1  LIG1        0.0274
     33 H          -0.3750    1.0531   -3.2436 H       1  LIG1        0.0274
     34 H          -0.1222   -0.6867   -3.5535 H       1  LIG1        0.0274
     35 H           2.8383    0.2810   -2.4425 H       1  LIG1        0.0534
     36 H           2.6900   -0.0426   -0.6604 H       1  LIG1        0.0534
     37 H           0.8246   -3.3901    0.6310 H       1  LIG1        0.0706
     38 H           1.5699   -2.5282   -0.6972 H       1  LIG1        0.0706
     39 H          -0.8226   -5.5981   -2.6015 H       1  LIG1        0.0342
     40 H          -0.6864   -4.6058   -4.0696 H       1  LIG1        0.0342
     41 H          -1.9245   -4.2047   -2.8734 H       1  LIG1        0.0342
     42 H          -1.9297   -2.3731    0.6081 H       1  LIG1        0.0573
     43 H          -1.1725   -0.6227    3.0072 H       1  LIG1        0.0532
     44 H          -2.6921   -1.6107    2.7141 H       1  LIG1        0.0532
     45 H           2.1250   -1.0531    1.0638 H       1  LIG1        0.0275
     46 H           1.0434   -1.2971    2.3700 H       1  LIG1        0.0275
     47 H           1.9178    1.1885    1.0635 H       1  LIG1        0.0269
     48 H           1.3342    0.9052    2.6787 H       1  LIG1        0.0269
@<TRIPOS>BOND
     1     1     2    1
     2     2     3    1
     3     2     4    1
     4     2     5    1
     5     5     6    1
     6     5     7    1
     7     7     8    1
     8    10    11    1
     9    10    12    2
    10     8    13    1
    11    13    14    1
    12    14    15    1
    13    15    16    1
    14    16    17    1
    15    16    18    2
    16    13    19    1
    17    19    20    2
    18    13    21    1
    19    21    22    1
    20     5    22    1
    21     8    10    1
    22     8     9    1
    23     1    23    1
    24     1    24    1
    25     1    25    1
    26     3    26    1
    27     3    27    1
    28     3    28    1
    29     4    29    1
    30     7    30    1
    31     7    31    1
    32    11    32    1
    33    11    33    1
    34    11    34    1
    35    12    35    1
    36    12    36    1
    37    14    37    1
    38    14    38    1
    39    17    39    1
    40    17    40    1
    41    17    41    1
    42    19    42    1
    43    20    43    1
    44    20    44    1
    45    21    45    1
    46    21    46    1
    47    22    47    1
    48    22    48    1
