REMARK  Name = NuBBE_2047
REMARK  8 active torsions:
REMARK  status: ('A' for Active; 'I' for Inactive)
REMARK    1  A    between atoms: O_1  and  C_2
REMARK    2  A    between atoms: C_12  and  O_13
REMARK    3  A    between atoms: O_13  and  C_14
REMARK    4  A    between atoms: C_15  and  O_19
REMARK    5  A    between atoms: C_16  and  O_18
REMARK    6  A    between atoms: O_19  and  C_20
REMARK    7  A    between atoms: C_25  and  O_26
REMARK    8  A    between atoms: O_26  and  C_27
REMARK                            x       y       z     vdW  Elec       q    Type
REMARK                         _______ _______ _______ _____ _____    ______ ____
ROOT
ATOM      1  C   LIG A   1      -2.849   2.669  -0.204  0.00  0.00    +0.159 A 
ATOM      2  C   LIG A   1      -2.048   1.595  -0.590  0.00  0.00    +0.060 A 
ATOM      3  C   LIG A   1      -0.651   1.677  -0.491  0.00  0.00    +0.039 A 
ATOM      4  C   LIG A   1       0.199   0.539  -0.967  0.00  0.00    +0.218 C 
ATOM      5  C   LIG A   1       1.700   0.760  -0.773  0.00  0.00    +0.106 C 
ATOM      6  C   LIG A   1       2.097  -0.651  -0.516  0.00  0.00    +0.012 A 
ATOM      7  C   LIG A   1       0.967  -1.419  -0.215  0.00  0.00    +0.170 A 
ATOM      8  O   LIG A   1      -0.180  -0.660  -0.250  0.00  0.00    -0.479 OA
ATOM      9  C   LIG A   1       1.030  -2.782   0.072  0.00  0.00    +0.208 A 
ATOM     10  C   LIG A   1       2.308  -3.371   0.037  0.00  0.00    +0.207 A 
ATOM     11  C   LIG A   1       3.435  -2.585  -0.301  0.00  0.00    +0.163 A 
ATOM     12  C   LIG A   1       3.351  -1.224  -0.566  0.00  0.00    +0.057 A 
ATOM     13  C   LIG A   1       1.946   1.710   0.390  0.00  0.00    +0.241 C 
ATOM     14  O   LIG A   1       1.283   2.969   0.186  0.00  0.00    -0.491 OA
ATOM     15  C   LIG A   1      -0.072   2.834   0.029  0.00  0.00    +0.131 A 
ATOM     16  C   LIG A   1      -0.873   3.922   0.381  0.00  0.00    +0.095 A 
ATOM     17  C   LIG A   1      -2.269   3.854   0.257  0.00  0.00    +0.165 A 
ENDROOT
BRANCH   1  18
ATOM     18  O   LIG A   1      -4.206   2.513  -0.276  0.00  0.00    -0.503 OA
ATOM     19  H   LIG A   1      -4.410   1.578  -0.439  0.00  0.00    +0.292 HD
ENDBRANCH   1  18
BRANCH   9  20
ATOM     20  O   LIG A   1      -0.036  -3.595   0.333  0.00  0.00    -0.488 OA
ATOM     21  C   LIG A   1      -1.343  -3.039   0.338  0.00  0.00    +0.277 C 
ENDBRANCH   9  20
BRANCH  11  22
ATOM     22  O   LIG A   1       4.673  -3.172  -0.378  0.00  0.00    -0.503 OA
ATOM     23  H   LIG A   1       4.510  -4.120  -0.204  0.00  0.00    +0.292 HD
ENDBRANCH  11  22
BRANCH  10  24
ATOM     24  O   LIG A   1       2.624  -4.696   0.248  0.00  0.00    -0.488 OA
ATOM     25  C   LIG A   1       1.777  -5.427   1.128  0.00  0.00    +0.277 C 
ENDBRANCH  10  24
BRANCH  17  26
ATOM     26  O   LIG A   1      -2.922   4.986   0.672  0.00  0.00    -0.491 OA
ATOM     27  C   LIG A   1      -4.189   5.242   0.077  0.00  0.00    +0.277 C 
ENDBRANCH  17  26
TORSDOF 5
