@<TRIPOS>MOLECULE
NuBBE_1839
 54 56 0 0 0
SMALL
GASTEIGER

@<TRIPOS>ATOM
      1 C          -4.4925   -0.8871   -0.9125 C.3     1  LIG1        0.0382
      2 O          -3.1470   -1.0257   -1.3778 O.3     1  LIG1       -0.3644
      3 C          -2.2734    0.0758   -1.0879 C.3     1  LIG1        0.1507
      4 C          -2.2129    0.3561    0.3860 C.2     1  LIG1        0.1382
      5 O          -1.3473   -0.4838    1.0723 O.2     1  LIG1       -0.4847
      6 C          -0.6419   -1.2018    0.0287 C.3     1  LIG1        0.1310
      7 H          -1.1601   -2.1631   -0.1078 H       1  LIG1        0.0788
      8 C           0.7672   -1.4877    0.5078 C.ar    1  LIG1        0.0001
      9 C           1.0166   -2.6826    1.1972 C.ar    1  LIG1       -0.0094
     10 C           2.3017   -3.0132    1.6514 C.ar    1  LIG1        0.1655
     11 O           2.3598   -4.2403    2.2620 O.3     1  LIG1       -0.4913
     12 C           3.3494   -4.4087    3.2694 C.3     1  LIG1        0.0790
     13 C           3.3789   -2.1403    1.4178 C.ar    1  LIG1        0.2035
     14 O           4.6314   -2.5705    1.7861 O.3     1  LIG1       -0.4885
     15 C           5.5221   -1.5865    2.3046 C.3     1  LIG1        0.0791
     16 C           3.1410   -0.9333    0.7358 C.ar    1  LIG1        0.1655
     17 O           4.2274   -0.1608    0.4120 O.3     1  LIG1       -0.4913
     18 C           4.0140    1.2412    0.3309 C.3     1  LIG1        0.0790
     19 C           1.8442   -0.6146    0.2999 C.ar    1  LIG1       -0.0094
     20 C          -0.8101   -0.3536   -1.2499 C.3     1  LIG1        0.0372
     21 H          -0.1867    0.5506   -1.2066 H       1  LIG1        0.0373
     22 C          -0.4245   -1.1152   -2.5128 C.3     1  LIG1       -0.0553
     23 C          -2.7809    1.4165    0.9724 C.2     1  LIG1        0.0261
     24 C          -3.4716    2.4178    0.1321 C.2     1  LIG1        0.1855
     25 C          -3.2580    2.3640   -1.3513 C.2     1  LIG1        0.0023
     26 C          -3.7517    3.5380   -2.1501 C.3     1  LIG1       -0.0063
     27 C          -2.6947    4.5990   -2.2795 C.2     1  LIG1       -0.0867
     28 C          -2.5590    5.6204   -1.4233 C.2     1  LIG1       -0.1023
     29 C          -2.6832    1.2722   -1.8990 C.2     1  LIG1       -0.0378
     30 O          -4.1597    3.2947    0.6662 O.2     1  LIG1       -0.2875
     31 H          -4.9787   -0.0094   -1.3478 H       1  LIG1        0.0524
     32 H          -4.5407   -0.8377    0.1805 H       1  LIG1        0.0524
     33 H          -5.0559   -1.7706   -1.2241 H       1  LIG1        0.0524
     34 H           0.2014   -3.3818    1.3852 H       1  LIG1        0.0659
     35 H           2.8802   -4.9218    4.1120 H       1  LIG1        0.0660
     36 H           3.7408   -3.4726    3.6765 H       1  LIG1        0.0660
     37 H           4.1594   -5.0366    2.8844 H       1  LIG1        0.0660
     38 H           6.1319   -1.1839    1.4923 H       1  LIG1        0.0660
     39 H           6.2031   -2.0842    3.0032 H       1  LIG1        0.0660
     40 H           5.0129   -0.7897    2.8601 H       1  LIG1        0.0660
     41 H           4.9981    1.7195    0.3115 H       1  LIG1        0.0660
     42 H           3.4741    1.6179    1.2059 H       1  LIG1        0.0660
     43 H           3.5013    1.5039   -0.5984 H       1  LIG1        0.0660
     44 H           1.6818    0.3030   -0.2515 H       1  LIG1        0.0659
     45 H          -0.9147   -2.0912   -2.5747 H       1  LIG1        0.0235
     46 H           0.6581   -1.2924   -2.5295 H       1  LIG1        0.0235
     47 H          -0.6717   -0.5437   -3.4123 H       1  LIG1        0.0235
     48 H          -2.7190    1.6031    2.0346 H       1  LIG1        0.0690
     49 H          -4.0449    3.2160   -3.1579 H       1  LIG1        0.0357
     50 H          -4.6678    3.9542   -1.7123 H       1  LIG1        0.0357
     51 H          -2.0131    4.5182   -3.1228 H       1  LIG1        0.0570
     52 H          -3.2147    5.7256   -0.5619 H       1  LIG1        0.0532
     53 H          -1.7773    6.3616   -1.5523 H       1  LIG1        0.0532
     54 H          -2.5434    1.2154   -2.9746 H       1  LIG1        0.0609
@<TRIPOS>BOND
     1     1     2    1
     2     3     4    1
     3     4     5    1
     4     5     6    1
     5     8     9   ar
     6     9    10   ar
     7    10    11    1
     8    11    12    1
     9    10    13   ar
    10    13    14    1
    11    14    15    1
    12    13    16   ar
    13    16    17    1
    14    17    18    1
    15    16    19   ar
    16     8    19   ar
    17     6    20    1
    18     3    20    1
    19     4    23    2
    20    23    24    1
    21    24    25    1
    22    26    27    1
    23    27    28    2
    24    25    29    2
    25     3    29    1
    26     2     3    1
    27    20    21    1
    28    20    22    1
    29    24    30    2
    30    25    26    1
    31     6     8    1
    32     6     7    1
    33     1    31    1
    34     1    32    1
    35     1    33    1
    36     9    34    1
    37    12    35    1
    38    12    36    1
    39    12    37    1
    40    15    38    1
    41    15    39    1
    42    15    40    1
    43    18    41    1
    44    18    42    1
    45    18    43    1
    46    19    44    1
    47    22    45    1
    48    22    46    1
    49    22    47    1
    50    23    48    1
    51    26    49    1
    52    26    50    1
    53    27    51    1
    54    28    52    1
    55    28    53    1
    56    29    54    1
