REMARK  Name = NuBBE_1991
REMARK  11 active torsions:
REMARK  status: ('A' for Active; 'I' for Inactive)
REMARK    1  A    between atoms: C_1  and  C_2
REMARK    2  A    between atoms: C_11  and  C_12
REMARK    3  A    between atoms: C_17  and  O_21
REMARK    4  A    between atoms: C_24  and  C_26
REMARK    5  A    between atoms: C_26  and  C_28
REMARK    6  A    between atoms: C_26  and  C_34
REMARK    7  A    between atoms: C_28  and  C_29
REMARK    8  A    between atoms: C_29  and  C_30
REMARK    9  A    between atoms: C_30  and  C_31
REMARK   10  A    between atoms: C_31  and  C_32
REMARK   11  A    between atoms: C_31  and  C_33
REMARK                            x       y       z     vdW  Elec       q    Type
REMARK                         _______ _______ _______ _____ _____    ______ ____
ROOT
ATOM      1  C   LIG A   1      -1.770  -0.022   0.875  0.00  0.00    +0.012 C 
ATOM      2  C   LIG A   1      -0.373  -0.106   0.181  0.00  0.00    -0.026 C 
ATOM      3  C   LIG A   1       0.474  -1.320   0.626  0.00  0.00    -0.001 C 
ATOM      4  C   LIG A   1       1.055  -1.290   2.044  0.00  0.00    +0.000 C 
ATOM      5  C   LIG A   1       1.803   0.053   2.310  0.00  0.00    +0.003 C 
ATOM      6  C   LIG A   1       1.724   1.050   1.120  0.00  0.00    +0.005 C 
ATOM      7  C   LIG A   1       0.324   1.222   0.530  0.00  0.00    +0.007 C 
ATOM      8  C   LIG A   1       1.683   0.699   3.747  0.00  0.00    -0.008 C 
ATOM      9  C   LIG A   1       3.098   1.269   4.068  0.00  0.00    +0.016 C 
ATOM     10  C   LIG A   1       1.250  -0.308   4.811  0.00  0.00    -0.065 C 
ATOM     11  C   LIG A   1       0.592  -1.439   4.525  0.00  0.00    -0.027 C 
ATOM     12  C   LIG A   1       0.147  -1.810   3.150  0.00  0.00    +0.031 C 
ATOM     13  C   LIG A   1       1.302   0.186   6.237  0.00  0.00    +0.062 C 
ATOM     14  C   LIG A   1       0.339   1.376   6.373  0.00  0.00    +0.119 C 
ATOM     15  C   LIG A   1       0.524   2.435   5.277  0.00  0.00    +0.032 C 
ATOM     16  C   LIG A   1       0.641   1.844   3.858  0.00  0.00    +0.013 C 
ATOM     17  C   LIG A   1      -0.333  -2.521   0.151  0.00  0.00    +0.004 C 
ATOM     18  C   LIG A   1      -0.976  -2.033  -1.165  0.00  0.00    +0.004 C 
ATOM     19  C   LIG A   1      -0.612  -0.513  -1.333  0.00  0.00    -0.002 C 
ENDROOT
BRANCH  14  20
ATOM     20  O   LIG A   1       0.493   1.988   7.652  0.00  0.00    -0.392 OA
ATOM     21  H   LIG A   1       1.399   2.337   7.707  0.00  0.00    +0.210 HD
ENDBRANCH  14  20
BRANCH  19  22
ATOM     22  C   LIG A   1       0.556  -0.347  -2.384  0.00  0.00    -0.010 C 
ATOM     23  C   LIG A   1       1.088   1.082  -2.535  0.00  0.00    +0.008 C 
BRANCH  22  24
ATOM     24  C   LIG A   1       0.223  -0.882  -3.813  0.00  0.00    +0.003 C 
BRANCH  24  25
ATOM     25  C   LIG A   1      -0.860  -0.115  -4.588  0.00  0.00    +0.000 C 
BRANCH  25  26
ATOM     26  C   LIG A   1      -1.088  -0.722  -5.986  0.00  0.00    +0.003 C 
BRANCH  26  27
ATOM     27  C   LIG A   1      -2.153   0.012  -6.831  0.00  0.00    -0.017 C 
ATOM     28  C   LIG A   1      -2.308  -0.652  -8.206  0.00  0.00    +0.007 C 
ATOM     29  C   LIG A   1      -3.514   0.048  -6.136  0.00  0.00    +0.007 C 
ENDBRANCH  26  27
ENDBRANCH  25  26
ENDBRANCH  24  25
ENDBRANCH  22  24
ENDBRANCH  19  22
TORSDOF 6
