REMARK  Name = NuBBE_557
REMARK  14 active torsions:
REMARK  status: ('A' for Active; 'I' for Inactive)
REMARK    1  A    between atoms: O_1  and  C_2
REMARK    2  A    between atoms: C_6  and  O_7
REMARK    3  A    between atoms: C_10  and  O_11
REMARK    4  A    between atoms: O_11  and  C_12
REMARK    5  A    between atoms: C_15  and  C_37
REMARK    6  A    between atoms: C_17  and  O_25
REMARK    7  A    between atoms: C_19  and  O_24
REMARK    8  A    between atoms: C_21  and  O_23
REMARK    9  A    between atoms: O_25  and  C_26
REMARK   10  A    between atoms: C_26  and  C_27
REMARK   11  A    between atoms: C_28  and  C_29
REMARK   12  A    between atoms: C_32  and  O_35
REMARK   13  A    between atoms: C_38  and  C_40
REMARK   14  A    between atoms: C_43  and  O_46
REMARK                            x       y       z     vdW  Elec       q    Type
REMARK                         _______ _______ _______ _____ _____    ______ ____
ROOT
ATOM      1  O   LIG A   1      -1.932  -0.661  -0.205  0.00  0.00    -0.453 OA
ENDROOT
BRANCH   1   9
ATOM      2  C   LIG A   1      -3.008   5.444  -2.082  0.00  0.00    +0.124 A 
ATOM      3  C   LIG A   1      -2.269   4.399  -2.635  0.00  0.00    +0.092 A 
ATOM      4  C   LIG A   1      -2.160   3.190  -1.937  0.00  0.00    +0.146 A 
ATOM      5  C   LIG A   1      -2.792   3.032  -0.711  0.00  0.00    +0.109 A 
ATOM      6  C   LIG A   1      -3.523   4.094  -0.164  0.00  0.00    +0.135 A 
ATOM      7  C   LIG A   1      -3.635   5.299  -0.850  0.00  0.00    +0.091 A 
ATOM      8  C   LIG A   1      -2.711   1.729  -0.039  0.00  0.00    +0.238 A 
ATOM      9  C   LIG A   1      -1.945   0.634  -0.710  0.00  0.00    +0.214 A 
ATOM     10  C   LIG A   1      -1.354   0.951  -1.889  0.00  0.00    +0.181 A 
ATOM     11  O   LIG A   1      -1.416   2.194  -2.509  0.00  0.00    -0.451 OA
ATOM     12  O   LIG A   1      -3.323   1.587   1.016  0.00  0.00    -0.283 OA
BRANCH  10  13
ATOM     13  C   LIG A   1      -0.569   0.002  -2.711  0.00  0.00    +0.021 A 
ATOM     14  C   LIG A   1      -1.187  -0.736  -3.733  0.00  0.00    +0.015 A 
ATOM     15  C   LIG A   1      -0.435  -1.570  -4.572  0.00  0.00    +0.046 A 
ATOM     16  C   LIG A   1       0.942  -1.658  -4.398  0.00  0.00    +0.117 A 
ATOM     17  C   LIG A   1       1.578  -0.912  -3.413  0.00  0.00    +0.046 A 
ATOM     18  C   LIG A   1       0.825  -0.083  -2.572  0.00  0.00    +0.015 A 
BRANCH  16  19
ATOM     19  O   LIG A   1       1.712  -2.463  -5.185  0.00  0.00    -0.507 OA
ATOM     20  H   LIG A   1       1.133  -2.987  -5.763  0.00  0.00    +0.292 HD
ENDBRANCH  16  19
ENDBRANCH  10  13
BRANCH   2  21
ATOM     21  O   LIG A   1      -3.145   6.642  -2.717  0.00  0.00    -0.506 OA
ATOM     22  H   LIG A   1      -2.593   6.652  -3.517  0.00  0.00    +0.292 HD
ENDBRANCH   2  21
BRANCH   6  23
ATOM     23  O   LIG A   1      -4.158   4.018   1.046  0.00  0.00    -0.506 OA
ATOM     24  H   LIG A   1      -4.006   3.117   1.413  0.00  0.00    +0.292 HD
ENDBRANCH   6  23
ENDBRANCH   1   9
BRANCH   1  25
ATOM     25  C   LIG A   1      -2.069  -0.895   1.227  0.00  0.00    +0.340 C 
ATOM     26  O   LIG A   1      -0.998  -0.272   1.930  0.00  0.00    -0.333 OA
ATOM     27  C   LIG A   1      -0.809  -0.707   3.287  0.00  0.00    +0.163 C 
ATOM     28  C   LIG A   1      -0.520  -2.218   3.321  0.00  0.00    +0.236 C 
ATOM     29  C   LIG A   1      -1.679  -3.004   2.734  0.00  0.00    +0.192 C 
ATOM     30  C   LIG A   1      -2.140  -2.447   1.379  0.00  0.00    +0.215 C 
ATOM     31  C   LIG A   1      -1.929  -0.255   4.220  0.00  0.00    +0.042 C 
BRANCH  30  32
ATOM     32  O   LIG A   1      -3.493  -2.935   1.173  0.00  0.00    -0.383 OA
ATOM     33  H   LIG A   1      -3.927  -2.344   0.530  0.00  0.00    +0.210 HD
ENDBRANCH  30  32
BRANCH  29  34
ATOM     34  O   LIG A   1      -2.772  -3.037   3.662  0.00  0.00    -0.385 OA
ATOM     35  H   LIG A   1      -3.537  -3.349   3.135  0.00  0.00    +0.210 HD
ENDBRANCH  29  34
BRANCH  28  36
ATOM     36  O   LIG A   1       0.630  -2.402   2.470  0.00  0.00    -0.453 OA
BRANCH  36  37
ATOM     37  C   LIG A   1       1.750  -2.885   3.047  0.00  0.00    +0.332 C 
ATOM     38  O   LIG A   1       1.814  -3.627   4.000  0.00  0.00    -0.246 OA
BRANCH  37  39
ATOM     39  C   LIG A   1       2.936  -2.290   2.387  0.00  0.00    +0.092 C 
ATOM     40  C   LIG A   1       2.853  -1.395   1.387  0.00  0.00    +0.015 C 
BRANCH  40  41
ATOM     41  C   LIG A   1       4.013  -0.789   0.723  0.00  0.00    -0.025 A 
ATOM     42  C   LIG A   1       5.228  -1.477   0.603  0.00  0.00    +0.011 A 
ATOM     43  C   LIG A   1       6.303  -0.915  -0.084  0.00  0.00    +0.046 A 
ATOM     44  C   LIG A   1       6.161   0.338  -0.667  0.00  0.00    +0.117 A 
ATOM     45  C   LIG A   1       4.968   1.041  -0.560  0.00  0.00    +0.046 A 
ATOM     46  C   LIG A   1       3.892   0.477   0.130  0.00  0.00    +0.011 A 
BRANCH  44  47
ATOM     47  O   LIG A   1       7.183   0.907  -1.366  0.00  0.00    -0.507 OA
ATOM     48  H   LIG A   1       7.917   0.271  -1.408  0.00  0.00    +0.292 HD
ENDBRANCH  44  47
ENDBRANCH  40  41
ENDBRANCH  37  39
ENDBRANCH  36  37
ENDBRANCH  28  36
ENDBRANCH   1  25
TORSDOF 13
