REMARK  Name = NuBBE_866
REMARK  6 active torsions:
REMARK  status: ('A' for Active; 'I' for Inactive)
REMARK    1  A    between atoms: O_1  and  C_2
REMARK    2  A    between atoms: C_4  and  O_5
REMARK    3  A    between atoms: C_9  and  C_11
REMARK    4  A    between atoms: C_14  and  O_15
REMARK    5  A    between atoms: C_16  and  O_17
REMARK    6  A    between atoms: C_19  and  O_21
REMARK                            x       y       z     vdW  Elec       q    Type
REMARK                         _______ _______ _______ _____ _____    ______ ____
ROOT
ATOM      1  C   LIG A   1      -3.657   1.960  -0.613  0.00  0.00    +0.124 A 
ATOM      2  C   LIG A   1      -3.087   3.227  -0.692  0.00  0.00    +0.091 A 
ATOM      3  C   LIG A   1      -1.709   3.358  -0.521  0.00  0.00    +0.127 A 
ATOM      4  C   LIG A   1      -0.896   2.245  -0.272  0.00  0.00    +0.038 A 
ATOM      5  C   LIG A   1      -1.493   0.978  -0.234  0.00  0.00    +0.132 A 
ATOM      6  O   LIG A   1      -0.792  -0.178  -0.005  0.00  0.00    -0.481 OA
ATOM      7  C   LIG A   1       0.619  -0.077  -0.285  0.00  0.00    +0.232 C 
ATOM      8  C   LIG A   1       1.220   1.119   0.481  0.00  0.00    +0.164 C 
ATOM      9  C   LIG A   1       0.588   2.405  -0.058  0.00  0.00    +0.078 C 
ATOM     10  C   LIG A   1      -2.871   0.837  -0.385  0.00  0.00    +0.091 A 
ENDROOT
BRANCH   7  11
ATOM     11  C   LIG A   1       1.222  -1.450  -0.028  0.00  0.00    -0.001 A 
ATOM     12  C   LIG A   1       0.828  -2.520  -0.863  0.00  0.00    +0.011 A 
ATOM     13  C   LIG A   1       1.343  -3.809  -0.692  0.00  0.00    +0.049 A 
ATOM     14  C   LIG A   1       2.259  -4.039   0.323  0.00  0.00    +0.158 A 
ATOM     15  C   LIG A   1       2.655  -2.998   1.157  0.00  0.00    +0.159 A 
ATOM     16  C   LIG A   1       2.148  -1.713   0.993  0.00  0.00    +0.056 A 
BRANCH  14  17
ATOM     17  O   LIG A   1       2.799  -5.275   0.546  0.00  0.00    -0.503 OA
ATOM     18  H   LIG A   1       2.415  -5.891  -0.101  0.00  0.00    +0.292 HD
ENDBRANCH  14  17
BRANCH  15  19
ATOM     19  O   LIG A   1       3.555  -3.235   2.157  0.00  0.00    -0.503 OA
ATOM     20  H   LIG A   1       3.750  -4.190   2.087  0.00  0.00    +0.292 HD
ENDBRANCH  15  19
ENDBRANCH   7  11
BRANCH   1  21
ATOM     21  O   LIG A   1      -5.000   1.773  -0.761  0.00  0.00    -0.506 OA
ATOM     22  H   LIG A   1      -5.431   2.635  -0.881  0.00  0.00    +0.292 HD
ENDBRANCH   1  21
BRANCH   3  23
ATOM     23  O   LIG A   1      -1.119   4.589  -0.596  0.00  0.00    -0.506 OA
ATOM     24  H   LIG A   1      -1.804   5.266  -0.725  0.00  0.00    +0.292 HD
ENDBRANCH   3  23
BRANCH   8  25
ATOM     25  O   LIG A   1       0.969   1.043   1.894  0.00  0.00    -0.388 OA
ATOM     26  H   LIG A   1       0.054   0.720   2.001  0.00  0.00    +0.210 HD
ENDBRANCH   8  25
TORSDOF 6
