@<TRIPOS>MOLECULE
NuBBE_2085
 84 88 0 0 0
SMALL
GASTEIGER

@<TRIPOS>ATOM
      1 C          -2.4420    0.1757   -0.1988 C.2     1  LIG1        0.2263
      2 O          -2.7202    0.7989    0.8476 O.2     1  LIG1       -0.2748
      3 N          -3.5163   -0.1576   -1.1024 N.am    1  LIG1       -0.2381
      4 C          -3.3342   -0.7258   -2.3703 C.2     1  LIG1        0.2454
      5 O          -2.2771   -0.9554   -2.9166 O.2     1  LIG1       -0.2702
      6 C          -4.5414   -1.0526   -3.1741 C.2     1  LIG1       -0.0031
      7 C          -5.7765   -0.7209   -2.8121 C.2     1  LIG1       -0.0776
      8 C          -6.0484   -0.0349   -1.5240 C.3     1  LIG1       -0.0180
      9 C          -4.8703   -0.1278   -0.5377 C.3     1  LIG1        0.0261
     10 C          -0.9646   -0.1612   -0.5738 C.3     1  LIG1        0.0511
     11 H          -0.8561   -0.1203   -1.6586 H       1  LIG1        0.0407
     12 C           0.2463    0.6572   -0.0085 C.3     1  LIG1        0.0077
     13 H           0.1150    0.8397    1.0703 H       1  LIG1        0.0364
     14 C           1.1018   -0.6162   -0.2189 C.3     1  LIG1        0.0511
     15 H           1.7264   -0.6598    0.6591 H       1  LIG1        0.0407
     16 C          -0.2287   -1.4400   -0.0366 C.3     1  LIG1        0.0077
     17 H          -0.3434   -2.2421   -0.7834 H       1  LIG1        0.0364
     18 C          -0.4171   -2.0974    1.4395 C.ar    1  LIG1       -0.0357
     19 C           0.1590   -1.5896    2.6264 C.ar    1  LIG1       -0.0126
     20 C           0.0380   -2.2111    3.8878 C.ar    1  LIG1        0.1654
     21 O           0.6687   -1.5135    4.8914 O.3     1  LIG1       -0.4913
     22 C           1.1386   -2.2521    6.0139 C.3     1  LIG1        0.0790
     23 C          -0.7105   -3.3893    4.0136 C.ar    1  LIG1        0.2035
     24 C          -1.2141   -3.9761    2.8382 C.ar    1  LIG1        0.1654
     25 C          -1.0792   -3.3265    1.5944 C.ar    1  LIG1       -0.0126
     26 O          -1.8516   -5.1826    2.9429 O.3     1  LIG1       -0.4913
     27 C          -1.7463   -6.0738    1.8441 C.3     1  LIG1        0.0790
     28 O          -0.8128   -3.9449    5.2633 O.3     1  LIG1       -0.4885
     29 C          -2.0360   -4.5645    5.6414 C.3     1  LIG1        0.0791
     30 C           1.9328   -0.8926   -1.5111 C.2     1  LIG1        0.2263
     31 O           1.4152   -0.9260   -2.6274 O.2     1  LIG1       -0.2748
     32 N           3.3293   -1.1285   -1.3598 N.am    1  LIG1       -0.2381
     33 C           4.0154   -1.1779   -0.1467 C.2     1  LIG1        0.2454
     34 O           3.5614   -1.5144    0.9546 O.2     1  LIG1       -0.2702
     35 C           5.4582   -0.8570   -0.1927 C.2     1  LIG1       -0.0031
     36 C           6.0846   -0.4831   -1.3307 C.2     1  LIG1       -0.0776
     37 C           5.3292   -0.4678   -2.6307 C.3     1  LIG1       -0.0180
     38 C           4.1122   -1.3856   -2.5580 C.3     1  LIG1        0.0261
     39 C           0.6950    2.0403   -0.6358 C.ar    1  LIG1       -0.0357
     40 C           1.8013    2.7929   -0.2047 C.ar    1  LIG1       -0.0126
     41 C           2.0448    4.1047   -0.6773 C.ar    1  LIG1        0.1654
     42 O           3.1303    4.7259   -0.1046 O.3     1  LIG1       -0.4913
     43 C           3.8372    5.7258   -0.8377 C.3     1  LIG1        0.0790
     44 C           1.1362    4.7212   -1.5602 C.ar    1  LIG1        0.2035
     45 C           0.0456    3.9860   -2.0101 C.ar    1  LIG1        0.1654
     46 C          -0.1035    2.6538   -1.5987 C.ar    1  LIG1       -0.0126
     47 O          -0.8848    4.5740   -2.8315 O.3     1  LIG1       -0.4913
     48 C          -2.1808    3.9882   -2.6991 C.3     1  LIG1        0.0790
     49 O           1.4233    6.0014   -1.8959 O.3     1  LIG1       -0.4885
     50 C           0.5009    6.9334   -2.3993 C.3     1  LIG1        0.0791
     51 H          -4.3355   -1.5253   -4.1304 H       1  LIG1        0.0666
     52 H          -6.6074   -0.9306   -3.4855 H       1  LIG1        0.0574
     53 H          -6.9366   -0.4827   -1.0612 H       1  LIG1        0.0323
     54 H          -6.2978    1.0103   -1.7387 H       1  LIG1        0.0323
     55 H          -4.9654   -1.0688    0.0168 H       1  LIG1        0.0472
     56 H          -4.9771    0.6784    0.1980 H       1  LIG1        0.0472
     57 H           0.7683   -0.6873    2.5912 H       1  LIG1        0.0658
     58 H           1.9766   -1.6979    6.4503 H       1  LIG1        0.0660
     59 H           1.5191   -3.2420    5.7411 H       1  LIG1        0.0660
     60 H           0.3601   -2.3182    6.7809 H       1  LIG1        0.0660
     61 H          -1.4861   -3.7887    0.6993 H       1  LIG1        0.0658
     62 H          -1.9852   -7.0747    2.2162 H       1  LIG1        0.0660
     63 H          -0.7330   -6.1026    1.4306 H       1  LIG1        0.0660
     64 H          -2.4830   -5.8162    1.0782 H       1  LIG1        0.0660
     65 H          -1.8757   -5.0076    6.6295 H       1  LIG1        0.0660
     66 H          -2.3303   -5.3995    5.0084 H       1  LIG1        0.0660
     67 H          -2.8464   -3.8337    5.7230 H       1  LIG1        0.0660
     68 H           5.9771   -0.8849    0.7587 H       1  LIG1        0.0666
     69 H           7.1170   -0.2148   -1.3163 H       1  LIG1        0.0574
     70 H           5.9913   -0.8011   -3.4374 H       1  LIG1        0.0323
     71 H           5.0220    0.5616   -2.8478 H       1  LIG1        0.0323
     72 H           4.4494   -2.4293   -2.4842 H       1  LIG1        0.0472
     73 H           3.5254   -1.3079   -3.4781 H       1  LIG1        0.0472
     74 H           2.4732    2.3586    0.5369 H       1  LIG1        0.0658
     75 H           4.0736    6.5509   -0.1592 H       1  LIG1        0.0660
     76 H           3.3703    6.1828   -1.7045 H       1  LIG1        0.0660
     77 H           4.7513    5.2822   -1.2317 H       1  LIG1        0.0660
     78 H          -0.9147    2.0556   -1.9941 H       1  LIG1        0.0658
     79 H          -2.9227    4.6459   -3.1511 H       1  LIG1        0.0660
     80 H          -2.4486    3.8548   -1.6416 H       1  LIG1        0.0660
     81 H          -2.2127    3.0339   -3.2360 H       1  LIG1        0.0660
     82 H           0.3907    6.8307   -3.4815 H       1  LIG1        0.0660
     83 H           0.9504    7.9171   -2.2145 H       1  LIG1        0.0660
     84 H          -0.4486    6.9009   -1.8658 H       1  LIG1        0.0660
@<TRIPOS>BOND
     1     1     2    2
     2     1     3   am
     3     3     4   am
     4     4     5    2
     5     4     6    1
     6     6     7    2
     7     7     8    1
     8     8     9    1
     9     3     9    1
    10     1    10    1
    11    10    11    1
    12    10    12    1
    13    12    14    1
    14    14    15    1
    15    14    16    1
    16    10    16    1
    17    18    19   ar
    18    19    20   ar
    19    20    21    1
    20    21    22    1
    21    20    23   ar
    22    23    24   ar
    23    24    25   ar
    24    18    25   ar
    25    24    26    1
    26    26    27    1
    27    23    28    1
    28    28    29    1
    29    14    30    1
    30    30    31    2
    31    30    32   am
    32    32    33   am
    33    33    34    2
    34    33    35    1
    35    35    36    2
    36    36    37    1
    37    37    38    1
    38    32    38    1
    39    39    40   ar
    40    40    41   ar
    41    41    42    1
    42    42    43    1
    43    41    44   ar
    44    44    45   ar
    45    45    46   ar
    46    39    46   ar
    47    45    47    1
    48    47    48    1
    49    44    49    1
    50    49    50    1
    51    12    39    1
    52    12    13    1
    53    16    18    1
    54    16    17    1
    55     6    51    1
    56     7    52    1
    57     8    53    1
    58     8    54    1
    59     9    55    1
    60     9    56    1
    61    19    57    1
    62    22    58    1
    63    22    59    1
    64    22    60    1
    65    25    61    1
    66    27    62    1
    67    27    63    1
    68    27    64    1
    69    29    65    1
    70    29    66    1
    71    29    67    1
    72    35    68    1
    73    36    69    1
    74    37    70    1
    75    37    71    1
    76    38    72    1
    77    38    73    1
    78    40    74    1
    79    43    75    1
    80    43    76    1
    81    43    77    1
    82    46    78    1
    83    48    79    1
    84    48    80    1
    85    48    81    1
    86    50    82    1
    87    50    83    1
    88    50    84    1
