@<TRIPOS>MOLECULE
NuBBE_99
 72 76 0 0 0
SMALL
GASTEIGER

@<TRIPOS>ATOM
      1 H          -3.1498    0.8149   -0.3827 H       1  LIG1        0.0528
      2 C          -2.1505    0.8421   -0.8474 C.3     1  LIG1        0.0538
      3 C          -2.3450    0.6911   -2.3541 C.ar    1  LIG1        0.0377
      4 C          -2.8421   -0.4949   -2.8848 C.ar    1  LIG1       -0.0164
      5 C          -3.2802   -1.5724   -1.9570 C.3     1  LIG1       -0.0125
      6 C          -2.3208   -1.5917   -0.7167 C.3     1  LIG1        0.0059
      7 N          -1.4310   -0.4016   -0.5268 N.3     1  LIG1       -0.2682
      8 C          -0.6241   -0.4726    0.6865 C.3     1  LIG1        0.1223
      9 H          -0.7932   -1.4452    1.1661 H       1  LIG1        0.0776
     10 C          -1.0883    0.5961    1.7448 C.3     1  LIG1        0.0241
     11 H          -2.1611    0.3670    1.8804 H       1  LIG1        0.0387
     12 C          -1.1354    2.0941    1.2117 C.3     1  LIG1        0.0054
     13 H          -2.0457    2.4937    1.6887 H       1  LIG1        0.0360
     14 C          -1.4884    2.1290   -0.3286 C.3     1  LIG1       -0.0239
     15 C          -0.0398    3.1204    1.6113 C.2     1  LIG1        0.0742
     16 C          -0.3652    4.0403    2.7747 C.2     1  LIG1        0.3381
     17 O           0.4194    5.1819    2.7568 O.3     1  LIG1       -0.4646
     18 C           0.1061    6.1467    3.7687 C.3     1  LIG1        0.0820
     19 O          -1.2351    3.8340    3.5707 O.2     1  LIG1       -0.2452
     20 C           1.0873    3.3082    0.8949 C.2     1  LIG1        0.0911
     21 O           2.1292    4.1656    1.1542 O.2     1  LIG1       -0.5138
     22 C          -0.4939    0.2987    3.1200 C.2     1  LIG1       -0.0837
     23 C          -1.1094   -0.4274    4.0734 C.2     1  LIG1       -0.1022
     24 O           0.8054   -0.4052    0.4117 O.3     1  LIG1       -0.3298
     25 C           1.3338   -1.6019   -0.2385 C.3     1  LIG1        0.1898
     26 H           0.7931   -1.7567   -1.1789 H       1  LIG1        0.0938
     27 O           1.1016   -2.7813    0.5636 O.3     1  LIG1       -0.3405
     28 C           2.2669   -3.3739    1.1744 C.3     1  LIG1        0.1130
     29 H           2.8346   -3.9403    0.4242 H       1  LIG1        0.0647
     30 C           3.1117   -2.2576    1.7990 C.3     1  LIG1        0.1119
     31 H           2.4676   -1.6151    2.4110 H       1  LIG1        0.0647
     32 C           3.7289   -1.3993    0.6807 C.3     1  LIG1        0.1141
     33 H           4.7363   -1.7770    0.4584 H       1  LIG1        0.0648
     34 O           3.9424   -0.0637    1.1601 O.3     1  LIG1       -0.3864
     35 O           4.1359   -2.7715    2.6477 O.3     1  LIG1       -0.3865
     36 C           1.7711   -4.4158    2.1871 C.3     1  LIG1        0.0730
     37 O           1.0824   -3.8005    3.2754 O.3     1  LIG1       -0.3924
     38 C           2.8560   -1.4292   -0.5956 C.3     1  LIG1        0.1342
     39 H           3.0049   -0.5126   -1.1750 H       1  LIG1        0.0671
     40 O           3.2844   -2.5242   -1.4385 O.3     1  LIG1       -0.3841
     41 C          -2.4554   -0.5955   -4.2444 C.ar    1  LIG1        0.0032
     42 C          -2.5048   -1.6336   -5.2017 C.ar    1  LIG1       -0.0523
     43 C          -1.7776   -1.5109   -6.3892 C.ar    1  LIG1       -0.0611
     44 C          -1.0392   -0.3589   -6.6422 C.ar    1  LIG1       -0.0598
     45 C          -1.0148    0.7043   -5.7270 C.ar    1  LIG1       -0.0378
     46 C          -1.7197    0.5575   -4.5223 C.ar    1  LIG1        0.0470
     47 N          -1.7567    1.3696   -3.3921 N.ar    1  LIG1       -0.3564
     48 H          -3.2610   -2.5493   -2.4527 H       1  LIG1        0.0326
     49 H          -4.3160   -1.3865   -1.6437 H       1  LIG1        0.0326
     50 H          -1.6763   -2.4703   -0.8293 H       1  LIG1        0.0431
     51 H          -2.9384   -1.7483    0.1762 H       1  LIG1        0.0431
     52 H          -0.6201    2.3787   -0.9416 H       1  LIG1        0.0290
     53 H          -2.1960    2.9618   -0.4762 H       1  LIG1        0.0290
     54 H          -0.9066    6.5410    3.6344 H       1  LIG1        0.0661
     55 H           0.8085    6.9861    3.6722 H       1  LIG1        0.0661
     56 H           0.2298    5.7166    4.7655 H       1  LIG1        0.0661
     57 H           1.3164    2.7726   -0.0181 H       1  LIG1        0.1026
     58 H           1.9617    4.6318    1.9980 H       1  LIG1        0.2912
     59 H           0.5231    0.6259    3.3161 H       1  LIG1        0.0571
     60 H          -2.1125   -0.8358    3.9629 H       1  LIG1        0.0532
     61 H          -0.6117   -0.6631    5.0131 H       1  LIG1        0.0532
     62 H           3.2186    0.5036    0.8372 H       1  LIG1        0.2100
     63 H           4.1539   -2.1925    3.4331 H       1  LIG1        0.2100
     64 H           1.0708   -5.1038    1.6983 H       1  LIG1        0.0584
     65 H           2.5958   -5.0098    2.5949 H       1  LIG1        0.0584
     66 H           0.7308   -2.9561    2.9399 H       1  LIG1        0.2095
     67 H           4.2515   -2.6263   -1.3658 H       1  LIG1        0.2101
     68 H          -3.0333   -2.5593   -4.9898 H       1  LIG1        0.0624
     69 H          -1.7553   -2.3384   -7.0956 H       1  LIG1        0.0618
     70 H          -0.4463   -0.2981   -7.5527 H       1  LIG1        0.0618
     71 H          -0.4031    1.5780   -5.9217 H       1  LIG1        0.0638
     72 H          -1.2164    2.2168   -3.3067 H       1  LIG1        0.1656
@<TRIPOS>BOND
     1     1     2    1
     2     2     3    1
     3     3     4   ar
     4     4     5    1
     5     5     6    1
     6     6     7    1
     7     2     7    1
     8     7     8    1
     9     8    10    1
    10    10    12    1
    11    12    13    1
    12    12    14    1
    13     2    14    1
    14    12    15    1
    15    15    16    1
    16    16    17    1
    17    17    18    1
    18    16    19    2
    19    15    20    2
    20    20    21    1
    21    22    23    2
    22    24    25    1
    23    25    26    1
    24    25    27    1
    25    27    28    1
    26    28    30    1
    27    30    31    1
    28    30    32    1
    29    30    35    1
    30    36    37    1
    31    25    38    1
    32    32    38    1
    33     4    41   ar
    34    41    42   ar
    35    42    43   ar
    36    43    44   ar
    37    44    45   ar
    38    45    46   ar
    39    41    46   ar
    40    46    47   ar
    41     3    47   ar
    42     8    24    1
    43     8     9    1
    44    10    22    1
    45    10    11    1
    46    28    36    1
    47    28    29    1
    48    32    34    1
    49    32    33    1
    50    38    40    1
    51    38    39    1
    52     5    48    1
    53     5    49    1
    54     6    50    1
    55     6    51    1
    56    14    52    1
    57    14    53    1
    58    18    54    1
    59    18    55    1
    60    18    56    1
    61    20    57    1
    62    21    58    1
    63    22    59    1
    64    23    60    1
    65    23    61    1
    66    34    62    1
    67    35    63    1
    68    36    64    1
    69    36    65    1
    70    37    66    1
    71    40    67    1
    72    42    68    1
    73    43    69    1
    74    44    70    1
    75    45    71    1
    76    47    72    1
