REMARK  Name = NuBBE_546
REMARK  21 active torsions:
REMARK  status: ('A' for Active; 'I' for Inactive)
REMARK    1  A    between atoms: O_1  and  C_2
REMARK    2  A    between atoms: C_3  and  O_54
REMARK    3  A    between atoms: C_5  and  C_8
REMARK    4  A    between atoms: C_9  and  C_10
REMARK    5  A    between atoms: C_10  and  O_11
REMARK    6  A    between atoms: O_11  and  C_12
REMARK    7  A    between atoms: C_14  and  C_51
REMARK    8  A    between atoms: C_17  and  O_40
REMARK    9  A    between atoms: C_19  and  O_39
REMARK   10  A    between atoms: C_21  and  O_23
REMARK   11  A    between atoms: O_23  and  C_24
REMARK   12  A    between atoms: C_26  and  O_38
REMARK   13  A    between atoms: C_28  and  O_37
REMARK   14  A    between atoms: C_30  and  O_36
REMARK   15  A    between atoms: C_32  and  C_35
REMARK   16  A    between atoms: O_40  and  C_41
REMARK   17  A    between atoms: C_41  and  C_42
REMARK   18  A    between atoms: C_42  and  C_43
REMARK   19  A    between atoms: C_45  and  O_46
REMARK   20  A    between atoms: C_47  and  O_50
REMARK   21  A    between atoms: C_51  and  O_52
REMARK                            x       y       z     vdW  Elec       q    Type
REMARK                         _______ _______ _______ _____ _____    ______ ____
ROOT
ATOM      1  C   LIG A   1      -1.229  -0.867   1.780  0.00  0.00    +0.239 C 
ATOM      2  C   LIG A   1      -0.514  -1.787   0.690  0.00  0.00    +0.190 C 
ATOM      3  O   LIG A   1       0.192  -1.010  -0.279  0.00  0.00    -0.339 OA
ATOM      4  C   LIG A   1       1.066  -0.089   0.331  0.00  0.00    +0.282 C 
ATOM      5  C   LIG A   1       0.227   1.079   0.934  0.00  0.00    +0.203 C 
ATOM      6  C   LIG A   1      -1.210   0.637   1.409  0.00  0.00    +0.198 C 
ENDROOT
BRANCH   5   7
ATOM      7  O   LIG A   1       0.972   1.783   1.944  0.00  0.00    -0.384 OA
ATOM      8  H   LIG A   1       1.584   1.180   2.390  0.00  0.00    +0.210 HD
ENDBRANCH   5   7
BRANCH   4   9
ATOM      9  O   LIG A   1       2.070   0.316  -0.610  0.00  0.00    -0.348 OA
BRANCH   9  10
ATOM     10  C   LIG A   1       1.496   1.006  -1.714  0.00  0.00    +0.168 C 
BRANCH  10  11
ATOM     11  C   LIG A   1       2.511   1.417  -2.767  0.00  0.00    +0.063 C 
BRANCH  11  12
ATOM     12  C   LIG A   1       1.863   2.200  -3.894  0.00  0.00    -0.042 A 
ATOM     13  C   LIG A   1       2.443   2.164  -5.169  0.00  0.00    +0.052 A 
ATOM     14  C   LIG A   1       1.913   2.954  -6.185  0.00  0.00    +0.159 A 
ATOM     15  C   LIG A   1       0.808   3.768  -5.951  0.00  0.00    +0.158 A 
ATOM     16  C   LIG A   1       0.197   3.792  -4.713  0.00  0.00    +0.049 A 
ATOM     17  C   LIG A   1       0.730   3.018  -3.687  0.00  0.00    +0.007 A 
BRANCH  15  18
ATOM     18  O   LIG A   1       0.326   4.574  -6.939  0.00  0.00    -0.503 OA
ATOM     19  H   LIG A   1       0.940   4.432  -7.685  0.00  0.00    +0.292 HD
ENDBRANCH  15  18
BRANCH  14  20
ATOM     20  O   LIG A   1       2.462   2.976  -7.437  0.00  0.00    -0.503 OA
ATOM     21  H   LIG A   1       3.222   2.369  -7.441  0.00  0.00    +0.292 HD
ENDBRANCH  14  20
ENDBRANCH  11  12
ENDBRANCH  10  11
ENDBRANCH   9  10
ENDBRANCH   4   9
BRANCH   6  22
ATOM     22  O   LIG A   1      -2.225   0.910   0.409  0.00  0.00    -0.339 OA
BRANCH  22  23
ATOM     23  C   LIG A   1      -3.592   0.952   0.916  0.00  0.00    +0.282 C 
ATOM     24  C   LIG A   1      -4.558   1.503  -0.152  0.00  0.00    +0.201 C 
ATOM     25  C   LIG A   1      -4.303   0.729  -1.450  0.00  0.00    +0.179 C 
ATOM     26  C   LIG A   1      -4.543  -0.765  -1.250  0.00  0.00    +0.174 C 
ATOM     27  C   LIG A   1      -4.053  -1.253   0.139  0.00  0.00    +0.149 C 
ATOM     28  O   LIG A   1      -4.179  -0.341   1.234  0.00  0.00    -0.343 OA
ATOM     29  C   LIG A   1      -4.560  -2.638   0.489  0.00  0.00    +0.040 C 
BRANCH  24  30
ATOM     30  O   LIG A   1      -5.912   1.292   0.309  0.00  0.00    -0.384 OA
ATOM     31  H   LIG A   1      -5.926   0.414   0.744  0.00  0.00    +0.210 HD
ENDBRANCH  24  30
BRANCH  25  32
ATOM     32  O   LIG A   1      -5.136   1.179  -2.523  0.00  0.00    -0.386 OA
ATOM     33  H   LIG A   1      -5.038   0.506  -3.227  0.00  0.00    +0.210 HD
ENDBRANCH  25  32
BRANCH  26  34
ATOM     34  O   LIG A   1      -4.054  -1.434  -2.428  0.00  0.00    -0.387 OA
ATOM     35  H   LIG A   1      -3.074  -1.461  -2.438  0.00  0.00    +0.210 HD
ENDBRANCH  26  34
ENDBRANCH  22  23
ENDBRANCH   6  22
BRANCH   1  36
ATOM     36  O   LIG A   1      -0.569  -1.151   3.034  0.00  0.00    -0.453 OA
BRANCH  36  37
ATOM     37  C   LIG A   1      -0.172  -0.145   3.870  0.00  0.00    +0.332 C 
ATOM     38  O   LIG A   1      -0.732   0.843   4.180  0.00  0.00    -0.246 OA
BRANCH  37  40
ATOM     39  C   LIG A   1       1.844  -1.539   3.811  0.00  0.00    +0.015 C 
ATOM     40  C   LIG A   1       1.268  -0.373   4.114  0.00  0.00    +0.092 C 
BRANCH  39  44
ATOM     41  C   LIG A   1       5.906  -2.451   4.380  0.00  0.00    +0.158 A 
ATOM     42  C   LIG A   1       5.551  -1.135   4.091  0.00  0.00    +0.159 A 
ATOM     43  C   LIG A   1       4.224  -0.797   3.904  0.00  0.00    +0.057 A 
ATOM     44  C   LIG A   1       3.254  -1.799   4.019  0.00  0.00    -0.021 A 
ATOM     45  C   LIG A   1       3.614  -3.119   4.313  0.00  0.00    +0.012 A 
ATOM     46  C   LIG A   1       4.949  -3.446   4.501  0.00  0.00    +0.050 A 
BRANCH  42  47
ATOM     47  O   LIG A   1       6.547  -0.206   3.987  0.00  0.00    -0.503 OA
ATOM     48  H   LIG A   1       6.143   0.657   3.788  0.00  0.00    +0.292 HD
ENDBRANCH  42  47
BRANCH  41  49
ATOM     49  O   LIG A   1       7.221  -2.777   4.534  0.00  0.00    -0.503 OA
ATOM     50  H   LIG A   1       7.696  -1.936   4.379  0.00  0.00    +0.292 HD
ENDBRANCH  41  49
ENDBRANCH  39  44
ENDBRANCH  37  40
ENDBRANCH  36  37
ENDBRANCH   1  36
BRANCH   2  51
ATOM     51  C   LIG A   1      -1.347  -2.740  -0.189  0.00  0.00    +0.191 C 
BRANCH  51  52
ATOM     52  O   LIG A   1      -1.929  -2.052  -1.308  0.00  0.00    -0.392 OA
ATOM     53  H   LIG A   1      -1.804  -1.094  -1.137  0.00  0.00    +0.209 HD
ENDBRANCH  51  52
ENDBRANCH   2  51
TORSDOF 20
