@<TRIPOS>MOLECULE
NuBBE_1565
 80 83 0 0 0
SMALL
GASTEIGER

@<TRIPOS>ATOM
      1 O           1.6301    2.2439   -4.7410 O.2     1  LIG1       -0.2866
      2 C           2.2476    1.1860   -5.0793 C.ar    1  LIG1        0.1998
      3 C           3.6868    1.1994   -5.3126 C.ar    1  LIG1        0.0644
      4 C           4.4922    2.2467   -4.8538 C.ar    1  LIG1       -0.0474
      5 C           5.8765    2.0939   -4.8538 C.ar    1  LIG1       -0.0609
      6 C           6.4500    0.9199   -5.3517 C.ar    1  LIG1       -0.0582
      7 C           5.6429   -0.0820   -5.9020 C.ar    1  LIG1       -0.0186
      8 C           4.2560    0.0575   -5.8794 C.ar    1  LIG1        0.1393
      9 O           3.4825   -0.9677   -6.3738 O.2     1  LIG1       -0.4541
     10 C           2.1868   -1.0426   -5.9115 C.ar    1  LIG1        0.1494
     11 C           1.3990   -2.2393   -6.2024 C.ar    1  LIG1        0.0594
     12 C          -0.0001   -2.1609   -6.0740 C.ar    1  LIG1        0.1320
     13 C          -0.8211   -3.2258   -6.4259 C.ar    1  LIG1       -0.0192
     14 C          -0.2411   -4.4493   -6.7410 C.ar    1  LIG1       -0.0583
     15 C           1.1497   -4.5758   -6.7704 C.ar    1  LIG1       -0.0609
     16 C           1.9700   -3.4632   -6.5565 C.ar    1  LIG1       -0.0475
     17 O          -0.6344   -1.0776   -5.5093 O.3     1  LIG1       -0.4833
     18 C           1.5566   -0.0946   -5.1873 C.ar    1  LIG1        0.0828
     19 C           0.1931   -0.3326   -4.5876 C.3     1  LIG1        0.1322
     20 C           0.2756   -1.0334   -3.1745 C.3     1  LIG1       -0.0113
     21 C          -1.0669   -1.3751   -2.4854 C.3     1  LIG1       -0.0494
     22 C          -0.9554   -1.9038   -1.0347 C.3     1  LIG1       -0.0529
     23 C          -0.0753   -3.1155   -0.7008 C.3     1  LIG1       -0.0531
     24 C          -0.1467   -3.5688    0.7899 C.3     1  LIG1       -0.0531
     25 C           0.4235   -2.5923    1.8704 C.3     1  LIG1       -0.0531
     26 C          -0.3923   -1.3072    2.0979 C.3     1  LIG1       -0.0531
     27 C           0.0241   -0.2733    3.1704 C.3     1  LIG1       -0.0531
     28 C          -0.9026    0.9642    3.0020 C.3     1  LIG1       -0.0531
     29 C          -0.6212    2.2247    3.8579 C.3     1  LIG1       -0.0531
     30 C          -0.7310    1.9378    5.3394 C.3     1  LIG1       -0.0531
     31 C          -0.8314    3.1507    6.3169 C.3     1  LIG1       -0.0531
     32 C          -1.8073    4.3454    6.1448 C.3     1  LIG1       -0.0531
     33 C          -3.3027    4.1725    6.4799 C.3     1  LIG1       -0.0531
     34 C          -4.0576    3.2200    5.5560 C.3     1  LIG1       -0.0533
     35 C          -3.8774    1.7674    5.9337 C.3     1  LIG1       -0.0559
     36 C          -4.1610    1.3429    7.3454 C.3     1  LIG1       -0.0653
     37 H           4.0397    3.1491   -4.4460 H       1  LIG1        0.0626
     38 H           6.5082    2.8741   -4.4336 H       1  LIG1        0.0618
     39 H           7.5280    0.7829   -5.2988 H       1  LIG1        0.0619
     40 H           6.0975   -0.9868   -6.2971 H       1  LIG1        0.0654
     41 H          -1.9008   -3.1225   -6.3682 H       1  LIG1        0.0654
     42 H          -0.8746   -5.3167   -6.9050 H       1  LIG1        0.0619
     43 H           1.5967   -5.5536   -6.9318 H       1  LIG1        0.0618
     44 H           3.0498   -3.5798   -6.5965 H       1  LIG1        0.0626
     45 H          -0.3150    0.6304   -4.4598 H       1  LIG1        0.0787
     46 H           0.8537   -0.3802   -2.5072 H       1  LIG1        0.0304
     47 H           0.8352   -1.9719   -3.2609 H       1  LIG1        0.0304
     48 H          -1.6520   -2.0788   -3.0826 H       1  LIG1        0.0267
     49 H          -1.6551   -0.4484   -2.4136 H       1  LIG1        0.0267
     50 H          -1.9636   -2.0868   -0.6372 H       1  LIG1        0.0265
     51 H          -0.5501   -1.0538   -0.5060 H       1  LIG1        0.0265
     52 H           0.9703   -2.8984   -0.9417 H       1  LIG1        0.0265
     53 H          -0.3745   -3.9657   -1.3298 H       1  LIG1        0.0265
     54 H           0.4406   -4.4991    0.8614 H       1  LIG1        0.0265
     55 H          -1.1744   -3.8651    1.0419 H       1  LIG1        0.0265
     56 H           1.4446   -2.3317    1.5736 H       1  LIG1        0.0265
     57 H           0.4957   -3.1445    2.8167 H       1  LIG1        0.0265
     58 H          -1.4472   -1.5695    2.2376 H       1  LIG1        0.0265
     59 H          -0.3099   -0.7212    1.1954 H       1  LIG1        0.0265
     60 H           1.0630    0.0394    3.0184 H       1  LIG1        0.0265
     61 H          -0.0629   -0.7007    4.1746 H       1  LIG1        0.0265
     62 H          -1.9383    0.6308    3.1750 H       1  LIG1        0.0265
     63 H          -0.8740    1.2903    1.9553 H       1  LIG1        0.0265
     64 H          -1.3920    2.9559    3.5770 H       1  LIG1        0.0265
     65 H           0.3543    2.6562    3.6330 H       1  LIG1        0.0265
     66 H           0.0562    1.2812    5.7233 H       1  LIG1        0.0265
     67 H          -1.5194    1.2067    5.3376 H       1  LIG1        0.0265
     68 H           0.1720    3.6003    6.3063 H       1  LIG1        0.0265
     69 H          -0.9604    2.7703    7.3393 H       1  LIG1        0.0265
     70 H          -1.7046    4.7810    5.1466 H       1  LIG1        0.0265
     71 H          -1.4558    5.1347    6.8341 H       1  LIG1        0.0265
     72 H          -3.7833    5.1562    6.3815 H       1  LIG1        0.0265
     73 H          -3.4342    3.9016    7.5340 H       1  LIG1        0.0265
     74 H          -3.7077    3.3922    4.5284 H       1  LIG1        0.0265
     75 H          -5.1279    3.4354    5.5745 H       1  LIG1        0.0265
     76 H          -2.8433    1.6491    6.0063 H       1  LIG1        0.0263
     77 H          -4.2203    1.0766    5.1565 H       1  LIG1        0.0263
     78 H          -3.3689    1.7263    8.0069 H       1  LIG1        0.0230
     79 H          -4.0882    0.2524    7.4085 H       1  LIG1        0.0230
     80 H          -5.1247    1.7096    7.6761 H       1  LIG1        0.0230
@<TRIPOS>BOND
     1     1     2    2
     2     2     3   ar
     3     3     4   ar
     4     4     5   ar
     5     5     6   ar
     6     6     7   ar
     7     7     8   ar
     8     3     8   ar
     9     8     9   ar
    10     9    10   ar
    11    10    11    1
    12    11    12   ar
    13    12    13   ar
    14    13    14   ar
    15    14    15   ar
    16    15    16   ar
    17    11    16   ar
    18    12    17    1
    19    10    18   ar
    20     2    18   ar
    21    18    19    1
    22    17    19    1
    23    19    20    1
    24    20    21    1
    25    21    22    1
    26    22    23    1
    27    23    24    1
    28    24    25    1
    29    25    26    1
    30    26    27    1
    31    27    28    1
    32    28    29    1
    33    29    30    1
    34    30    31    1
    35    31    32    1
    36    32    33    1
    37    33    34    1
    38    34    35    1
    39    35    36    1
    40     4    37    1
    41     5    38    1
    42     6    39    1
    43     7    40    1
    44    13    41    1
    45    14    42    1
    46    15    43    1
    47    16    44    1
    48    19    45    1
    49    20    46    1
    50    20    47    1
    51    21    48    1
    52    21    49    1
    53    22    50    1
    54    22    51    1
    55    23    52    1
    56    23    53    1
    57    24    54    1
    58    24    55    1
    59    25    56    1
    60    25    57    1
    61    26    58    1
    62    26    59    1
    63    27    60    1
    64    27    61    1
    65    28    62    1
    66    28    63    1
    67    29    64    1
    68    29    65    1
    69    30    66    1
    70    30    67    1
    71    31    68    1
    72    31    69    1
    73    32    70    1
    74    32    71    1
    75    33    72    1
    76    33    73    1
    77    34    74    1
    78    34    75    1
    79    35    76    1
    80    35    77    1
    81    36    78    1
    82    36    79    1
    83    36    80    1
