@<TRIPOS>MOLECULE
NuBBE_397
 22 22 0 0 0
SMALL
GASTEIGER

@<TRIPOS>ATOM
      1 C          -2.9323   -0.9304    0.6413 C.3     1  LIG1       -0.0652
      2 C          -1.5300   -1.2751    0.1644 C.3     1  LIG1       -0.0526
      3 C          -0.7799   -0.0283   -0.3147 C.3     1  LIG1       -0.0156
      4 C           0.6428   -0.3634   -0.7995 C.3     1  LIG1        0.1068
      5 H           0.5706   -1.1433   -1.5673 H       1  LIG1        0.0737
      6 O           1.4138   -0.9288    0.2848 O.3     1  LIG1       -0.4580
      7 C           1.3639    0.8374   -1.4187 C.3     1  LIG1        0.0031
      8 C           1.8674    1.7563   -0.3552 C.2     1  LIG1       -0.0738
      9 C           2.1176    1.3024    0.8788 C.2     1  LIG1        0.0187
     10 C           1.9693   -0.1241    1.2259 C.2     1  LIG1        0.3319
     11 O           2.3719   -0.5470    2.3012 O.2     1  LIG1       -0.2456
     12 H          -3.4655   -1.8390    0.9383 H       1  LIG1        0.0230
     13 H          -3.5086   -0.4411   -0.1501 H       1  LIG1        0.0230
     14 H          -2.8969   -0.2599    1.5060 H       1  LIG1        0.0230
     15 H          -1.5975   -2.0019   -0.6534 H       1  LIG1        0.0264
     16 H          -0.9850   -1.7571    0.9837 H       1  LIG1        0.0264
     17 H          -0.7436    0.6923    0.5109 H       1  LIG1        0.0301
     18 H          -1.3424    0.4398   -1.1316 H       1  LIG1        0.0301
     19 H           0.6954    1.3736   -2.1009 H       1  LIG1        0.0343
     20 H           2.2261    0.4960   -2.0042 H       1  LIG1        0.0343
     21 H           2.0423    2.7985   -0.6036 H       1  LIG1        0.0575
     22 H           2.5006    1.9432    1.6639 H       1  LIG1        0.0686
@<TRIPOS>BOND
     1     1     2    1
     2     2     3    1
     3     3     4    1
     4     4     5    1
     5     4     6    1
     6     4     7    1
     7     7     8    1
     8     8     9    2
     9     9    10    1
    10     6    10    1
    11    10    11    2
    12     1    12    1
    13     1    13    1
    14     1    14    1
    15     2    15    1
    16     2    16    1
    17     3    17    1
    18     3    18    1
    19     7    19    1
    20     7    20    1
    21     8    21    1
    22     9    22    1
