@<TRIPOS>MOLECULE
NuBBE_218
 40 41 0 0 0
SMALL
GASTEIGER

@<TRIPOS>ATOM
      1 O          -4.3324   -0.5415   -1.1010 O.3     1  LIG1       -0.5065
      2 C          -2.9775   -0.5059   -0.9172 C.ar    1  LIG1        0.1200
      3 C          -2.2947    0.7106   -0.9713 C.ar    1  LIG1       -0.0161
      4 C          -0.9039    0.7664   -0.7516 C.ar    1  LIG1       -0.0352
      5 C          -0.2151   -0.4278   -0.4819 C.ar    1  LIG1       -0.0399
      6 C          -0.9180   -1.6494   -0.4793 C.ar    1  LIG1       -0.0517
      7 C          -2.3012   -1.6980   -0.6894 C.ar    1  LIG1       -0.0087
      8 C          -3.0286   -3.0097   -0.6416 C.3     1  LIG1       -0.0362
      9 C           1.2797   -0.4418   -0.1925 C.3     1  LIG1       -0.0086
     10 H           1.6931   -1.3964   -0.5454 H       1  LIG1        0.0353
     11 C           1.9294    0.6468   -1.0648 C.3     1  LIG1       -0.0191
     12 C           1.3558    2.0329   -0.7817 C.3     1  LIG1        0.0623
     13 H           1.6679    2.3581    0.2172 H       1  LIG1        0.0599
     14 C          -0.1844    2.0971   -0.9160 C.3     1  LIG1        0.0077
     15 H          -0.4109    2.4361   -1.9377 H       1  LIG1        0.0371
     16 C          -0.7259    3.1720    0.0393 C.3     1  LIG1       -0.0560
     17 O           1.9245    2.9693   -1.7076 O.3     1  LIG1       -0.3912
     18 C           1.5725   -0.3185    1.3413 C.3     1  LIG1       -0.0137
     19 H           1.1260    0.6091    1.7222 H       1  LIG1        0.0326
     20 C           0.9683   -1.4753    2.1661 C.3     1  LIG1        0.0473
     21 O           1.4840   -2.7271    1.7279 O.3     1  LIG1       -0.3947
     22 C           3.0804   -0.2657    1.6359 C.3     1  LIG1       -0.0598
     23 H          -4.6546    0.3659   -1.2114 H       1  LIG1        0.2921
     24 H          -2.8359    1.6213   -1.2050 H       1  LIG1        0.0657
     25 H          -0.3736   -2.5742   -0.2981 H       1  LIG1        0.0624
     26 H          -2.3321   -3.8527   -0.5819 H       1  LIG1        0.0279
     27 H          -3.6306   -3.1469   -1.5457 H       1  LIG1        0.0279
     28 H          -3.6796   -3.0465    0.2376 H       1  LIG1        0.0279
     29 H           1.7817    0.4079   -2.1278 H       1  LIG1        0.0296
     30 H           3.0179    0.6612   -0.9380 H       1  LIG1        0.0296
     31 H          -0.6006    2.8696    1.0851 H       1  LIG1        0.0236
     32 H          -1.7909    3.3658   -0.1235 H       1  LIG1        0.0236
     33 H          -0.1995    4.1219   -0.1062 H       1  LIG1        0.0236
     34 H           2.8919    2.8824   -1.6664 H       1  LIG1        0.2098
     35 H          -0.1227   -1.4976    2.0971 H       1  LIG1        0.0560
     36 H           1.2184   -1.3592    3.2265 H       1  LIG1        0.0560
     37 H           1.1163   -3.4082    2.3173 H       1  LIG1        0.2094
     38 H           3.5541    0.6109    1.1874 H       1  LIG1        0.0233
     39 H           3.5922   -1.1607    1.2659 H       1  LIG1        0.0233
     40 H           3.2586   -0.2024    2.7159 H       1  LIG1        0.0233
@<TRIPOS>BOND
     1     1     2    1
     2     2     3   ar
     3     3     4   ar
     4     4     5   ar
     5     5     6   ar
     6     6     7   ar
     7     2     7   ar
     8     7     8    1
     9     5     9    1
    10     9    10    1
    11     9    11    1
    12    11    12    1
    13    12    13    1
    14    12    14    1
    15     4    14    1
    16    12    17    1
    17     9    18    1
    18    18    19    1
    19    18    20    1
    20    20    21    1
    21    18    22    1
    22    14    16    1
    23    14    15    1
    24     1    23    1
    25     3    24    1
    26     6    25    1
    27     8    26    1
    28     8    27    1
    29     8    28    1
    30    11    29    1
    31    11    30    1
    32    16    31    1
    33    16    32    1
    34    16    33    1
    35    17    34    1
    36    20    35    1
    37    20    36    1
    38    21    37    1
    39    22    38    1
    40    22    39    1
    41    22    40    1
