REMARK  Name = NuBBE_1815
REMARK  6 active torsions:
REMARK  status: ('A' for Active; 'I' for Inactive)
REMARK    1  A    between atoms: C_6  and  O_7
REMARK    2  A    between atoms: O_7  and  C_8
REMARK    3  A    between atoms: C_22  and  O_23
REMARK    4  A    between atoms: O_23  and  C_24
REMARK    5  A    between atoms: C_25  and  O_26
REMARK    6  A    between atoms: O_26  and  C_27
REMARK                            x       y       z     vdW  Elec       q    Type
REMARK                         _______ _______ _______ _____ _____    ______ ____
ROOT
ATOM      1  O   LIG A   1      -4.028  -1.226  -0.135  0.00  0.00    -0.289 OA
ATOM      2  C   LIG A   1      -2.807  -1.185  -0.149  0.00  0.00    +0.199 C 
ATOM      3  C   LIG A   1      -2.009  -2.411  -0.337  0.00  0.00    +0.062 A 
ATOM      4  C   LIG A   1      -2.623  -3.586  -0.774  0.00  0.00    +0.019 A 
ATOM      5  C   LIG A   1      -1.848  -4.723  -1.012  0.00  0.00    +0.046 A 
ATOM      6  C   LIG A   1      -0.466  -4.683  -0.815  0.00  0.00    +0.124 A 
ATOM      7  C   LIG A   1       0.132  -3.511  -0.342  0.00  0.00    +0.092 A 
ATOM      8  C   LIG A   1      -0.639  -2.373  -0.102  0.00  0.00    +0.136 A 
ATOM      9  O   LIG A   1       0.035  -1.267   0.337  0.00  0.00    -0.480 OA
ATOM     10  C   LIG A   1      -0.802  -0.232   0.876  0.00  0.00    +0.240 C 
ATOM     11  C   LIG A   1      -2.014   0.092   0.004  0.00  0.00    +0.234 C 
ATOM     12  O   LIG A   1      -1.594   0.563  -1.275  0.00  0.00    -0.360 OA
ATOM     13  C   LIG A   1      -0.963   1.848  -1.181  0.00  0.00    +0.200 C 
ATOM     14  C   LIG A   1       0.004   1.994  -0.021  0.00  0.00    +0.030 A 
ATOM     15  C   LIG A   1       0.071   0.997   0.975  0.00  0.00    +0.005 A 
ATOM     16  C   LIG A   1       0.969   1.133   2.035  0.00  0.00    +0.011 A 
ATOM     17  C   LIG A   1       1.765   2.271   2.134  0.00  0.00    +0.050 A 
ATOM     18  C   LIG A   1       1.669   3.303   1.190  0.00  0.00    +0.162 A 
ATOM     19  C   LIG A   1       0.806   3.151   0.088  0.00  0.00    +0.167 A 
ENDROOT
BRANCH   6  20
ATOM     20  O   LIG A   1       0.382  -5.740  -1.007  0.00  0.00    -0.495 OA
ATOM     21  C   LIG A   1      -0.010  -6.661  -2.020  0.00  0.00    +0.277 C 
ENDBRANCH   6  20
BRANCH  18  22
ATOM     22  O   LIG A   1       2.391   4.462   1.312  0.00  0.00    -0.491 OA
ATOM     23  C   LIG A   1       2.682   4.865   2.649  0.00  0.00    +0.277 C 
ENDBRANCH  18  22
BRANCH  19  24
ATOM     24  O   LIG A   1       0.559   4.110  -0.865  0.00  0.00    -0.491 OA
ATOM     25  C   LIG A   1       1.692   4.782  -1.402  0.00  0.00    +0.277 C 
ENDBRANCH  19  24
TORSDOF 3
