REMARK  Name = NuBBE_1082
REMARK  15 active torsions:
REMARK  status: ('A' for Active; 'I' for Inactive)
REMARK    1  A    between atoms: O_1  and  C_2
REMARK    2  A    between atoms: C_2  and  C_4
REMARK    3  A    between atoms: C_2  and  C_21
REMARK    4  A    between atoms: C_4  and  C_6
REMARK    5  A    between atoms: C_4  and  O_20
REMARK    6  A    between atoms: C_7  and  O_8
REMARK    7  A    between atoms: O_8  and  C_9
REMARK    8  A    between atoms: C_12  and  C_13
REMARK    9  A    between atoms: C_13  and  C_14
REMARK   10  A    between atoms: C_14  and  C_15
REMARK   11  A    between atoms: C_15  and  O_16
REMARK   12  A    between atoms: C_18  and  O_19
REMARK   13  A    between atoms: C_21  and  C_22
REMARK   14  A    between atoms: C_21  and  C_23
REMARK   15  A    between atoms: C_21  and  O_24
REMARK                            x       y       z     vdW  Elec       q    Type
REMARK                         _______ _______ _______ _____ _____    ______ ____
ROOT
ATOM      1  C   LIG A   1       0.144   0.124  -0.491  0.00  0.00    +0.067 A 
ATOM      2  C   LIG A   1       1.045   1.210  -0.548  0.00  0.00    +0.129 A 
ATOM      3  C   LIG A   1       2.425   0.992  -0.540  0.00  0.00    +0.046 A 
ATOM      4  C   LIG A   1       2.937  -0.300  -0.537  0.00  0.00    +0.011 A 
ATOM      5  C   LIG A   1       2.085  -1.409  -0.555  0.00  0.00    -0.005 A 
ATOM      6  C   LIG A   1       0.695  -1.182  -0.525  0.00  0.00    +0.129 A 
ENDROOT
BRANCH   2   7
ATOM      7  O   LIG A   1       0.532   2.474  -0.523  0.00  0.00    -0.495 OA
ATOM      8  C   LIG A   1       1.245   3.488  -1.218  0.00  0.00    +0.277 C 
ENDBRANCH   2   7
BRANCH   6   9
ATOM      9  O   LIG A   1      -0.188  -2.231  -0.542  0.00  0.00    -0.506 OA
ATOM     10  H   LIG A   1       0.281  -3.071  -0.420  0.00  0.00    +0.292 HD
ENDBRANCH   6   9
BRANCH   1  11
ATOM     11  C   LIG A   1      -1.386   0.309  -0.433  0.00  0.00    +0.183 C 
BRANCH  11  12
ATOM     12  O   LIG A   1      -1.905   0.370  -1.772  0.00  0.00    -0.384 OA
ATOM     13  H   LIG A   1      -1.300  -0.158  -2.325  0.00  0.00    +0.210 HD
ENDBRANCH  11  12
BRANCH  11  14
ATOM     14  C   LIG A   1      -1.920   1.517   0.404  0.00  0.00    +0.178 C 
BRANCH  14  15
ATOM     15  C   LIG A   1      -3.461   1.761   0.360  0.00  0.00    +0.089 C 
ATOM     16  C   LIG A   1      -4.268   0.638   1.009  0.00  0.00    +0.044 C 
ATOM     17  C   LIG A   1      -3.775   3.089   1.075  0.00  0.00    +0.044 C 
BRANCH  15  18
ATOM     18  O   LIG A   1      -3.930   1.920  -0.987  0.00  0.00    -0.387 OA
ATOM     19  H   LIG A   1      -3.423   1.290  -1.543  0.00  0.00    +0.210 HD
ENDBRANCH  15  18
ENDBRANCH  14  15
BRANCH  14  20
ATOM     20  O   LIG A   1      -1.475   1.403   1.765  0.00  0.00    -0.386 OA
ATOM     21  H   LIG A   1      -0.505   1.490   1.737  0.00  0.00    +0.210 HD
ENDBRANCH  14  20
ENDBRANCH  11  14
ENDBRANCH   1  11
BRANCH   5  22
ATOM     22  C   LIG A   1       2.734  -2.776  -0.599  0.00  0.00    +0.050 C 
BRANCH  22  23
ATOM     23  C   LIG A   1       2.990  -3.340   0.793  0.00  0.00    +0.125 C 
BRANCH  23  24
ATOM     24  C   LIG A   1       3.673  -4.685   0.698  0.00  0.00    +0.305 C 
ATOM     25  O   LIG A   1       4.004  -5.275  -0.301  0.00  0.00    -0.251 OA
BRANCH  24  26
ATOM     26  O   LIG A   1       3.901  -5.214   1.918  0.00  0.00    -0.481 OA
ATOM     27  H   LIG A   1       4.345  -6.073   1.719  0.00  0.00    +0.295 HD
ENDBRANCH  24  26
ENDBRANCH  23  24
ENDBRANCH  22  23
ENDBRANCH   5  22
TORSDOF 12
