@<TRIPOS>MOLECULE
NuBBE_373
 37 39 0 0 0
SMALL
GASTEIGER

@<TRIPOS>ATOM
      1 O          -0.8483   -1.5629    1.1978 O.2     1  LIG1       -0.2706
      2 C          -1.5315   -1.4217    0.1842 C.2     1  LIG1        0.2394
      3 N          -2.8161   -1.8976    0.0750 N.am    1  LIG1       -0.2980
      4 C          -3.7340   -1.7326   -1.0419 C.3     1  LIG1        0.0150
      5 C          -5.0733   -2.2192   -0.5125 C.3     1  LIG1       -0.0357
      6 C          -4.6691   -3.2750    0.5080 C.3     1  LIG1       -0.0357
      7 C          -3.4213   -2.6757    1.1420 C.3     1  LIG1        0.0150
      8 C          -0.9901   -0.7431   -1.0216 C.2     1  LIG1        0.0003
      9 C           0.0956    0.0398   -0.9391 C.2     1  LIG1       -0.0568
     10 C           0.6939    0.6450   -2.1110 C.2     1  LIG1       -0.0610
     11 C           1.7632    1.4561   -2.1337 C.2     1  LIG1       -0.0545
     12 C           2.5066    1.9153   -0.9597 C.ar    1  LIG1       -0.0213
     13 C           2.1285    3.1159   -0.3221 C.ar    1  LIG1       -0.0509
     14 C           2.8021    3.5610    0.8196 C.ar    1  LIG1       -0.0156
     15 C           3.8354    2.7836    1.2952 C.ar    1  LIG1        0.1663
     16 C           4.2116    1.6165    0.6716 C.ar    1  LIG1        0.1668
     17 O           5.2481    1.0026    1.3034 O.3     1  LIG1       -0.4526
     18 C           5.4512    1.8940    2.4191 C.3     1  LIG1        0.2332
     19 O           4.5849    3.0475    2.3987 O.3     1  LIG1       -0.4526
     20 C           3.5724    1.1564   -0.4602 C.ar    1  LIG1       -0.0090
     21 H          -3.3784   -2.3656   -1.8619 H       1  LIG1        0.0465
     22 H          -3.7678   -0.6909   -1.3747 H       1  LIG1        0.0465
     23 H          -5.7179   -2.6097   -1.3045 H       1  LIG1        0.0281
     24 H          -5.6001   -1.3986   -0.0111 H       1  LIG1        0.0281
     25 H          -4.4141   -4.2080   -0.0094 H       1  LIG1        0.0281
     26 H          -5.4550   -3.4893    1.2368 H       1  LIG1        0.0281
     27 H          -2.7283   -3.4367    1.5136 H       1  LIG1        0.0465
     28 H          -3.6750   -1.9936    1.9613 H       1  LIG1        0.0465
     29 H          -1.4659   -0.9377   -1.9720 H       1  LIG1        0.0669
     30 H           0.5607    0.2129    0.0303 H       1  LIG1        0.0619
     31 H           0.2376    0.3973   -3.0686 H       1  LIG1        0.0618
     32 H           2.1328    1.8277   -3.0864 H       1  LIG1        0.0623
     33 H           1.2980    3.7011   -0.7116 H       1  LIG1        0.0625
     34 H           2.5153    4.4783    1.3203 H       1  LIG1        0.0655
     35 H           6.4915    2.2382    2.4077 H       1  LIG1        0.1166
     36 H           5.2751    1.3389    3.3482 H       1  LIG1        0.1166
     37 H           3.8817    0.2299   -0.9308 H       1  LIG1        0.0661
@<TRIPOS>BOND
     1     1     2    2
     2     2     3   am
     3     3     4    1
     4     4     5    1
     5     5     6    1
     6     6     7    1
     7     3     7    1
     8     2     8    1
     9     8     9    2
    10     9    10    1
    11    10    11    2
    12    11    12    1
    13    12    13   ar
    14    13    14   ar
    15    14    15   ar
    16    15    16   ar
    17    16    17    1
    18    17    18    1
    19    18    19    1
    20    15    19    1
    21    16    20   ar
    22    12    20   ar
    23     4    21    1
    24     4    22    1
    25     5    23    1
    26     5    24    1
    27     6    25    1
    28     6    26    1
    29     7    27    1
    30     7    28    1
    31     8    29    1
    32     9    30    1
    33    10    31    1
    34    11    32    1
    35    13    33    1
    36    14    34    1
    37    18    35    1
    38    18    36    1
    39    20    37    1
