@<TRIPOS>MOLECULE
NuBBE_2202
 29 32 0 0 0
SMALL
GASTEIGER

@<TRIPOS>ATOM
      1 O          -2.2407    2.4970   -0.0485 O.2     1  LIG1       -0.2673
      2 C          -1.0223    2.5688   -0.0874 C.ar    1  LIG1        0.2563
      3 N          -0.2123    1.4205   -0.0620 N.ar    1  LIG1       -0.2741
      4 C           1.1559    1.5285   -0.1069 C.ar    1  LIG1        0.0831
      5 C           1.7363    0.2798   -0.0705 C.ar    1  LIG1        0.0115
      6 C           0.6572   -0.6529    0.0019 C.ar    1  LIG1        0.0084
      7 C          -0.5449    0.0749    0.0063 C.ar    1  LIG1        0.0613
      8 C          -1.7934   -0.5679    0.0722 C.ar    1  LIG1        0.0046
      9 C          -1.8345   -1.9664    0.1363 C.ar    1  LIG1        0.1221
     10 C          -0.6521   -2.7021    0.1313 C.ar    1  LIG1       -0.0192
     11 C           0.5928   -2.0598    0.0647 C.ar    1  LIG1       -0.0485
     12 O          -3.0997   -2.4872    0.1991 O.3     1  LIG1       -0.4950
     13 C          -3.2144   -3.9010    0.2936 C.3     1  LIG1        0.0788
     14 C           3.1378    0.2241   -0.1093 C.ar    1  LIG1       -0.0338
     15 C           3.8054    1.4496   -0.1812 C.ar    1  LIG1        0.0290
     16 N           3.2100    2.6696   -0.2159 N.ar    1  LIG1       -0.2535
     17 C           1.8704    2.7029   -0.1782 C.ar    1  LIG1        0.0885
     18 C           1.0836    3.9234   -0.2071 C.ar    1  LIG1       -0.0291
     19 C          -0.2621    3.8619   -0.1649 C.ar    1  LIG1        0.0054
     20 H          -2.7193    0.0026    0.0753 H       1  LIG1        0.0675
     21 H          -0.6561   -3.7862    0.1778 H       1  LIG1        0.0654
     22 H           1.5047   -2.6508    0.0622 H       1  LIG1        0.0625
     23 H          -4.2793   -4.1471    0.3475 H       1  LIG1        0.0660
     24 H          -2.7398   -4.2758    1.2065 H       1  LIG1        0.0660
     25 H          -2.8043   -4.3904   -0.5959 H       1  LIG1        0.0660
     26 H           3.6810   -0.7126   -0.0850 H       1  LIG1        0.0639
     27 H           4.8925    1.4766   -0.2141 H       1  LIG1        0.0830
     28 H           1.6205    4.8629   -0.2628 H       1  LIG1        0.0641
     29 H          -0.8729    4.7572   -0.1851 H       1  LIG1        0.0672
@<TRIPOS>BOND
     1     1     2    2
     2     2     3   ar
     3     3     4   ar
     4     4     5   ar
     5     5     6   ar
     6     6     7   ar
     7     3     7   ar
     8     7     8   ar
     9     8     9   ar
    10     9    10   ar
    11    10    11   ar
    12     6    11   ar
    13     9    12    1
    14    12    13    1
    15     5    14   ar
    16    14    15   ar
    17    15    16   ar
    18    16    17   ar
    19     4    17   ar
    20    17    18   ar
    21    18    19   ar
    22     2    19   ar
    23     8    20    1
    24    10    21    1
    25    11    22    1
    26    13    23    1
    27    13    24    1
    28    13    25    1
    29    14    26    1
    30    15    27    1
    31    18    28    1
    32    19    29    1
