REMARK  Name = NuBBE_1518
REMARK  10 active torsions:
REMARK  status: ('A' for Active; 'I' for Inactive)
REMARK    1  A    between atoms: C_1  and  N_2
REMARK    2  A    between atoms: C_8  and  C_9
REMARK    3  A    between atoms: C_9  and  C_10
REMARK    4  A    between atoms: C_10  and  C_11
REMARK    5  A    between atoms: C_11  and  C_12
REMARK    6  A    between atoms: C_12  and  C_13
REMARK    7  A    between atoms: C_13  and  C_14
REMARK    8  A    between atoms: C_14  and  C_15
REMARK    9  A    between atoms: C_15  and  C_16
REMARK   10  A    between atoms: C_16  and  C_17
REMARK                            x       y       z     vdW  Elec       q    Type
REMARK                         _______ _______ _______ _____ _____    ______ ____
ROOT
ATOM      1  C   LIG A   1       4.076  -0.731  -0.422  0.00  0.00    +0.149 C 
ATOM      2  N   LIG A   1       2.651  -1.010  -0.192  0.00  0.00    -0.347 N 
ATOM      3  C   LIG A   1       2.262  -2.371  -0.383  0.00  0.00    +0.053 A 
ATOM      4  C   LIG A   1       0.916  -2.752  -0.232  0.00  0.00    +0.045 A 
ATOM      5  C   LIG A   1      -0.049  -1.769   0.253  0.00  0.00    +0.190 A 
ATOM      6  O   LIG A   1      -1.184  -2.092   0.578  0.00  0.00    -0.287 OA
ATOM      7  C   LIG A   1       0.419  -0.393   0.441  0.00  0.00    +0.072 A 
ATOM      8  C   LIG A   1       1.705  -0.052   0.248  0.00  0.00    +0.022 A 
ATOM      9  C   LIG A   1       0.457  -4.065  -0.447  0.00  0.00    +0.013 A 
ATOM     10  C   LIG A   1       1.367  -5.055  -0.767  0.00  0.00    +0.001 A 
ATOM     11  C   LIG A   1       2.708  -4.738  -0.869  0.00  0.00    +0.002 A 
ATOM     12  C   LIG A   1       3.154  -3.419  -0.687  0.00  0.00    +0.026 A 
ENDROOT
BRANCH   8  13
ATOM     13  C   LIG A   1       2.135   1.361   0.673  0.00  0.00    +0.053 C 
BRANCH  13  14
ATOM     14  C   LIG A   1       1.609   2.579  -0.114  0.00  0.00    +0.006 C 
BRANCH  14  15
ATOM     15  C   LIG A   1       0.094   2.817  -0.081  0.00  0.00    +0.000 C 
BRANCH  15  16
ATOM     16  C   LIG A   1      -0.510   2.925   1.327  0.00  0.00    +0.000 C 
BRANCH  16  17
ATOM     17  C   LIG A   1      -2.037   3.098   1.424  0.00  0.00    -0.000 C 
BRANCH  17  18
ATOM     18  C   LIG A   1      -2.941   1.935   0.968  0.00  0.00    -0.000 C 
BRANCH  18  19
ATOM     19  C   LIG A   1      -2.911   1.654  -0.534  0.00  0.00    -0.000 C 
BRANCH  19  20
ATOM     20  C   LIG A   1      -3.938   0.645  -1.050  0.00  0.00    -0.003 C 
ATOM     21  C   LIG A   1      -3.673  -0.755  -0.523  0.00  0.00    +0.004 C 
ENDBRANCH  19  20
ENDBRANCH  18  19
ENDBRANCH  17  18
ENDBRANCH  16  17
ENDBRANCH  15  16
ENDBRANCH  14  15
ENDBRANCH  13  14
ENDBRANCH   8  13
TORSDOF 8
