@<TRIPOS>MOLECULE
NuBBE_1230
 75 79 0 0 0
SMALL
GASTEIGER

@<TRIPOS>ATOM
      1 C          -1.2141    0.5942   -1.3292 C.3     1  LIG1       -0.0563
      2 C          -0.5728    0.8953    0.0478 C.3     1  LIG1        0.0061
      3 C           0.7043    1.7842   -0.1062 C.3     1  LIG1        0.0934
      4 C           0.8008    2.4981    1.2521 C.3     1  LIG1       -0.0192
      5 C          -0.6372    2.8080    1.6494 C.3     1  LIG1       -0.0440
      6 C          -1.5433    1.7899    0.9121 C.3     1  LIG1       -0.0015
      7 H          -2.0983    2.4201    0.1989 H       1  LIG1        0.0336
      8 C          -2.6530    1.1580    1.8284 C.3     1  LIG1        0.0927
      9 O          -3.4489    2.2773    2.2886 O.3     1  LIG1       -0.3860
     10 C          -2.1462    0.4739    3.1070 C.3     1  LIG1       -0.0333
     11 C          -3.6093    0.2158    1.0506 C.3     1  LIG1        0.0881
     12 H          -3.0457   -0.5853    0.5666 H       1  LIG1        0.0625
     13 C          -4.7320   -0.4318    1.8477 C.3     1  LIG1       -0.0213
     14 C          -5.6657   -0.8503    0.7348 C.3     1  LIG1       -0.0218
     15 C          -5.5623    0.3218   -0.2437 C.3     1  LIG1        0.0645
     16 C          -6.6552    1.3605    0.0110 C.3     1  LIG1       -0.0361
     17 C          -5.5930   -0.1398   -1.6978 C.3     1  LIG1       -0.0361
     18 O          -4.2859    0.9540    0.0064 O.3     1  LIG1       -0.3679
     19 O           0.5130    2.7665   -1.1287 O.3     1  LIG1       -0.3837
     20 C           1.9974    1.0588   -0.4551 C.2     1  LIG1       -0.0310
     21 C           3.1497    1.7563   -0.5470 C.2     1  LIG1       -0.0167
     22 C           4.4272    1.1329   -0.9738 C.2     1  LIG1        0.1598
     23 C           4.3729   -0.3029   -1.4674 C.3     1  LIG1        0.0299
     24 C           5.7634   -0.9425   -1.5461 C.3     1  LIG1       -0.0141
     25 C           5.6870   -2.3538   -2.1255 C.3     1  LIG1        0.0817
     26 H           5.4107   -2.2982   -3.1852 H       1  LIG1        0.0619
     27 O           6.9729   -2.9776   -2.0379 O.3     1  LIG1       -0.3892
     28 C           4.6759   -3.2447   -1.3895 C.3     1  LIG1        0.0816
     29 H           4.5560   -4.1859   -1.9388 H       1  LIG1        0.0619
     30 O           5.1955   -3.6074   -0.1088 O.3     1  LIG1       -0.3892
     31 C           3.3106   -2.5731   -1.2246 C.3     1  LIG1       -0.0178
     32 C           3.3637   -1.1318   -0.6280 C.3     1  LIG1       -0.0132
     33 C           3.7831   -1.1874    0.8693 C.3     1  LIG1       -0.0583
     34 C           1.9527   -0.4356   -0.7673 C.3     1  LIG1       -0.0107
     35 C           0.8417   -1.2324   -0.0502 C.3     1  LIG1       -0.0453
     36 C          -0.1612   -0.4097    0.7446 C.3     1  LIG1       -0.0438
     37 O           5.4501    1.8095   -0.9891 O.2     1  LIG1       -0.2924
     38 H          -1.9846   -0.1774   -1.2620 H       1  LIG1        0.0236
     39 H          -0.4781    0.2449   -2.0591 H       1  LIG1        0.0236
     40 H          -1.6826    1.4854   -1.7620 H       1  LIG1        0.0236
     41 H           1.3814    3.4263    1.2043 H       1  LIG1        0.0296
     42 H           1.2590    1.8541    2.0127 H       1  LIG1        0.0296
     43 H          -0.8973    3.8229    1.3217 H       1  LIG1        0.0270
     44 H          -0.7413    2.8115    2.7364 H       1  LIG1        0.0270
     45 H          -4.0040    2.5322    1.5242 H       1  LIG1        0.2103
     46 H          -1.7025   -0.5052    2.9206 H       1  LIG1        0.0258
     47 H          -2.9701    0.3258    3.8162 H       1  LIG1        0.0258
     48 H          -1.4172    1.0808    3.6491 H       1  LIG1        0.0258
     49 H          -5.2306    0.2894    2.5043 H       1  LIG1        0.0292
     50 H          -4.3923   -1.2782    2.4515 H       1  LIG1        0.0292
     51 H          -6.6843   -1.0487    1.0811 H       1  LIG1        0.0294
     52 H          -5.2880   -1.7747    0.2787 H       1  LIG1        0.0294
     53 H          -7.6523    0.9407   -0.1587 H       1  LIG1        0.0257
     54 H          -6.5276    2.2298   -0.6434 H       1  LIG1        0.0257
     55 H          -6.6099    1.7389    1.0382 H       1  LIG1        0.0257
     56 H          -6.5259   -0.6605   -1.9358 H       1  LIG1        0.0257
     57 H          -4.7533   -0.8108   -1.9123 H       1  LIG1        0.0257
     58 H          -5.4849    0.7121   -2.3789 H       1  LIG1        0.0257
     59 H          -0.2323    3.3370   -0.8787 H       1  LIG1        0.2106
     60 H           3.2008    2.8236   -0.3592 H       1  LIG1        0.0653
     61 H           3.9987   -0.2354   -2.5008 H       1  LIG1        0.0387
     62 H           6.2626   -0.9508   -0.5699 H       1  LIG1        0.0298
     63 H           6.4213   -0.3368   -2.1834 H       1  LIG1        0.0298
     64 H           7.6160   -2.3775   -2.4567 H       1  LIG1        0.2099
     65 H           6.1420   -3.8005   -0.2726 H       1  LIG1        0.2099
     66 H           2.6806   -3.2150   -0.5978 H       1  LIG1        0.0297
     67 H           2.8345   -2.5286   -2.2131 H       1  LIG1        0.0297
     68 H           4.8420   -1.4200    1.0026 H       1  LIG1        0.0235
     69 H           3.2247   -1.9532    1.4171 H       1  LIG1        0.0235
     70 H           3.6099   -0.2381    1.3859 H       1  LIG1        0.0235
     71 H           1.6941   -0.4773   -1.8374 H       1  LIG1        0.0352
     72 H           1.2397   -1.9953    0.6246 H       1  LIG1        0.0271
     73 H           0.2961   -1.8046   -0.8140 H       1  LIG1        0.0271
     74 H           0.2759   -0.1973    1.7275 H       1  LIG1        0.0272
     75 H          -1.0245   -1.0548    0.9236 H       1  LIG1        0.0272
@<TRIPOS>BOND
     1     2     3    1
     2     3     4    1
     3     4     5    1
     4     5     6    1
     5     2     6    1
     6     8    11    1
     7    11    12    1
     8    11    13    1
     9    13    14    1
    10    14    15    1
    11    15    16    1
    12    15    17    1
    13    15    18    1
    14    11    18    1
    15     3    20    1
    16    20    21    2
    17    21    22    1
    18    22    23    1
    19    23    24    1
    20    24    25    1
    21    25    28    1
    22    28    31    1
    23    31    32    1
    24    23    32    1
    25    32    34    1
    26    20    34    1
    27    34    35    1
    28    35    36    1
    29     2    36    1
    30     1     2    1
    31     3    19    1
    32     6     7    1
    33     6     8    1
    34    22    37    2
    35    28    29    1
    36    28    30    1
    37    32    33    1
    38     8    10    1
    39     8     9    1
    40    25    27    1
    41    25    26    1
    42     1    38    1
    43     1    39    1
    44     1    40    1
    45     4    41    1
    46     4    42    1
    47     5    43    1
    48     5    44    1
    49     9    45    1
    50    10    46    1
    51    10    47    1
    52    10    48    1
    53    13    49    1
    54    13    50    1
    55    14    51    1
    56    14    52    1
    57    16    53    1
    58    16    54    1
    59    16    55    1
    60    17    56    1
    61    17    57    1
    62    17    58    1
    63    19    59    1
    64    21    60    1
    65    23    61    1
    66    24    62    1
    67    24    63    1
    68    27    64    1
    69    30    65    1
    70    31    66    1
    71    31    67    1
    72    33    68    1
    73    33    69    1
    74    33    70    1
    75    34    71    1
    76    35    72    1
    77    35    73    1
    78    36    74    1
    79    36    75    1
