REMARK  Name = NuBBE_1245
REMARK  15 active torsions:
REMARK  status: ('A' for Active; 'I' for Inactive)
REMARK    1  A    between atoms: O_1  and  C_2
REMARK    2  A    between atoms: C_3  and  C_38
REMARK    3  A    between atoms: C_6  and  O_24
REMARK    4  A    between atoms: C_7  and  C_8
REMARK    5  A    between atoms: C_11  and  C_13
REMARK    6  A    between atoms: C_13  and  O_14
REMARK    7  A    between atoms: C_15  and  O_23
REMARK    8  A    between atoms: C_17  and  O_22
REMARK    9  A    between atoms: C_19  and  O_21
REMARK   10  A    between atoms: C_28  and  C_30
REMARK   11  A    between atoms: C_32  and  O_33
REMARK   12  A    between atoms: C_34  and  O_37
REMARK   13  A    between atoms: C_40  and  O_42
REMARK   14  A    between atoms: C_43  and  O_45
REMARK   15  A    between atoms: C_46  and  O_50
REMARK                            x       y       z     vdW  Elec       q    Type
REMARK                         _______ _______ _______ _____ _____    ______ ____
ROOT
ATOM      1  C   LIG A   1       0.002  -1.240  -0.180  0.00  0.00    +0.135 A 
ATOM      2  C   LIG A   1      -0.129   0.148  -0.449  0.00  0.00    +0.069 A 
ATOM      3  C   LIG A   1       0.521   1.044   0.428  0.00  0.00    +0.152 A 
ATOM      4  C   LIG A   1       1.228   0.563   1.535  0.00  0.00    +0.106 A 
ATOM      5  C   LIG A   1       1.317  -0.815   1.788  0.00  0.00    +0.140 A 
ATOM      6  C   LIG A   1       0.702  -1.749   0.940  0.00  0.00    +0.068 A 
ATOM      7  C   LIG A   1       1.879   1.539   2.416  0.00  0.00    +0.197 A 
ATOM      8  O   LIG A   1       2.455   1.178   3.449  0.00  0.00    -0.287 OA
ATOM      9  C   LIG A   1       1.851   2.950   2.028  0.00  0.00    +0.098 A 
ATOM     10  C   LIG A   1       1.183   3.293   0.921  0.00  0.00    +0.139 A 
ATOM     11  O   LIG A   1       0.448   2.395   0.172  0.00  0.00    -0.454 OA
ENDROOT
BRANCH   6  12
ATOM     12  C   LIG A   1       0.799  -3.240   1.262  0.00  0.00    +0.187 C 
ATOM     13  O   LIG A   1       1.407  -3.890   0.120  0.00  0.00    -0.361 OA
ATOM     14  C   LIG A   1       1.693  -5.277   0.377  0.00  0.00    +0.175 C 
ATOM     15  C   LIG A   1       0.376  -6.040   0.593  0.00  0.00    +0.176 C 
ATOM     16  C   LIG A   1      -0.391  -5.408   1.756  0.00  0.00    +0.177 C 
ATOM     17  C   LIG A   1      -0.568  -3.896   1.570  0.00  0.00    +0.179 C 
BRANCH  17  18
ATOM     18  O   LIG A   1      -1.170  -3.361   2.751  0.00  0.00    -0.386 OA
ATOM     19  H   LIG A   1      -1.936  -3.942   2.934  0.00  0.00    +0.210 HD
ENDBRANCH  17  18
BRANCH  16  20
ATOM     20  O   LIG A   1      -1.689  -6.017   1.864  0.00  0.00    -0.387 OA
ATOM     21  H   LIG A   1      -1.519  -6.980   1.819  0.00  0.00    +0.210 HD
ENDBRANCH  16  20
BRANCH  15  22
ATOM     22  O   LIG A   1       0.568  -7.425   0.900  0.00  0.00    -0.387 OA
ATOM     23  H   LIG A   1       1.181  -7.783   0.219  0.00  0.00    +0.210 HD
ENDBRANCH  15  22
BRANCH  14  24
ATOM     24  C   LIG A   1       2.477  -5.846  -0.815  0.00  0.00    +0.190 C 
BRANCH  24  25
ATOM     25  O   LIG A   1       2.750  -7.235  -0.644  0.00  0.00    -0.392 OA
ATOM     26  H   LIG A   1       3.586  -7.308  -0.144  0.00  0.00    +0.209 HD
ENDBRANCH  24  25
ENDBRANCH  14  24
ENDBRANCH   6  12
BRANCH  10  27
ATOM     27  C   LIG A   1       1.153   4.693   0.434  0.00  0.00    +0.021 A 
ATOM     28  C   LIG A   1       0.052   5.174  -0.298  0.00  0.00    +0.060 A 
ATOM     29  C   LIG A   1       0.041   6.487  -0.764  0.00  0.00    +0.159 A 
ATOM     30  C   LIG A   1       1.117   7.334  -0.516  0.00  0.00    +0.158 A 
ATOM     31  C   LIG A   1       2.216   6.887   0.195  0.00  0.00    +0.050 A 
ATOM     32  C   LIG A   1       2.236   5.569   0.660  0.00  0.00    +0.015 A 
BRANCH  29  33
ATOM     33  O   LIG A   1      -1.016   6.992  -1.474  0.00  0.00    -0.503 OA
ATOM     34  H   LIG A   1      -1.687   6.289  -1.564  0.00  0.00    +0.292 HD
ENDBRANCH  29  33
BRANCH  30  35
ATOM     35  O   LIG A   1       1.101   8.619  -0.975  0.00  0.00    -0.503 OA
ATOM     36  H   LIG A   1       0.247   8.699  -1.445  0.00  0.00    +0.292 HD
ENDBRANCH  30  35
ENDBRANCH  10  27
BRANCH   2  37
ATOM     37  C   LIG A   1      -0.919   0.603  -1.689  0.00  0.00    +0.186 C 
ATOM     38  C   LIG A   1      -2.433   0.228  -1.629  0.00  0.00    +0.179 C 
ATOM     39  C   LIG A   1      -3.287   1.433  -1.218  0.00  0.00    +0.176 C 
ATOM     40  C   LIG A   1      -3.081   2.624  -2.173  0.00  0.00    +0.171 C 
ATOM     41  C   LIG A   1      -1.685   2.611  -2.800  0.00  0.00    +0.194 C 
ATOM     42  O   LIG A   1      -0.734   2.012  -1.923  0.00  0.00    -0.366 OA
BRANCH  38  43
ATOM     43  O   LIG A   1      -2.877  -0.207  -2.929  0.00  0.00    -0.386 OA
ATOM     44  H   LIG A   1      -2.430  -1.057  -3.104  0.00  0.00    +0.210 HD
ENDBRANCH  38  43
BRANCH  39  45
ATOM     45  O   LIG A   1      -3.001   1.847   0.130  0.00  0.00    -0.387 OA
ATOM     46  H   LIG A   1      -2.067   2.136   0.147  0.00  0.00    +0.210 HD
ENDBRANCH  39  45
BRANCH  40  47
ATOM     47  O   LIG A   1      -3.274   3.858  -1.449  0.00  0.00    -0.387 OA
ATOM     48  H   LIG A   1      -3.573   3.593  -0.553  0.00  0.00    +0.210 HD
ENDBRANCH  40  47
ENDBRANCH   2  37
BRANCH   1  49
ATOM     49  O   LIG A   1      -0.569  -2.101  -1.088  0.00  0.00    -0.506 OA
ATOM     50  H   LIG A   1      -0.129  -2.966  -0.988  0.00  0.00    +0.292 HD
ENDBRANCH   1  49
BRANCH   5  51
ATOM     51  O   LIG A   1       2.026  -1.290   2.866  0.00  0.00    -0.505 OA
ATOM     52  H   LIG A   1       2.337  -0.526   3.404  0.00  0.00    +0.292 HD
ENDBRANCH   5  51
TORSDOF 15
