REMARK  Name = NuBBE_1628
REMARK  17 active torsions:
REMARK  status: ('A' for Active; 'I' for Inactive)
REMARK    1  A    between atoms: C_1  and  C_2
REMARK    2  A    between atoms: C_1  and  C_6
REMARK    3  A    between atoms: C_2  and  O_4
REMARK    4  A    between atoms: O_4  and  C_5
REMARK    5  A    between atoms: C_6  and  C_7
REMARK    6  A    between atoms: C_7  and  C_8
REMARK    7  A    between atoms: C_9  and  C_10
REMARK    8  A    between atoms: C_9  and  C_21
REMARK    9  A    between atoms: C_10  and  C_11
REMARK   10  A    between atoms: C_11  and  C_12
REMARK   11  A    between atoms: C_13  and  C_14
REMARK   12  A    between atoms: C_13  and  C_20
REMARK   13  A    between atoms: C_14  and  C_15
REMARK   14  A    between atoms: C_15  and  C_16
REMARK   15  A    between atoms: C_17  and  C_18
REMARK   16  A    between atoms: C_17  and  C_19
REMARK   17  A    between atoms: C_26  and  O_29
REMARK                            x       y       z     vdW  Elec       q    Type
REMARK                         _______ _______ _______ _____ _____    ______ ____
ROOT
ATOM      1  C   LIG A   1       1.386   1.721   3.217  0.00  0.00    +0.042 C 
ENDROOT
BRANCH   1   2
ATOM      2  C   LIG A   1       1.082   0.378   3.968  0.00  0.00    +0.049 C 
ATOM      3  C   LIG A   1      -0.399   0.035   3.763  0.00  0.00    +0.163 C 
ATOM      4  O   LIG A   1      -1.296   0.811   4.094  0.00  0.00    -0.292 OA
ATOM      5  C   LIG A   1      -0.797  -1.293   3.254  0.00  0.00    +0.045 C 
ATOM      6  C   LIG A   1       0.092  -2.277   3.102  0.00  0.00    +0.007 C 
ATOM      7  C   LIG A   1       1.559  -2.144   3.317  0.00  0.00    +0.139 C 
ATOM      8  C   LIG A   1       2.076  -0.713   3.477  0.00  0.00    +0.051 C 
BRANCH   7   9
ATOM      9  O   LIG A   1       1.947  -2.933   4.431  0.00  0.00    -0.388 OA
ATOM     10  H   LIG A   1       1.410  -2.638   5.196  0.00  0.00    +0.210 HD
ENDBRANCH   7   9
BRANCH   2  11
ATOM     11  C   LIG A   1       1.262   0.676   5.488  0.00  0.00    +0.135 C 
BRANCH  11  12
ATOM     12  C   LIG A   1       0.801  -0.416   6.425  0.00  0.00    +0.308 C 
ATOM     13  O   LIG A   1       0.433  -1.546   6.079  0.00  0.00    -0.251 OA
BRANCH  12  14
ATOM     14  O   LIG A   1       0.841   0.014   7.706  0.00  0.00    -0.468 OA
ATOM     15  C   LIG A   1       0.154  -0.836   8.630  0.00  0.00    +0.280 C 
ENDBRANCH  12  14
ENDBRANCH  11  12
ENDBRANCH   2  11
ENDBRANCH   1   2
BRANCH   1  16
ATOM     16  C   LIG A   1       1.217   1.678   1.716  0.00  0.00    -0.027 C 
ATOM     17  C   LIG A   1       0.118   1.985   0.999  0.00  0.00    -0.076 C 
ATOM     18  C   LIG A   1      -1.181   2.482   1.571  0.00  0.00    +0.038 C 
BRANCH  17  19
ATOM     19  C   LIG A   1       0.133   1.843  -0.508  0.00  0.00    +0.034 C 
BRANCH  19  20
ATOM     20  C   LIG A   1      -0.335   0.454  -0.971  0.00  0.00    +0.031 C 
BRANCH  20  21
ATOM     21  C   LIG A   1      -0.299   0.354  -2.470  0.00  0.00    -0.027 C 
ATOM     22  C   LIG A   1      -0.557  -0.744  -3.208  0.00  0.00    -0.076 C 
ATOM     23  C   LIG A   1      -0.989  -2.058  -2.606  0.00  0.00    +0.038 C 
BRANCH  22  24
ATOM     24  C   LIG A   1      -0.447  -0.763  -4.726  0.00  0.00    +0.034 C 
BRANCH  24  25
ATOM     25  C   LIG A   1      -0.009   0.553  -5.396  0.00  0.00    +0.031 C 
BRANCH  25  26
ATOM     26  C   LIG A   1       0.097   0.451  -6.890  0.00  0.00    -0.028 C 
ATOM     27  C   LIG A   1      -0.913   0.289  -7.765  0.00  0.00    -0.080 C 
ATOM     28  C   LIG A   1      -2.372   0.239  -7.401  0.00  0.00    +0.038 C 
ATOM     29  C   LIG A   1      -0.623   0.110  -9.230  0.00  0.00    +0.038 C 
ENDBRANCH  25  26
ENDBRANCH  24  25
ENDBRANCH  22  24
ENDBRANCH  20  21
ENDBRANCH  19  20
ENDBRANCH  17  19
ENDBRANCH   1  16
TORSDOF 12
