REMARK  Name = NuBBE_2067
REMARK  8 active torsions:
REMARK  status: ('A' for Active; 'I' for Inactive)
REMARK    1  A    between atoms: C_1  and  O_2
REMARK    2  A    between atoms: O_2  and  C_3
REMARK    3  A    between atoms: C_12  and  O_14
REMARK    4  A    between atoms: O_14  and  C_15
REMARK    5  A    between atoms: C_18  and  O_19
REMARK    6  A    between atoms: O_19  and  C_20
REMARK    7  A    between atoms: C_21  and  O_22
REMARK    8  A    between atoms: O_22  and  C_23
REMARK                            x       y       z     vdW  Elec       q    Type
REMARK                         _______ _______ _______ _____ _____    ______ ____
ROOT
ATOM      1  C   LIG A   1       3.173  -0.493  -0.823  0.00  0.00    +0.143 C 
ATOM      2  C   LIG A   1       3.032  -1.921  -0.338  0.00  0.00    +0.004 C 
ATOM      3  C   LIG A   1       2.294  -2.278   0.732  0.00  0.00    +0.004 C 
ATOM      4  C   LIG A   1       1.676  -1.227   1.474  0.00  0.00    -0.026 C 
ATOM      5  C   LIG A   1       2.023  -0.976   2.752  0.00  0.00    -0.006 C 
ATOM      6  C   LIG A   1       1.832   0.468   3.040  0.00  0.00    +0.113 C 
ATOM      7  N   LIG A   1       0.983   0.997   1.936  0.00  0.00    -0.282 NA
ATOM      8  C   LIG A   1      -0.386   1.006   2.456  0.00  0.00    +0.122 C 
ATOM      9  C   LIG A   1      -1.461   1.398   1.448  0.00  0.00    +0.162 C 
ATOM     10  C   LIG A   1      -1.280   0.608   0.170  0.00  0.00    -0.009 A 
ATOM     11  C   LIG A   1      -2.325   0.651  -0.773  0.00  0.00    +0.056 A 
ATOM     12  C   LIG A   1      -2.314  -0.129  -1.928  0.00  0.00    +0.162 A 
ATOM     13  C   LIG A   1      -1.240  -0.995  -2.136  0.00  0.00    +0.162 A 
ATOM     14  C   LIG A   1      -0.150  -0.971  -1.241  0.00  0.00    +0.055 A 
ATOM     15  C   LIG A   1      -0.118  -0.147  -0.090  0.00  0.00    -0.013 A 
ATOM     16  C   LIG A   1       1.153   0.013   0.786  0.00  0.00    +0.076 C 
ATOM     17  C   LIG A   1       2.327   0.568  -0.067  0.00  0.00    +0.068 C 
ENDROOT
BRANCH   1  19
ATOM     18  C   LIG A   1       4.936   1.103  -1.202  0.00  0.00    +0.194 C 
ATOM     19  O   LIG A   1       4.579  -0.195  -0.744  0.00  0.00    -0.376 OA
ENDBRANCH   1  19
BRANCH   9  20
ATOM     20  O   LIG A   1      -2.760   1.045   1.967  0.00  0.00    -0.374 OA
ATOM     21  C   LIG A   1      -3.129   1.696   3.172  0.00  0.00    +0.195 C 
ENDBRANCH   9  20
BRANCH  12  22
ATOM     22  O   LIG A   1      -3.280  -0.024  -2.889  0.00  0.00    -0.491 OA
ATOM     23  C   LIG A   1      -4.554   0.437  -2.459  0.00  0.00    +0.277 C 
ENDBRANCH  12  22
BRANCH  13  24
ATOM     24  O   LIG A   1      -1.096  -1.867  -3.192  0.00  0.00    -0.491 OA
ATOM     25  C   LIG A   1      -2.303  -2.425  -3.715  0.00  0.00    +0.277 C 
ENDBRANCH  13  24
TORSDOF 4
