@<TRIPOS>MOLECULE
NuBBE_480
 85 89 0 0 0
SMALL
GASTEIGER

@<TRIPOS>ATOM
      1 O          -3.9239   -4.1199   -3.1402 O.3     1  LIG1       -0.3912
      2 C          -4.4060   -3.0889   -2.2675 C.3     1  LIG1        0.0630
      3 H          -5.4983   -3.1621   -2.3179 H       1  LIG1        0.0599
      4 C          -3.9690   -3.4281   -0.8450 C.3     1  LIG1       -0.0257
      5 C          -2.4613   -3.2534   -0.6205 C.3     1  LIG1       -0.0447
      6 C          -1.9079   -1.8354   -0.9907 C.3     1  LIG1       -0.0249
      7 C          -2.3925   -1.5162   -2.4568 C.3     1  LIG1       -0.0255
      8 C          -3.9417   -1.6749   -2.7339 C.3     1  LIG1        0.0203
      9 C          -4.2141   -1.5740   -4.2620 C.3     1  LIG1       -0.0548
     10 C          -4.7981   -0.5789   -2.0482 C.3     1  LIG1        0.0522
     11 O          -6.1833   -0.7482   -2.3376 O.3     1  LIG1       -0.3944
     12 H          -1.9271   -2.2914   -3.0863 H       1  LIG1        0.0313
     13 C          -1.7787   -0.2008   -2.9647 C.3     1  LIG1       -0.0485
     14 C          -0.2504   -0.2887   -3.0279 C.3     1  LIG1       -0.0463
     15 C           0.4801   -0.7104   -1.7191 C.3     1  LIG1       -0.0194
     16 C          -0.3131   -1.8889   -1.0156 C.3     1  LIG1       -0.0257
     17 C           0.3607   -2.2813    0.3154 C.3     1  LIG1       -0.0306
     18 C           0.8722   -1.1475    1.1393 C.2     1  LIG1       -0.0836
     19 C           1.0571    0.1195    0.7280 C.2     1  LIG1       -0.0629
     20 C           0.8377    0.5519   -0.7378 C.3     1  LIG1       -0.0051
     21 C           2.1726    1.2536   -1.1778 C.3     1  LIG1       -0.0424
     22 C           2.6319    2.4146   -0.2790 C.3     1  LIG1       -0.0359
     23 C           2.7394    2.0278    1.2158 C.3     1  LIG1        0.0743
     24 C           2.7966    3.3271    2.0665 C.3     1  LIG1       -0.0362
     25 C           2.8900    3.0585    3.5720 C.3     1  LIG1       -0.0468
     26 C           1.8142    2.0946    4.1180 C.3     1  LIG1       -0.0343
     27 C           0.4712    2.8356    4.2874 C.3     1  LIG1       -0.0598
     28 C           1.6287    0.8638    3.1939 C.3     1  LIG1       -0.0403
     29 C           1.4906    1.2350    1.6944 C.3     1  LIG1       -0.0031
     30 H           0.6405    1.9277    1.6747 H       1  LIG1        0.0357
     31 C           2.2554    1.6042    5.5117 C.3     1  LIG1       -0.0598
     32 C           4.0382    1.2036    1.3674 C.2     1  LIG1        0.3136
     33 O           5.1144    2.0151    1.5668 O.3     1  LIG1       -0.4675
     34 C           6.3943    1.3875    1.6929 C.3     1  LIG1        0.0817
     35 O           4.1122   -0.0154    1.2571 O.2     1  LIG1       -0.2502
     36 C          -0.2517    1.6561   -0.7925 C.3     1  LIG1       -0.0553
     37 H          -0.1360   -2.7676   -1.6581 H       1  LIG1        0.0315
     38 C           1.8213   -1.3699   -2.2153 C.3     1  LIG1       -0.0585
     39 C          -2.4319   -0.8542    0.0796 C.3     1  LIG1       -0.0590
     40 H          -2.9544   -4.1134   -3.1334 H       1  LIG1        0.2098
     41 H          -4.2210   -4.4741   -0.6292 H       1  LIG1        0.0290
     42 H          -4.5353   -2.8235   -0.1297 H       1  LIG1        0.0290
     43 H          -1.9325   -4.0198   -1.2010 H       1  LIG1        0.0271
     44 H          -2.2598   -3.4828    0.4321 H       1  LIG1        0.0271
     45 H          -3.5157   -2.1898   -4.8391 H       1  LIG1        0.0237
     46 H          -4.1248   -0.5441   -4.6235 H       1  LIG1        0.0237
     47 H          -5.2284   -1.9095   -4.5082 H       1  LIG1        0.0237
     48 H          -4.7141   -0.6008   -0.9641 H       1  LIG1        0.0563
     49 H          -4.5103    0.4183   -2.3973 H       1  LIG1        0.0563
     50 H          -6.6668   -0.0622   -1.8454 H       1  LIG1        0.2094
     51 H          -2.1118    0.6478   -2.3669 H       1  LIG1        0.0268
     52 H          -2.1183    0.0103   -3.9840 H       1  LIG1        0.0268
     53 H           0.1608    0.6514   -3.4137 H       1  LIG1        0.0271
     54 H          -0.0242   -1.0267   -3.8120 H       1  LIG1        0.0271
     55 H           1.2097   -2.9463    0.1098 H       1  LIG1        0.0310
     56 H          -0.3169   -2.8708    0.9385 H       1  LIG1        0.0310
     57 H           1.0906   -1.4291    2.1661 H       1  LIG1        0.0572
     58 H           2.0731    1.6297   -2.2038 H       1  LIG1        0.0274
     59 H           3.0018    0.5381   -1.1891 H       1  LIG1        0.0274
     60 H           1.9576    3.2682   -0.4091 H       1  LIG1        0.0276
     61 H           3.6071    2.7630   -0.6461 H       1  LIG1        0.0276
     62 H           1.8990    3.9298    1.8721 H       1  LIG1        0.0276
     63 H           3.6410    3.9590    1.7640 H       1  LIG1        0.0276
     64 H           2.8352    4.0181    4.1031 H       1  LIG1        0.0271
     65 H           3.8862    2.6570    3.7936 H       1  LIG1        0.0271
     66 H           0.1049    3.2574    3.3472 H       1  LIG1        0.0235
     67 H           0.5650    3.6627    5.0004 H       1  LIG1        0.0235
     68 H          -0.3030    2.1605    4.6710 H       1  LIG1        0.0235
     69 H           0.7365    0.3160    3.5254 H       1  LIG1        0.0276
     70 H           2.4736    0.1765    3.3277 H       1  LIG1        0.0276
     71 H           3.2119    1.0713    5.4585 H       1  LIG1        0.0235
     72 H           1.5179    0.9190    5.9439 H       1  LIG1        0.0235
     73 H           2.3827    2.4434    6.2048 H       1  LIG1        0.0235
     74 H           6.3590    0.2948    1.6797 H       1  LIG1        0.0661
     75 H           6.8429    1.7114    2.6365 H       1  LIG1        0.0661
     76 H           7.0249    1.7361    0.8708 H       1  LIG1        0.0661
     77 H          -0.3982    2.0379   -1.8066 H       1  LIG1        0.0238
     78 H          -0.0107    2.5420   -0.1993 H       1  LIG1        0.0238
     79 H          -1.2023    1.3195   -0.3996 H       1  LIG1        0.0238
     80 H           1.6317   -2.2939   -2.7758 H       1  LIG1        0.0235
     81 H           2.4872   -1.6306   -1.3867 H       1  LIG1        0.0235
     82 H           2.3642   -0.7130   -2.9041 H       1  LIG1        0.0235
     83 H          -3.3070   -1.2373    0.6125 H       1  LIG1        0.0235
     84 H          -2.7387    0.1016   -0.3421 H       1  LIG1        0.0235
     85 H          -1.7044   -0.6534    0.8658 H       1  LIG1        0.0235
@<TRIPOS>BOND
     1     2     4    1
     2     4     5    1
     3     5     6    1
     4     6     7    1
     5     7     8    1
     6     2     8    1
     7    10    11    1
     8     7    13    1
     9    13    14    1
    10    14    15    1
    11    15    16    1
    12    16    17    1
    13    17    18    1
    14    18    19    2
    15    19    20    1
    16    20    21    1
    17    21    22    1
    18    22    23    1
    19    23    24    1
    20    24    25    1
    21    25    26    1
    22    26    28    1
    23    28    29    1
    24    19    29    1
    25    29    23    1
    26    32    33    1
    27    33    34    1
    28    32    35    2
    29    20    15    1
    30    16     6    1
    31     6    39    1
    32     7    12    1
    33     8     9    1
    34     8    10    1
    35    15    38    1
    36    16    37    1
    37    20    36    1
    38    23    32    1
    39    26    27    1
    40    26    31    1
    41    29    30    1
    42     2     3    1
    43     2     1    1
    44     1    40    1
    45     4    41    1
    46     4    42    1
    47     5    43    1
    48     5    44    1
    49     9    45    1
    50     9    46    1
    51     9    47    1
    52    10    48    1
    53    10    49    1
    54    11    50    1
    55    13    51    1
    56    13    52    1
    57    14    53    1
    58    14    54    1
    59    17    55    1
    60    17    56    1
    61    18    57    1
    62    21    58    1
    63    21    59    1
    64    22    60    1
    65    22    61    1
    66    24    62    1
    67    24    63    1
    68    25    64    1
    69    25    65    1
    70    27    66    1
    71    27    67    1
    72    27    68    1
    73    28    69    1
    74    28    70    1
    75    31    71    1
    76    31    72    1
    77    31    73    1
    78    34    74    1
    79    34    75    1
    80    34    76    1
    81    36    77    1
    82    36    78    1
    83    36    79    1
    84    38    80    1
    85    38    81    1
    86    38    82    1
    87    39    83    1
    88    39    84    1
    89    39    85    1
