@<TRIPOS>MOLECULE
NuBBE_2381
 61 63 0 0 0
SMALL
GASTEIGER

@<TRIPOS>ATOM
      1 C          -0.8725    2.4678    2.8388 C.3     1  LIG1       -0.0307
      2 C          -0.2553    1.2072    2.0943 C.3     1  LIG1       -0.0156
      3 C          -0.1849    1.2924    0.5064 C.3     1  LIG1        0.0996
      4 C           1.1045    2.0790    0.1330 C.2     1  LIG1        0.3179
      5 O           1.1394    3.1727   -0.4424 O.2     1  LIG1       -0.2498
      6 O           2.2197    1.3797    0.4994 O.3     1  LIG1       -0.4673
      7 C           3.4271    1.7871   -0.1433 C.3     1  LIG1        0.0817
      8 C          -0.0728   -0.1090   -0.2037 C.ar    1  LIG1        0.0182
      9 C           0.1262   -0.2505   -1.6065 C.ar    1  LIG1        0.1662
     10 C           0.3866   -1.5200   -2.2122 C.ar    1  LIG1        0.1652
     11 O           0.7780   -1.5586   -3.5329 O.3     1  LIG1       -0.4912
     12 C          -0.2593   -1.9733   -4.4235 C.3     1  LIG1        0.0790
     13 C           0.4386   -2.6922   -1.4316 C.ar    1  LIG1        0.0008
     14 C           0.1920   -2.5358   -0.0595 C.ar    1  LIG1       -0.0512
     15 C          -0.0552   -1.2905    0.5524 C.ar    1  LIG1       -0.0391
     16 C          -0.1704   -1.2966    2.0477 C.3     1  LIG1       -0.0270
     17 C          -0.9283   -0.0941    2.5566 C.3     1  LIG1       -0.0444
     18 C           0.8099   -4.0770   -1.9752 C.3     1  LIG1       -0.0179
     19 C           0.1089   -5.2387   -1.2404 C.3     1  LIG1       -0.0585
     20 C           2.3193   -4.3559   -1.9370 C.3     1  LIG1       -0.0585
     21 O           0.2096    0.9116   -2.3408 O.3     1  LIG1       -0.4911
     22 C          -0.7772    1.0114   -3.3650 C.3     1  LIG1        0.0790
     23 C          -1.4683    2.0178    0.0277 C.3     1  LIG1       -0.0327
     24 C          -1.7226    3.4046    0.6302 C.3     1  LIG1       -0.0512
     25 C          -0.9577    3.6918    1.9139 C.3     1  LIG1       -0.0475
     26 C          -2.2844    2.2342    3.4353 C.3     1  LIG1       -0.0595
     27 C           0.0567    2.8290    4.0225 C.3     1  LIG1       -0.0595
     28 H           0.7838    1.1263    2.4443 H       1  LIG1        0.0320
     29 H           4.1186    0.9405   -0.1149 H       1  LIG1        0.0661
     30 H           3.8817    2.6294    0.3853 H       1  LIG1        0.0661
     31 H           3.2501    2.0372   -1.1948 H       1  LIG1        0.0661
     32 H          -0.6049   -1.1168   -5.0101 H       1  LIG1        0.0660
     33 H          -1.1183   -2.4328   -3.9239 H       1  LIG1        0.0660
     34 H           0.1662   -2.6858   -5.1364 H       1  LIG1        0.0660
     35 H           0.2321   -3.3983    0.6006 H       1  LIG1        0.0624
     36 H           0.8388   -1.3212    2.4769 H       1  LIG1        0.0313
     37 H          -0.6939   -2.2007    2.3815 H       1  LIG1        0.0313
     38 H          -0.9410   -0.1513    3.6506 H       1  LIG1        0.0272
     39 H          -1.9669   -0.1408    2.2067 H       1  LIG1        0.0272
     40 H           0.4880   -4.1427   -3.0203 H       1  LIG1        0.0345
     41 H           0.3566   -5.2678   -0.1737 H       1  LIG1        0.0235
     42 H           0.4253   -6.2068   -1.6441 H       1  LIG1        0.0235
     43 H          -0.9787   -5.1682   -1.3356 H       1  LIG1        0.0235
     44 H           2.7058   -4.3522   -0.9115 H       1  LIG1        0.0235
     45 H           2.8871   -3.6272   -2.5221 H       1  LIG1        0.0235
     46 H           2.5310   -5.3488   -2.3572 H       1  LIG1        0.0235
     47 H          -1.2564    1.9928   -3.2974 H       1  LIG1        0.0660
     48 H          -1.5666    0.2543   -3.2904 H       1  LIG1        0.0660
     49 H          -0.2835    0.9615   -4.3390 H       1  LIG1        0.0660
     50 H          -2.3347    1.3825    0.2576 H       1  LIG1        0.0279
     51 H          -1.4921    2.1412   -1.0557 H       1  LIG1        0.0279
     52 H          -2.8003    3.5140    0.8093 H       1  LIG1        0.0266
     53 H          -1.4735    4.1807   -0.1042 H       1  LIG1        0.0266
     54 H          -1.4432    4.5320    2.4300 H       1  LIG1        0.0271
     55 H           0.0476    4.0554    1.6752 H       1  LIG1        0.0271
     56 H          -3.0015    1.9059    2.6768 H       1  LIG1        0.0235
     57 H          -2.6797    3.1572    3.8774 H       1  LIG1        0.0235
     58 H          -2.2752    1.4923    4.2407 H       1  LIG1        0.0235
     59 H           1.0663    3.0726    3.6713 H       1  LIG1        0.0235
     60 H           0.1413    1.9939    4.7270 H       1  LIG1        0.0235
     61 H          -0.3174    3.6977    4.5756 H       1  LIG1        0.0235
@<TRIPOS>BOND
     1     1     2    1
     2     2     3    1
     3     4     5    2
     4     4     6    1
     5     6     7    1
     6     3     8    1
     7     8     9   ar
     8     9    10   ar
     9    11    12    1
    10    10    13   ar
    11    13    14   ar
    12    14    15   ar
    13     8    15   ar
    14    15    16    1
    15    16    17    1
    16     2    17    1
    17    18    19    1
    18    18    20    1
    19    21    22    1
    20     3    23    1
    21    23    24    1
    22    24    25    1
    23     1    25    1
    24     1    26    1
    25     1    27    1
    26     3     4    1
    27     9    21    1
    28    10    11    1
    29    13    18    1
    30     2    28    1
    31     7    29    1
    32     7    30    1
    33     7    31    1
    34    12    32    1
    35    12    33    1
    36    12    34    1
    37    14    35    1
    38    16    36    1
    39    16    37    1
    40    17    38    1
    41    17    39    1
    42    18    40    1
    43    19    41    1
    44    19    42    1
    45    19    43    1
    46    20    44    1
    47    20    45    1
    48    20    46    1
    49    22    47    1
    50    22    48    1
    51    22    49    1
    52    23    50    1
    53    23    51    1
    54    24    52    1
    55    24    53    1
    56    25    54    1
    57    25    55    1
    58    26    56    1
    59    26    57    1
    60    26    58    1
    61    27    59    1
    62    27    60    1
    63    27    61    1
