REMARK  Name = NuBBE_1305
REMARK  5 active torsions:
REMARK  status: ('A' for Active; 'I' for Inactive)
REMARK    1  A    between atoms: C_4  and  C_5
REMARK    2  A    between atoms: C_18  and  O_19
REMARK    3  A    between atoms: O_19  and  C_20
REMARK    4  A    between atoms: C_22  and  O_23
REMARK    5  A    between atoms: O_23  and  C_24
REMARK                            x       y       z     vdW  Elec       q    Type
REMARK                         _______ _______ _______ _____ _____    ______ ____
ROOT
ATOM      1  O   LIG A   1      -3.729  -0.041  -0.016  0.00  0.00    -0.287 OA
ATOM      2  C   LIG A   1      -2.505   0.014  -0.021  0.00  0.00    +0.197 A 
ATOM      3  C   LIG A   1      -1.746  -1.249  -0.016  0.00  0.00    +0.098 A 
ATOM      4  C   LIG A   1      -0.408  -1.233  -0.068  0.00  0.00    +0.139 A 
ATOM      5  O   LIG A   1       0.337  -0.067  -0.101  0.00  0.00    -0.454 OA
ATOM      6  C   LIG A   1      -1.714   1.266  -0.037  0.00  0.00    +0.106 A 
ATOM      7  C   LIG A   1      -0.321   1.140  -0.075  0.00  0.00    +0.146 A 
ATOM      8  C   LIG A   1       0.501   2.270  -0.090  0.00  0.00    +0.092 A 
ATOM      9  C   LIG A   1      -0.066   3.539  -0.067  0.00  0.00    +0.127 A 
ATOM     10  C   LIG A   1      -1.458   3.669  -0.027  0.00  0.00    +0.092 A 
ATOM     11  C   LIG A   1      -2.297   2.546  -0.014  0.00  0.00    +0.138 A 
ENDROOT
BRANCH   4  12
ATOM     12  C   LIG A   1       0.397  -2.479  -0.081  0.00  0.00    +0.021 A 
ATOM     13  C   LIG A   1       1.696  -2.493   0.461  0.00  0.00    +0.061 A 
ATOM     14  C   LIG A   1       2.415  -3.673   0.428  0.00  0.00    +0.167 A 
ATOM     15  O   LIG A   1       3.674  -3.853   0.913  0.00  0.00    -0.453 OA
ATOM     16  C   LIG A   1       3.886  -5.249   0.610  0.00  0.00    +0.466 C 
ATOM     17  O   LIG A   1       2.763  -5.869  -0.049  0.00  0.00    -0.453 OA
ATOM     18  C   LIG A   1       1.900  -4.822  -0.120  0.00  0.00    +0.166 A 
ATOM     19  C   LIG A   1       0.641  -4.856  -0.672  0.00  0.00    +0.050 A 
ATOM     20  C   LIG A   1      -0.107  -3.673  -0.657  0.00  0.00    +0.015 A 
ENDBRANCH   4  12
BRANCH   9  21
ATOM     21  O   LIG A   1       0.614   4.725  -0.079  0.00  0.00    -0.495 OA
ATOM     22  C   LIG A   1       2.034   4.650  -0.113  0.00  0.00    +0.277 C 
ENDBRANCH   9  21
BRANCH  11  23
ATOM     23  O   LIG A   1      -3.662   2.630   0.022  0.00  0.00    -0.494 OA
ATOM     24  C   LIG A   1      -4.257   3.921   0.032  0.00  0.00    +0.277 C 
ENDBRANCH  11  23
TORSDOF 3
