@<TRIPOS>MOLECULE
NuBBE_1041
 81 84 0 0 0
SMALL
GASTEIGER

@<TRIPOS>ATOM
      1 O          -5.1337    2.2805   -3.7641 O.3     1  LIG1       -0.3912
      2 C          -4.5291    3.2905   -2.9557 C.3     1  LIG1        0.0606
      3 C          -3.1228    3.6194   -3.4863 C.3     1  LIG1       -0.0258
      4 C          -1.9541    2.9947   -2.7102 C.3     1  LIG1       -0.0444
      5 C          -2.2829    1.6068   -2.1378 C.3     1  LIG1       -0.0218
      6 C          -3.5263    1.7131   -1.1815 C.3     1  LIG1       -0.0242
      7 H          -3.1283    2.0221   -0.2002 H       1  LIG1        0.0315
      8 C          -4.5675    2.8467   -1.4800 C.3     1  LIG1       -0.0053
      9 C          -4.2282    4.0828   -0.5933 C.3     1  LIG1       -0.0572
     10 C          -6.0015    2.4349   -1.0787 C.3     1  LIG1       -0.0572
     11 C          -4.0426    0.2953   -0.9096 C.3     1  LIG1       -0.0306
     12 C          -2.9064   -0.5900   -0.4526 C.2     1  LIG1       -0.0836
     13 C          -1.5877   -0.2740   -0.5198 C.2     1  LIG1       -0.0634
     14 C          -1.1492    1.0462   -1.1966 C.3     1  LIG1       -0.0137
     15 C           0.2166    0.9816   -1.8844 C.3     1  LIG1       -0.0455
     16 C           1.2534    0.4147   -0.9340 C.3     1  LIG1       -0.0460
     17 C           0.9288   -1.0439   -0.4989 C.3     1  LIG1       -0.0199
     18 C          -0.5044   -1.1409    0.1527 C.3     1  LIG1       -0.0051
     19 C          -0.9681   -2.6252    0.2543 C.3     1  LIG1       -0.0553
     20 C          -0.2478   -0.6007    1.5700 C.3     1  LIG1       -0.0431
     21 C           1.1059   -1.1709    1.9751 C.3     1  LIG1       -0.0486
     22 C           1.9446   -1.3655    0.6815 C.3     1  LIG1       -0.0322
     23 H           2.7081   -0.5750    0.6903 H       1  LIG1        0.0309
     24 C           2.7487   -2.7021    0.6925 C.3     1  LIG1       -0.0402
     25 H           2.0266   -3.5273    0.6815 H       1  LIG1        0.0301
     26 C           3.6142   -2.9022    1.9768 C.3     1  LIG1       -0.0466
     27 C           4.7848   -1.9220    2.1666 C.3     1  LIG1       -0.0311
     28 C           5.6326   -2.3063    3.3522 C.2     1  LIG1       -0.0460
     29 C           5.5659   -1.7799    4.5874 C.2     1  LIG1        0.1016
     30 O           4.5974   -0.7999    4.8939 O.3     1  LIG1       -0.4331
     31 C           5.0938    0.3953    5.3287 C.2     1  LIG1        0.2992
     32 O           6.2489    0.7335    5.4875 O.2     1  LIG1       -0.2542
     33 C           6.4136   -2.2692    5.7292 C.3     1  LIG1       -0.0066
     34 C           3.6705   -2.8796   -0.5228 C.3     1  LIG1       -0.0621
     35 C           1.0026   -1.9166   -1.7646 C.3     1  LIG1       -0.0585
     36 H          -1.0173    1.7661   -0.3733 H       1  LIG1        0.0351
     37 C          -2.4550    0.6376   -3.3514 C.3     1  LIG1       -0.0587
     38 H          -5.1778    2.6156   -4.6755 H       1  LIG1        0.2098
     39 H          -5.1603    4.1781   -3.0871 H       1  LIG1        0.0599
     40 H          -2.9795    4.7067   -3.4697 H       1  LIG1        0.0290
     41 H          -3.0462    3.3181   -4.5389 H       1  LIG1        0.0290
     42 H          -1.6406    3.6641   -1.9020 H       1  LIG1        0.0272
     43 H          -1.0910    2.9481   -3.3866 H       1  LIG1        0.0272
     44 H          -3.2057    4.4405   -0.7331 H       1  LIG1        0.0236
     45 H          -4.3379    3.8440    0.4717 H       1  LIG1        0.0236
     46 H          -4.8982    4.9217   -0.8110 H       1  LIG1        0.0236
     47 H          -6.0606    2.2025   -0.0086 H       1  LIG1        0.0236
     48 H          -6.3520    1.5584   -1.6323 H       1  LIG1        0.0236
     49 H          -6.7099    3.2490   -1.2695 H       1  LIG1        0.0236
     50 H          -4.5301   -0.1409   -1.7879 H       1  LIG1        0.0310
     51 H          -4.7806    0.3091   -0.1003 H       1  LIG1        0.0310
     52 H          -3.2492   -1.5058    0.0178 H       1  LIG1        0.0572
     53 H           0.5417    1.9897   -2.1668 H       1  LIG1        0.0271
     54 H           0.1866    0.4017   -2.8105 H       1  LIG1        0.0271
     55 H           1.3281    1.0782   -0.0617 H       1  LIG1        0.0271
     56 H           2.2394    0.4482   -1.4159 H       1  LIG1        0.0271
     57 H          -1.2797   -3.0111   -0.7246 H       1  LIG1        0.0238
     58 H          -1.8169   -2.7440    0.9375 H       1  LIG1        0.0238
     59 H          -0.1878   -3.2886    0.6332 H       1  LIG1        0.0238
     60 H          -1.0301   -0.8982    2.2792 H       1  LIG1        0.0274
     61 H          -0.2110    0.4952    1.5899 H       1  LIG1        0.0274
     62 H           0.9443   -2.1176    2.5009 H       1  LIG1        0.0268
     63 H           1.6076   -0.4910    2.6736 H       1  LIG1        0.0268
     64 H           2.9778   -2.8739    2.8683 H       1  LIG1        0.0271
     65 H           4.0181   -3.9240    1.9450 H       1  LIG1        0.0271
     66 H           4.4198   -0.8945    2.2639 H       1  LIG1        0.0309
     67 H           5.4430   -1.9355    1.2903 H       1  LIG1        0.0309
     68 H           6.3778   -3.0755    3.1574 H       1  LIG1        0.0605
     69 H           4.2318    1.0595    5.5254 H       1  LIG1        0.1516
     70 H           7.0935   -3.0685    5.4156 H       1  LIG1        0.0308
     71 H           5.7820   -2.6657    6.5314 H       1  LIG1        0.0308
     72 H           7.0324   -1.4704    6.1448 H       1  LIG1        0.0308
     73 H           4.3179   -2.0103   -0.6694 H       1  LIG1        0.0233
     74 H           3.1317   -3.0488   -1.4510 H       1  LIG1        0.0233
     75 H           4.2983   -3.7687   -0.4025 H       1  LIG1        0.0233
     76 H           0.1416   -1.7505   -2.4221 H       1  LIG1        0.0235
     77 H           1.0040   -2.9855   -1.5371 H       1  LIG1        0.0235
     78 H           1.8880   -1.6750   -2.3623 H       1  LIG1        0.0235
     79 H          -3.3862    0.7922   -3.8931 H       1  LIG1        0.0235
     80 H          -2.4328   -0.4201   -3.0724 H       1  LIG1        0.0235
     81 H          -1.6454    0.7728   -4.0786 H       1  LIG1        0.0235
@<TRIPOS>BOND
     1     1     2    1
     2     2     3    1
     3     3     4    1
     4     4     5    1
     5     5     6    1
     6     6     7    1
     7     6     8    1
     8     8     9    1
     9     2     8    1
    10     8    10    1
    11     6    11    1
    12    11    12    1
    13    12    13    2
    14    13    14    1
    15    14    15    1
    16    15    16    1
    17    16    17    1
    18    17    18    1
    19    18    19    1
    20    13    18    1
    21    18    20    1
    22    20    21    1
    23    21    22    1
    24    17    22    1
    25    26    27    1
    26    27    28    1
    27    28    29    2
    28    29    30    1
    29    30    31    1
    30    31    32    2
    31    29    33    1
    32    24    34    1
    33    17    35    1
    34     5    14    1
    35    14    36    1
    36     5    37    1
    37    22    24    1
    38    22    23    1
    39    24    26    1
    40    24    25    1
    41     1    38    1
    42     2    39    1
    43     3    40    1
    44     3    41    1
    45     4    42    1
    46     4    43    1
    47     9    44    1
    48     9    45    1
    49     9    46    1
    50    10    47    1
    51    10    48    1
    52    10    49    1
    53    11    50    1
    54    11    51    1
    55    12    52    1
    56    15    53    1
    57    15    54    1
    58    16    55    1
    59    16    56    1
    60    19    57    1
    61    19    58    1
    62    19    59    1
    63    20    60    1
    64    20    61    1
    65    21    62    1
    66    21    63    1
    67    26    64    1
    68    26    65    1
    69    27    66    1
    70    27    67    1
    71    28    68    1
    72    31    69    1
    73    33    70    1
    74    33    71    1
    75    33    72    1
    76    34    73    1
    77    34    74    1
    78    34    75    1
    79    35    76    1
    80    35    77    1
    81    35    78    1
    82    37    79    1
    83    37    80    1
    84    37    81    1
