@<TRIPOS>MOLECULE
NuBBE_155
 62 63 0 0 0
SMALL
GASTEIGER

@<TRIPOS>ATOM
      1 O          -4.4269   -0.4156   -3.7820 O.2     1  LIG1       -0.2450
      2 C          -3.8728   -1.2850   -3.1168 C.2     1  LIG1        0.3389
      3 O          -3.8696   -2.6121   -3.3759 O.3     1  LIG1       -0.4645
      4 C          -4.6210   -3.0190   -4.5155 C.3     1  LIG1        0.0820
      5 C          -3.0931   -1.0280   -1.8778 C.ar    1  LIG1        0.0597
      6 C          -2.4558   -2.0754   -1.1956 C.ar    1  LIG1       -0.0411
      7 C          -1.6989   -1.8342   -0.0435 C.ar    1  LIG1       -0.0046
      8 C          -1.0268   -3.0050    0.6407 C.3     1  LIG1       -0.0240
      9 C           0.3749   -3.2969    0.0857 C.3     1  LIG1       -0.0466
     10 C           1.0618   -4.5053    0.7587 C.3     1  LIG1       -0.0464
     11 C           2.4414   -4.7536    0.1400 C.3     1  LIG1       -0.0627
     12 C           1.2151   -4.3228    2.2700 C.3     1  LIG1       -0.0627
     13 C          -1.5797   -0.5148    0.4230 C.ar    1  LIG1        0.1276
     14 O          -0.7834   -0.3214    1.5210 O.3     1  LIG1       -0.4854
     15 C          -0.3515    1.0334    1.7868 C.3     1  LIG1        0.1082
     16 C           0.8171    1.3750    0.8166 C.3     1  LIG1       -0.0132
     17 C           1.4561    2.7638    0.9771 C.3     1  LIG1       -0.0492
     18 C           2.5663    2.9867   -0.0643 C.3     1  LIG1       -0.0506
     19 C           3.2319    4.3786    0.0016 C.3     1  LIG1       -0.0467
     20 C           4.3235    4.4956   -1.0672 C.3     1  LIG1       -0.0627
     21 C           2.2413    5.5315   -0.1756 C.3     1  LIG1       -0.0627
     22 C           0.1468    0.9966    3.2410 C.3     1  LIG1       -0.0249
     23 C          -1.5529    1.9860    1.6945 C.3     1  LIG1       -0.0091
     24 C          -2.1748    1.9450    0.3052 C.3     1  LIG1       -0.0206
     25 C          -2.2580    0.5368   -0.2150 C.ar    1  LIG1       -0.0045
     26 C          -2.9969    0.2757   -1.3798 C.ar    1  LIG1       -0.0411
     27 H          -4.6510   -4.1121   -4.5169 H       1  LIG1        0.0661
     28 H          -4.1270   -2.6811   -5.4303 H       1  LIG1        0.0661
     29 H          -5.6470   -2.6450   -4.4566 H       1  LIG1        0.0661
     30 H          -2.5413   -3.0961   -1.5597 H       1  LIG1        0.0629
     31 H          -1.6591   -3.8963    0.5279 H       1  LIG1        0.0314
     32 H          -0.9907   -2.8084    1.7164 H       1  LIG1        0.0314
     33 H           1.0054   -2.4057    0.1961 H       1  LIG1        0.0271
     34 H           0.3029   -3.4899   -0.9938 H       1  LIG1        0.0271
     35 H           0.4514   -5.4001    0.5805 H       1  LIG1        0.0296
     36 H           3.1020   -3.8908    0.2795 H       1  LIG1        0.0232
     37 H           2.3628   -4.9535   -0.9334 H       1  LIG1        0.0232
     38 H           2.9232   -5.6218    0.6042 H       1  LIG1        0.0232
     39 H           1.7768   -3.4116    2.5016 H       1  LIG1        0.0232
     40 H           1.7478   -5.1716    2.7120 H       1  LIG1        0.0232
     41 H           0.2439   -4.2634    2.7694 H       1  LIG1        0.0232
     42 H           0.4698    1.2778   -0.2195 H       1  LIG1        0.0304
     43 H           1.5904    0.6014    0.9160 H       1  LIG1        0.0304
     44 H           1.8830    2.8710    1.9797 H       1  LIG1        0.0267
     45 H           0.6870    3.5324    0.8585 H       1  LIG1        0.0267
     46 H           2.1599    2.8227   -1.0707 H       1  LIG1        0.0268
     47 H           3.3409    2.2224    0.0847 H       1  LIG1        0.0268
     48 H           3.7122    4.4886    0.9819 H       1  LIG1        0.0295
     49 H           3.9018    4.4184   -2.0754 H       1  LIG1        0.0232
     50 H           5.0794    3.7132   -0.9492 H       1  LIG1        0.0232
     51 H           4.8337    5.4629   -0.9917 H       1  LIG1        0.0232
     52 H           1.5467    5.3402   -1.0002 H       1  LIG1        0.0232
     53 H           2.7653    6.4700   -0.3917 H       1  LIG1        0.0232
     54 H           1.6595    5.6923    0.7371 H       1  LIG1        0.0232
     55 H           0.9892    0.3029    3.3466 H       1  LIG1        0.0268
     56 H          -0.6370    0.6211    3.9113 H       1  LIG1        0.0268
     57 H           0.4560    1.9819    3.6005 H       1  LIG1        0.0268
     58 H          -1.2791    3.0144    1.9547 H       1  LIG1        0.0307
     59 H          -2.3186    1.6724    2.4186 H       1  LIG1        0.0307
     60 H          -1.5794    2.5466   -0.3911 H       1  LIG1        0.0316
     61 H          -3.1775    2.3874    0.3502 H       1  LIG1        0.0316
     62 H          -3.4976    1.0917   -1.9003 H       1  LIG1        0.0629
@<TRIPOS>BOND
     1     1     2    2
     2     2     3    1
     3     3     4    1
     4     2     5    1
     5     5     6   ar
     6     6     7   ar
     7     7     8    1
     8     8     9    1
     9     9    10    1
    10    10    11    1
    11    10    12    1
    12     7    13   ar
    13    13    14    1
    14    14    15    1
    15    15    16    1
    16    16    17    1
    17    17    18    1
    18    18    19    1
    19    19    20    1
    20    19    21    1
    21    15    22    1
    22    15    23    1
    23    23    24    1
    24    13    25   ar
    25    24    25    1
    26    25    26   ar
    27     5    26   ar
    28     4    27    1
    29     4    28    1
    30     4    29    1
    31     6    30    1
    32     8    31    1
    33     8    32    1
    34     9    33    1
    35     9    34    1
    36    10    35    1
    37    11    36    1
    38    11    37    1
    39    11    38    1
    40    12    39    1
    41    12    40    1
    42    12    41    1
    43    16    42    1
    44    16    43    1
    45    17    44    1
    46    17    45    1
    47    18    46    1
    48    18    47    1
    49    19    48    1
    50    20    49    1
    51    20    50    1
    52    20    51    1
    53    21    52    1
    54    21    53    1
    55    21    54    1
    56    22    55    1
    57    22    56    1
    58    22    57    1
    59    23    58    1
    60    23    59    1
    61    24    60    1
    62    24    61    1
    63    26    62    1
