REMARK  Name = NuBBE_2023
REMARK  6 active torsions:
REMARK  status: ('A' for Active; 'I' for Inactive)
REMARK    1  A    between atoms: C_4  and  O_5
REMARK    2  A    between atoms: C_7  and  O_8
REMARK    3  A    between atoms: C_13  and  C_14
REMARK    4  A    between atoms: C_16  and  O_17
REMARK    5  A    between atoms: C_18  and  O_19
REMARK    6  A    between atoms: O_19  and  C_20
REMARK                            x       y       z     vdW  Elec       q    Type
REMARK                         _______ _______ _______ _____ _____    ______ ____
ROOT
ATOM      1  O   LIG A   1      -1.272  -1.401  -0.270  0.00  0.00    -0.286 OA
ATOM      2  C   LIG A   1      -0.045  -1.324  -0.206  0.00  0.00    +0.204 A 
ATOM      3  C   LIG A   1       0.744  -2.567  -0.176  0.00  0.00    +0.106 A 
ATOM      4  C   LIG A   1       0.135  -3.829  -0.203  0.00  0.00    +0.135 A 
ATOM      5  C   LIG A   1       0.908  -4.988  -0.178  0.00  0.00    +0.091 A 
ATOM      6  C   LIG A   1       2.295  -4.877  -0.129  0.00  0.00    +0.124 A 
ATOM      7  C   LIG A   1       2.913  -3.630  -0.099  0.00  0.00    +0.092 A 
ATOM      8  C   LIG A   1       2.131  -2.475  -0.120  0.00  0.00    +0.145 A 
ATOM      9  O   LIG A   1       2.791  -1.275  -0.079  0.00  0.00    -0.462 OA
ATOM     10  C   LIG A   1       2.038  -0.127  -0.087  0.00  0.00    +0.208 A 
ATOM     11  C   LIG A   1       0.698  -0.029  -0.156  0.00  0.00    +0.065 A 
ENDROOT
BRANCH  11  12
ATOM     12  C   LIG A   1       0.025   1.295  -0.162  0.00  0.00    -0.008 A 
ATOM     13  C   LIG A   1      -1.231   1.476   0.441  0.00  0.00    +0.058 A 
ATOM     14  C   LIG A   1      -1.880   2.720   0.419  0.00  0.00    +0.159 A 
ATOM     15  C   LIG A   1      -1.276   3.823  -0.186  0.00  0.00    +0.161 A 
ATOM     16  C   LIG A   1      -0.034   3.650  -0.800  0.00  0.00    +0.050 A 
ATOM     17  C   LIG A   1       0.608   2.406  -0.791  0.00  0.00    +0.012 A 
BRANCH  14  18
ATOM     18  O   LIG A   1      -3.123   2.815   0.981  0.00  0.00    -0.503 OA
ATOM     19  H   LIG A   1      -3.443   1.922   1.192  0.00  0.00    +0.292 HD
ENDBRANCH  14  18
BRANCH  15  20
ATOM     20  O   LIG A   1      -1.780   5.089  -0.308  0.00  0.00    -0.491 OA
ATOM     21  C   LIG A   1      -2.670   5.520   0.714  0.00  0.00    +0.277 C 
ENDBRANCH  15  20
ENDBRANCH  11  12
BRANCH   4  22
ATOM     22  O   LIG A   1      -1.223  -4.002  -0.252  0.00  0.00    -0.506 OA
ATOM     23  H   LIG A   1      -1.641  -3.112  -0.284  0.00  0.00    +0.292 HD
ENDBRANCH   4  22
BRANCH   6  24
ATOM     24  O   LIG A   1       3.094  -5.981  -0.105  0.00  0.00    -0.506 OA
ATOM     25  H   LIG A   1       2.534  -6.775  -0.132  0.00  0.00    +0.292 HD
ENDBRANCH   6  24
TORSDOF 5
