@<TRIPOS>MOLECULE
NuBBE_2260
 35 36 0 0 0
SMALL
GASTEIGER

@<TRIPOS>ATOM
      1 C          -2.4711   -2.3365   -0.0144 C.3     1  LIG1       -0.0391
      2 C          -0.9645   -2.3051   -0.0690 C.ar    1  LIG1       -0.0427
      3 C          -0.2320   -1.0892    0.0052 C.ar    1  LIG1       -0.0141
      4 C           1.1853   -1.1278   -0.0544 C.ar    1  LIG1       -0.0113
      5 C           1.8876    0.0937    0.0113 C.ar    1  LIG1       -0.0118
      6 C           1.2228    1.3163    0.1371 C.ar    1  LIG1        0.1233
      7 C          -0.1698    1.3923    0.2181 C.ar    1  LIG1        0.0254
      8 C          -0.8687    0.1724    0.1358 C.ar    1  LIG1       -0.0444
      9 C          -0.9121    2.7302    0.3273 C.3     1  LIG1        0.0887
     10 C          -1.0320    3.3637   -1.0653 C.3     1  LIG1       -0.0320
     11 C          -2.3071    2.6402    0.9636 C.3     1  LIG1       -0.0320
     12 O          -0.1969    3.6560    1.1582 O.3     1  LIG1       -0.3844
     13 O           1.9563    2.4743    0.1847 O.3     1  LIG1       -0.5064
     14 C           1.8486   -2.3786   -0.1810 C.ar    1  LIG1       -0.0426
     15 C           1.1011   -3.5604   -0.2501 C.ar    1  LIG1       -0.0580
     16 C          -0.2864   -3.5241   -0.1958 C.ar    1  LIG1       -0.0580
     17 C           3.3510   -2.4861   -0.2452 C.3     1  LIG1       -0.0391
     18 H          -2.8943   -1.7721   -0.8516 H       1  LIG1        0.0278
     19 H          -2.8269   -1.9183    0.9328 H       1  LIG1        0.0278
     20 H          -2.8570   -3.3594   -0.0837 H       1  LIG1        0.0278
     21 H           2.9723    0.0915   -0.0371 H       1  LIG1        0.0660
     22 H          -1.9544    0.1955    0.1682 H       1  LIG1        0.0628
     23 H          -1.5981    2.7261   -1.7532 H       1  LIG1        0.0260
     24 H          -0.0459    3.5482   -1.5073 H       1  LIG1        0.0260
     25 H          -1.5287    4.3394   -1.0090 H       1  LIG1        0.0260
     26 H          -3.0209    2.0947    0.3381 H       1  LIG1        0.0260
     27 H          -2.7196    3.6415    1.1384 H       1  LIG1        0.0260
     28 H          -2.2590    2.1521    1.9444 H       1  LIG1        0.0260
     29 H           0.7507    3.5175    0.9635 H       1  LIG1        0.2106
     30 H           2.8975    2.2525    0.0757 H       1  LIG1        0.2921
     31 H           1.5971   -4.5238   -0.3474 H       1  LIG1        0.0620
     32 H          -0.8384   -4.4599   -0.2523 H       1  LIG1        0.0620
     33 H           3.7343   -1.9477   -1.1179 H       1  LIG1        0.0278
     34 H           3.6784   -3.5276   -0.3350 H       1  LIG1        0.0278
     35 H           3.8009   -2.0816    0.6672 H       1  LIG1        0.0278
@<TRIPOS>BOND
     1     1     2    1
     2     2     3   ar
     3     3     4   ar
     4     4     5   ar
     5     5     6   ar
     6     6     7   ar
     7     7     8   ar
     8     3     8   ar
     9     7     9    1
    10     9    10    1
    11     9    11    1
    12     9    12    1
    13     6    13    1
    14     4    14   ar
    15    14    15   ar
    16    15    16   ar
    17     2    16   ar
    18    14    17    1
    19     1    18    1
    20     1    19    1
    21     1    20    1
    22     5    21    1
    23     8    22    1
    24    10    23    1
    25    10    24    1
    26    10    25    1
    27    11    26    1
    28    11    27    1
    29    11    28    1
    30    12    29    1
    31    13    30    1
    32    15    31    1
    33    16    32    1
    34    17    33    1
    35    17    34    1
    36    17    35    1
