REMARK  Name = NuBBE_58
REMARK  19 active torsions:
REMARK  status: ('A' for Active; 'I' for Inactive)
REMARK    1  A    between atoms: C_1  and  C_2
REMARK    2  A    between atoms: C_2  and  O_3
REMARK    3  A    between atoms: O_3  and  C_4
REMARK    4  A    between atoms: C_8  and  O_10
REMARK    5  A    between atoms: O_10  and  C_11
REMARK    6  A    between atoms: C_11  and  C_12
REMARK    7  A    between atoms: C_15  and  O_17
REMARK    8  A    between atoms: O_17  and  C_18
REMARK    9  A    between atoms: C_18  and  C_19
REMARK   10  A    between atoms: C_22  and  O_24
REMARK   11  A    between atoms: O_24  and  C_25
REMARK   12  A    between atoms: C_25  and  C_26
REMARK   13  A    between atoms: C_27  and  C_28
REMARK   14  A    between atoms: C_36  and  C_38
REMARK   15  A    between atoms: C_39  and  C_40
REMARK   16  A    between atoms: C_39  and  C_41
REMARK   17  A    between atoms: C_41  and  C_42
REMARK   18  A    between atoms: C_43  and  C_44
REMARK   19  A    between atoms: C_43  and  C_45
REMARK                            x       y       z     vdW  Elec       q    Type
REMARK                         _______ _______ _______ _____ _____    ______ ____
ROOT
ATOM      1  C   LIG A   1       1.145   0.168   3.796  0.00  0.00    +0.200 C 
ATOM      2  C   LIG A   1       1.610  -0.999   3.008  0.00  0.00    +0.023 C 
ATOM      3  C   LIG A   1       1.270  -1.033   1.714  0.00  0.00    +0.013 C 
ATOM      4  C   LIG A   1       2.305  -1.363   0.653  0.00  0.00    +0.343 C 
ATOM      5  O   LIG A   1       1.734  -0.834  -0.547  0.00  0.00    -0.297 OA
ATOM      6  C   LIG A   1       0.332  -0.966  -0.349  0.00  0.00    +0.328 C 
ATOM      7  C   LIG A   1       0.038  -0.331   1.079  0.00  0.00    +0.100 C 
ATOM      8  C   LIG A   1      -1.411  -0.774   1.552  0.00  0.00    +0.194 C 
ATOM      9  C   LIG A   1      -2.189   0.248   2.389  0.00  0.00    +0.049 C 
ATOM     10  C   LIG A   1      -2.076   1.769   2.091  0.00  0.00    -0.004 C 
ATOM     11  C   LIG A   1      -3.438   2.462   1.904  0.00  0.00    +0.008 C 
ATOM     12  C   LIG A   1      -0.856   2.269   1.207  0.00  0.00    -0.022 C 
ATOM     13  C   LIG A   1      -0.496   3.686   1.795  0.00  0.00    +0.012 C 
ATOM     14  C   LIG A   1       0.321   1.208   1.416  0.00  0.00    +0.019 C 
ATOM     15  C   LIG A   1       0.968   1.401   2.873  0.00  0.00    +0.054 C 
ENDROOT
BRANCH   1  16
ATOM     16  O   LIG A   1       2.036   0.387   4.931  0.00  0.00    -0.457 OA
BRANCH  16  18
ATOM     17  C   LIG A   1       4.060   0.870   6.070  0.00  0.00    +0.136 C 
ATOM     18  C   LIG A   1       3.304   0.854   4.769  0.00  0.00    +0.304 C 
ATOM     19  O   LIG A   1       3.805   1.240   3.725  0.00  0.00    -0.251 OA
ENDBRANCH  16  18
ENDBRANCH   1  16
BRANCH   4  20
ATOM     20  O   LIG A   1       3.539  -0.672   0.849  0.00  0.00    -0.431 OA
BRANCH  20  21
ATOM     21  C   LIG A   1       4.598  -1.496   1.043  0.00  0.00    +0.306 C 
ATOM     22  C   LIG A   1       5.872  -0.870   0.557  0.00  0.00    +0.136 C 
ATOM     23  O   LIG A   1       4.534  -2.627   1.490  0.00  0.00    -0.251 OA
ENDBRANCH  20  21
ENDBRANCH   4  20
BRANCH   6  24
ATOM     24  O   LIG A   1       0.019  -2.406  -0.307  0.00  0.00    -0.434 OA
BRANCH  24  25
ATOM     25  C   LIG A   1       0.110  -3.152  -1.433  0.00  0.00    +0.306 C 
ATOM     26  C   LIG A   1      -0.144  -4.607  -1.144  0.00  0.00    +0.136 C 
ATOM     27  O   LIG A   1       0.378  -2.712  -2.553  0.00  0.00    -0.251 OA
ENDBRANCH  24  25
ENDBRANCH   6  24
BRANCH   8  28
ATOM     28  O   LIG A   1      -2.210  -1.136   0.401  0.00  0.00    -0.457 OA
BRANCH  28  29
ATOM     29  C   LIG A   1      -2.986  -2.284   0.453  0.00  0.00    +0.332 C 
ATOM     30  O   LIG A   1      -3.497  -2.791   1.408  0.00  0.00    -0.246 OA
BRANCH  29  31
ATOM     31  C   LIG A   1      -2.983  -2.920  -0.894  0.00  0.00    +0.092 C 
ATOM     32  C   LIG A   1      -2.694  -2.209  -1.995  0.00  0.00    +0.015 C 
BRANCH  32  33
ATOM     33  C   LIG A   1      -2.672  -2.743  -3.357  0.00  0.00    -0.025 A 
ATOM     34  C   LIG A   1      -1.859  -2.157  -4.340  0.00  0.00    +0.008 A 
ATOM     35  C   LIG A   1      -1.823  -2.686  -5.629  0.00  0.00    +0.001 A 
ATOM     36  C   LIG A   1      -2.648  -3.758  -5.960  0.00  0.00    +0.000 A 
ATOM     37  C   LIG A   1      -3.500  -4.305  -5.004  0.00  0.00    +0.001 A 
ATOM     38  C   LIG A   1      -3.497  -3.812  -3.705  0.00  0.00    +0.008 A 
ENDBRANCH  32  33
ENDBRANCH  29  31
ENDBRANCH  28  29
ENDBRANCH   8  28
BRANCH  12  39
ATOM     39  C   LIG A   1      -1.118   2.594  -0.345  0.00  0.00    +0.034 C 
BRANCH  39  40
ATOM     40  C   LIG A   1       0.085   3.000  -1.236  0.00  0.00    -0.023 C 
ATOM     41  C   LIG A   1       0.069   3.474  -2.508  0.00  0.00    -0.055 C 
ATOM     42  C   LIG A   1      -1.135   3.967  -3.270  0.00  0.00    +0.043 C 
BRANCH  41  43
ATOM     43  C   LIG A   1       1.285   3.523  -3.328  0.00  0.00    -0.005 C 
ATOM     44  C   LIG A   1       1.661   4.621  -3.999  0.00  0.00    +0.008 C 
ENDBRANCH  41  43
ENDBRANCH  39  40
ENDBRANCH  12  39
TORSDOF 13
