@<TRIPOS>MOLECULE
NuBBE_2371
 54 56 0 0 0
SMALL
GASTEIGER

@<TRIPOS>ATOM
      1 C           0.0416    0.4350    3.8152 C.ar    1  LIG1       -0.0160
      2 C          -0.2738    1.6059    4.5163 C.ar    1  LIG1        0.1615
      3 C          -0.8884    2.6744    3.8318 C.ar    1  LIG1        0.1617
      4 C          -1.1159    2.5281    2.4506 C.ar    1  LIG1       -0.0131
      5 C          -0.8755    1.3288    1.7686 C.ar    1  LIG1       -0.0429
      6 C          -0.2725    0.2889    2.4719 C.ar    1  LIG1       -0.0549
      7 C          -1.2483    1.2207    0.3016 C.3     1  LIG1       -0.0143
      8 C          -1.6061   -0.2056   -0.1473 C.3     1  LIG1        0.0666
      9 H          -0.8234   -0.8602    0.1614 H       1  LIG1        0.0420
     10 C          -2.8432   -0.7601    0.4802 C.2     1  LIG1        0.3109
     11 O          -2.9609   -1.0819    1.6676 O.2     1  LIG1       -0.2505
     12 O          -3.8070   -0.9632   -0.4422 O.3     1  LIG1       -0.4641
     13 C          -3.3733   -0.4488   -1.7012 C.3     1  LIG1        0.0963
     14 C          -1.8546   -0.3770   -1.6416 C.3     1  LIG1        0.0105
     15 H          -1.4834    0.4616   -2.2454 H       1  LIG1        0.0345
     16 C          -1.2508   -1.6930   -2.2032 C.3     1  LIG1       -0.0209
     17 C           0.2615   -1.7557   -2.2713 C.ar    1  LIG1       -0.0433
     18 C           0.8919   -1.8577   -3.5186 C.ar    1  LIG1       -0.0131
     19 C           2.2887   -1.9410   -3.6455 C.ar    1  LIG1        0.1617
     20 C           3.0729   -1.8889   -2.4764 C.ar    1  LIG1        0.1615
     21 C           2.4536   -1.7863   -1.2335 C.ar    1  LIG1       -0.0160
     22 C           1.0701   -1.7803   -1.1349 C.ar    1  LIG1       -0.0549
     23 O           4.4386   -1.8775   -2.3732 O.3     1  LIG1       -0.4915
     24 C           5.1269   -2.7708   -3.2317 C.3     1  LIG1        0.0790
     25 O           2.9146   -2.0598   -4.8572 O.3     1  LIG1       -0.4914
     26 C           2.1339   -2.0895   -6.0496 C.3     1  LIG1        0.0790
     27 O          -1.2085    3.8453    4.4773 O.3     1  LIG1       -0.4914
     28 C          -2.2429    4.6646    3.9105 C.3     1  LIG1        0.0790
     29 O           0.0906    1.4660    5.8263 O.3     1  LIG1       -0.4915
     30 C          -0.1279    2.5315    6.7226 C.3     1  LIG1        0.0790
     31 H           0.5230   -0.3940    4.3315 H       1  LIG1        0.0655
     32 H          -1.4794    3.3551    1.8556 H       1  LIG1        0.0658
     33 H          -0.0542   -0.6702    2.0180 H       1  LIG1        0.0621
     34 H          -0.3812    1.5800   -0.2692 H       1  LIG1        0.0321
     35 H          -2.0825    1.9004    0.0862 H       1  LIG1        0.0321
     36 H          -3.8293    0.5358   -1.8328 H       1  LIG1        0.0700
     37 H          -3.7396   -1.1110   -2.4919 H       1  LIG1        0.0700
     38 H          -1.6422   -1.8177   -3.2242 H       1  LIG1        0.0317
     39 H          -1.6115   -2.5659   -1.6465 H       1  LIG1        0.0317
     40 H           0.2505   -1.8905   -4.3909 H       1  LIG1        0.0658
     41 H           3.0472   -1.7452   -0.3226 H       1  LIG1        0.0655
     42 H           0.6761   -1.8243   -0.1302 H       1  LIG1        0.0621
     43 H           4.7518   -3.7949   -3.1309 H       1  LIG1        0.0660
     44 H           6.1805   -2.7675   -2.9344 H       1  LIG1        0.0660
     45 H           5.0938   -2.4245   -4.2639 H       1  LIG1        0.0660
     46 H           2.7005   -2.6367   -6.8085 H       1  LIG1        0.0660
     47 H           1.9675   -1.0703   -6.4134 H       1  LIG1        0.0660
     48 H           1.1841   -2.6230   -5.9549 H       1  LIG1        0.0660
     49 H          -2.1617    5.6667    4.3434 H       1  LIG1        0.0660
     50 H          -3.2327    4.2640    4.1558 H       1  LIG1        0.0660
     51 H          -2.1710    4.8235    2.8313 H       1  LIG1        0.0660
     52 H          -1.1580    2.8872    6.6847 H       1  LIG1        0.0660
     53 H           0.6009    3.3257    6.5445 H       1  LIG1        0.0660
     54 H           0.0389    2.1438    7.7342 H       1  LIG1        0.0660
@<TRIPOS>BOND
     1     1     2   ar
     2     2     3   ar
     3     3     4   ar
     4     4     5   ar
     5     5     6   ar
     6     1     6   ar
     7     5     7    1
     8     7     8    1
     9     8     9    1
    10     8    10    1
    11    10    11    2
    12    10    12    1
    13    12    13    1
    14    13    14    1
    15    14    15    1
    16     8    14    1
    17    14    16    1
    18    16    17    1
    19    17    18   ar
    20    18    19   ar
    21    19    20   ar
    22    20    21   ar
    23    21    22   ar
    24    17    22   ar
    25    20    23    1
    26    23    24    1
    27    19    25    1
    28    25    26    1
    29     3    27    1
    30    27    28    1
    31     2    29    1
    32    29    30    1
    33     1    31    1
    34     4    32    1
    35     6    33    1
    36     7    34    1
    37     7    35    1
    38    13    36    1
    39    13    37    1
    40    16    38    1
    41    16    39    1
    42    18    40    1
    43    21    41    1
    44    22    42    1
    45    24    43    1
    46    24    44    1
    47    24    45    1
    48    26    46    1
    49    26    47    1
    50    26    48    1
    51    28    49    1
    52    28    50    1
    53    28    51    1
    54    30    52    1
    55    30    53    1
    56    30    54    1
