REMARK  Name = NuBBE_1031
REMARK  11 active torsions:
REMARK  status: ('A' for Active; 'I' for Inactive)
REMARK    1  A    between atoms: O_1  and  C_2
REMARK    2  A    between atoms: C_4  and  C_18
REMARK    3  A    between atoms: C_7  and  C_11
REMARK    4  A    between atoms: C_7  and  O_13
REMARK    5  A    between atoms: C_8  and  O_10
REMARK    6  A    between atoms: C_11  and  O_12
REMARK    7  A    between atoms: O_13  and  C_14
REMARK    8  A    between atoms: C_14  and  C_15
REMARK    9  A    between atoms: C_15  and  C_16
REMARK   10  A    between atoms: C_16  and  C_17
REMARK   11  A    between atoms: C_18  and  O_19
REMARK                            x       y       z     vdW  Elec       q    Type
REMARK                         _______ _______ _______ _____ _____    ______ ____
ROOT
ATOM      1  C   LIG A   1      -2.001   1.077  -1.222  0.00  0.00    +0.179 C 
ATOM      2  C   LIG A   1      -1.363   2.222  -0.444  0.00  0.00    +0.178 C 
ATOM      3  O   LIG A   1      -0.395   1.633   0.451  0.00  0.00    -0.336 OA
ATOM      4  C   LIG A   1      -0.611   0.208   0.522  0.00  0.00    +0.223 C 
ATOM      5  C   LIG A   1      -1.930  -0.090  -0.247  0.00  0.00    +0.207 C 
ENDROOT
BRANCH   1   6
ATOM      6  O   LIG A   1      -1.246   0.783  -2.400  0.00  0.00    -0.386 OA
ATOM      7  H   LIG A   1      -0.327   0.598  -2.125  0.00  0.00    +0.210 HD
ENDBRANCH   1   6
BRANCH   5   8
ATOM      8  O   LIG A   1      -3.102  -0.097   0.580  0.00  0.00    -0.384 OA
ATOM      9  H   LIG A   1      -3.821  -0.481   0.041  0.00  0.00    +0.210 HD
ENDBRANCH   5   8
BRANCH   4  10
ATOM     10  C   LIG A   1      -0.678  -0.220   2.011  0.00  0.00    +0.223 C 
BRANCH  10  11
ATOM     11  O   LIG A   1      -1.732   0.410   2.744  0.00  0.00    -0.390 OA
ATOM     12  H   LIG A   1      -2.542   0.303   2.201  0.00  0.00    +0.210 HD
ENDBRANCH  10  11
ENDBRANCH   4  10
BRANCH   4  13
ATOM     13  O   LIG A   1       0.436  -0.467  -0.208  0.00  0.00    -0.345 OA
BRANCH  13  14
ATOM     14  C   LIG A   1       1.755  -0.244   0.290  0.00  0.00    +0.163 C 
BRANCH  14  15
ATOM     15  C   LIG A   1       2.764  -1.015  -0.562  0.00  0.00    +0.028 C 
BRANCH  15  16
ATOM     16  C   LIG A   1       2.543  -2.529  -0.500  0.00  0.00    -0.001 C 
ATOM     17  C   LIG A   1       3.596  -3.280  -1.301  0.00  0.00    +0.004 C 
ENDBRANCH  15  16
ENDBRANCH  14  15
ENDBRANCH  13  14
ENDBRANCH   4  13
BRANCH   2  18
ATOM     18  C   LIG A   1      -2.370   3.018   0.396  0.00  0.00    +0.190 C 
BRANCH  18  19
ATOM     19  O   LIG A   1      -1.699   4.065   1.098  0.00  0.00    -0.392 OA
ATOM     20  H   LIG A   1      -1.027   3.622   1.651  0.00  0.00    +0.209 HD
ENDBRANCH  18  19
ENDBRANCH   2  18
TORSDOF 10
