@<TRIPOS>MOLECULE
NuBBE_17
 51 51 0 0 0
SMALL
GASTEIGER

@<TRIPOS>ATOM
      1 O           1.7978   -0.3684   -2.7183 O.3     1  LIG1       -0.5050
      2 C           2.0075    0.4366   -1.6586 C.ar    1  LIG1        0.1378
      3 C           2.5371    1.6723   -1.5621 C.ar    1  LIG1        0.0797
      4 C           3.3187    2.1042   -2.7818 C.3     1  LIG1       -0.0188
      5 N           2.3872    2.5494   -0.5205 N.ar    1  LIG1       -0.2532
      6 C           1.9075    2.0575    0.6355 C.ar    1  LIG1        0.0418
      7 C           1.3651    2.8567    1.7996 C.3     1  LIG1       -0.0104
      8 C           0.0983    3.7275    1.6536 C.3     1  LIG1       -0.0476
      9 C          -1.3275    3.1030    1.7570 C.3     1  LIG1       -0.0527
     10 C          -1.8796    2.2916    0.5833 C.3     1  LIG1       -0.0527
     11 C          -1.2119    0.9718    0.2923 C.3     1  LIG1       -0.0464
     12 C          -0.9873   -0.1119    1.3911 C.3     1  LIG1        0.0058
     13 C          -0.0106   -1.4531    1.0715 C.2     1  LIG1        0.1334
     14 C           0.1164   -2.0204   -0.4250 C.3     1  LIG1        0.0058
     15 C           0.4005   -3.4394   -0.7058 C.3     1  LIG1       -0.0463
     16 C          -0.7069   -4.2271   -0.1106 C.3     1  LIG1       -0.0506
     17 C          -2.0951   -3.8423   -0.6752 C.3     1  LIG1       -0.0297
     18 C          -2.7416   -2.4907   -0.3218 C.3     1  LIG1        0.0442
     19 O          -2.8007   -2.3218    1.0793 O.3     1  LIG1       -0.3950
     20 O           0.6385   -1.9542    1.9671 O.2     1  LIG1       -0.2974
     21 C           1.7157    0.7280    0.7418 C.ar    1  LIG1       -0.0369
     22 C           1.5082    0.1751   -0.5082 C.ar    1  LIG1       -0.0167
     23 H           2.3193   -0.1698   -3.4954 H       1  LIG1        0.2922
     24 H           4.1348    1.3840   -2.9271 H       1  LIG1        0.0294
     25 H           3.7157    3.1012   -2.5775 H       1  LIG1        0.0294
     26 H           2.6635    2.1065   -3.6612 H       1  LIG1        0.0294
     27 H           2.2148    3.4859    2.0891 H       1  LIG1        0.0328
     28 H           1.1858    2.1977    2.6589 H       1  LIG1        0.0328
     29 H           0.1718    4.3588    0.7659 H       1  LIG1        0.0269
     30 H           0.1471    4.4088    2.5191 H       1  LIG1        0.0269
     31 H          -2.0188    3.9573    1.8438 H       1  LIG1        0.0265
     32 H          -1.4408    2.5411    2.6889 H       1  LIG1        0.0265
     33 H          -1.7505    2.9138   -0.3189 H       1  LIG1        0.0265
     34 H          -2.9485    2.0995    0.6833 H       1  LIG1        0.0265
     35 H          -0.3176    1.4168   -0.1052 H       1  LIG1        0.0269
     36 H          -1.6534    0.4974   -0.5855 H       1  LIG1        0.0269
     37 H          -1.9606   -0.4301    1.7573 H       1  LIG1        0.0342
     38 H          -0.5795    0.3499    2.3088 H       1  LIG1        0.0342
     39 H           1.0545   -1.7463   -0.8813 H       1  LIG1        0.0342
     40 H          -0.6086   -1.5971   -1.1073 H       1  LIG1        0.0342
     41 H           1.3996   -3.6735   -0.3074 H       1  LIG1        0.0269
     42 H           0.4711   -3.5504   -1.8027 H       1  LIG1        0.0269
     43 H          -0.6658   -4.0952    0.9741 H       1  LIG1        0.0266
     44 H          -0.4723   -5.2711   -0.3254 H       1  LIG1        0.0266
     45 H          -2.7686   -4.5963   -0.2681 H       1  LIG1        0.0287
     46 H          -2.0732   -3.9383   -1.7660 H       1  LIG1        0.0287
     47 H          -3.7605   -2.4263   -0.7004 H       1  LIG1        0.0557
     48 H          -2.3060   -1.6058   -0.7849 H       1  LIG1        0.0557
     49 H          -1.9231   -2.4828    1.4655 H       1  LIG1        0.2094
     50 H           1.2753    0.3893    1.6259 H       1  LIG1        0.0637
     51 H           0.4575   -0.0694   -0.7506 H       1  LIG1        0.0655
@<TRIPOS>BOND
     1     1     2    1
     2     2     3   ar
     3     3     4    1
     4     3     5   ar
     5     5     6   ar
     6     6     7    1
     7     7     8    1
     8     8     9    1
     9     9    10    1
    10    10    11    1
    11    11    12    1
    12    12    13    1
    13    13    14    1
    14    14    15    1
    15    15    16    1
    16    16    17    1
    17    17    18    1
    18    18    19    1
    19    13    20    2
    20     6    21   ar
    21    21    22   ar
    22     2    22   ar
    23     1    23    1
    24     4    24    1
    25     4    25    1
    26     4    26    1
    27     7    27    1
    28     7    28    1
    29     8    29    1
    30     8    30    1
    31     9    31    1
    32     9    32    1
    33    10    33    1
    34    10    34    1
    35    11    35    1
    36    11    36    1
    37    12    37    1
    38    12    38    1
    39    14    39    1
    40    14    40    1
    41    15    41    1
    42    15    42    1
    43    16    43    1
    44    16    44    1
    45    17    45    1
    46    17    46    1
    47    18    47    1
    48    18    48    1
    49    19    49    1
    50    21    50    1
    51    22    51    1
