@<TRIPOS>MOLECULE
NuBBE_2088
 46 48 0 0 0
SMALL
GASTEIGER

@<TRIPOS>ATOM
      1 C          -1.3447   -2.1253   -3.1132 C.3     1  LIG1        0.0788
      2 O          -1.7492   -0.9308   -2.4498 O.3     1  LIG1       -0.4944
      3 C          -1.0004   -0.5530   -1.3615 C.ar    1  LIG1        0.1314
      4 C          -0.3955   -1.4982   -0.5286 C.ar    1  LIG1       -0.0076
      5 C           0.2940   -1.1033    0.6225 C.ar    1  LIG1        0.0401
      6 C           0.9106   -2.1463    1.4564 C.2     1  LIG1        0.1949
      7 O           0.8347   -3.3222    1.1267 O.2     1  LIG1       -0.2866
      8 C           1.6218   -1.7635    2.6864 C.ar    1  LIG1        0.0368
      9 C           2.1981   -2.7851    3.4592 C.ar    1  LIG1       -0.0471
     10 C           2.8845   -2.4833    4.6359 C.ar    1  LIG1       -0.0463
     11 C           3.4972   -3.5727    5.4661 C.3     1  LIG1       -0.0396
     12 C           2.9794   -1.1465    5.0339 C.ar    1  LIG1       -0.0165
     13 C           2.4033   -0.1289    4.2595 C.ar    1  LIG1        0.1286
     14 O           2.5240    1.1601    4.6950 O.3     1  LIG1       -0.5060
     15 C           1.7188   -0.4257    3.0710 C.ar    1  LIG1        0.0745
     16 C           1.1005    0.6241    2.2106 C.2     1  LIG1        0.2015
     17 O           1.1593    1.8189    2.4781 O.2     1  LIG1       -0.2864
     18 C           0.3809    0.2369    0.9716 C.ar    1  LIG1        0.0754
     19 C          -0.2363    1.1965    0.1419 C.ar    1  LIG1        0.1389
     20 O          -0.1882    2.5383    0.4571 O.3     1  LIG1       -0.5053
     21 C          -0.9277    0.8210   -1.0371 C.ar    1  LIG1        0.0585
     22 C          -1.6315    1.8643   -1.8239 C.2     1  LIG1       -0.0512
     23 C          -1.7413    1.9018   -3.1635 C.2     1  LIG1       -0.0806
     24 C          -2.5849    2.9111   -3.9053 C.3     1  LIG1       -0.0283
     25 C          -1.7408    3.7480   -4.8643 C.3     1  LIG1       -0.0592
     26 C          -3.6955    2.1864   -4.6701 C.3     1  LIG1       -0.0592
     27 H          -1.9204   -2.2040   -4.0400 H       1  LIG1        0.0660
     28 H          -1.5743   -3.0119   -2.5144 H       1  LIG1        0.0660
     29 H          -0.2819   -2.0919   -3.3775 H       1  LIG1        0.0660
     30 H          -0.4792   -2.5609   -0.7380 H       1  LIG1        0.0662
     31 H           2.1083   -3.8220    3.1351 H       1  LIG1        0.0627
     32 H           3.3923   -4.5511    4.9849 H       1  LIG1        0.0278
     33 H           3.0059   -3.6234    6.4427 H       1  LIG1        0.0278
     34 H           4.5664   -3.3855    5.6070 H       1  LIG1        0.0278
     35 H           3.5078   -0.9070    5.9542 H       1  LIG1        0.0657
     36 H           3.0216    1.1941    5.5275 H       1  LIG1        0.2922
     37 H           0.3349    2.6485    1.2847 H       1  LIG1        0.2922
     38 H          -2.1026    2.6427   -1.2262 H       1  LIG1        0.0623
     39 H          -1.2532    1.1435   -3.7717 H       1  LIG1        0.0575
     40 H          -3.0610    3.5936   -3.1900 H       1  LIG1        0.0338
     41 H          -1.2447    3.1252   -5.6171 H       1  LIG1        0.0235
     42 H          -0.9694    4.3067   -4.3238 H       1  LIG1        0.0235
     43 H          -2.3686    4.4743   -5.3931 H       1  LIG1        0.0235
     44 H          -3.2870    1.5173   -5.4365 H       1  LIG1        0.0235
     45 H          -4.3546    2.9048   -5.1693 H       1  LIG1        0.0235
     46 H          -4.3116    1.5841   -3.9930 H       1  LIG1        0.0235
@<TRIPOS>BOND
     1     1     2    1
     2     2     3    1
     3     3     4   ar
     4     4     5   ar
     5     5     6    1
     6     6     7    2
     7     6     8    1
     8     8     9   ar
     9     9    10   ar
    10    10    11    1
    11    10    12   ar
    12    12    13   ar
    13    13    14    1
    14    13    15   ar
    15     8    15   ar
    16    15    16    1
    17    16    17    2
    18    16    18    1
    19     5    18   ar
    20    18    19   ar
    21    19    20    1
    22    19    21   ar
    23     3    21   ar
    24    21    22    1
    25    22    23    2
    26    23    24    1
    27    24    25    1
    28    24    26    1
    29     1    27    1
    30     1    28    1
    31     1    29    1
    32     4    30    1
    33     9    31    1
    34    11    32    1
    35    11    33    1
    36    11    34    1
    37    12    35    1
    38    14    36    1
    39    20    37    1
    40    22    38    1
    41    23    39    1
    42    24    40    1
    43    25    41    1
    44    25    42    1
    45    25    43    1
    46    26    44    1
    47    26    45    1
    48    26    46    1
