REMARK  Name = NuBBE_1933
REMARK  3 active torsions:
REMARK  status: ('A' for Active; 'I' for Inactive)
REMARK    1  A    between atoms: C_1  and  C_2
REMARK    2  A    between atoms: C_2  and  C_3
REMARK    3  A    between atoms: C_15  and  C_17
REMARK                            x       y       z     vdW  Elec       q    Type
REMARK                         _______ _______ _______ _____ _____    ______ ____
ROOT
ATOM      1  C   LIG A   1      -2.600   0.657  -0.408  0.00  0.00    +0.011 C 
ATOM      2  C   LIG A   1      -1.094   1.003  -0.112  0.00  0.00    -0.028 C 
ATOM      3  C   LIG A   1      -1.261   2.407   0.535  0.00  0.00    +0.011 C 
ATOM      4  C   LIG A   1      -0.442   0.102   1.000  0.00  0.00    +0.024 C 
ATOM      5  C   LIG A   1       1.136   0.124   0.978  0.00  0.00    +0.022 C 
ATOM      6  C   LIG A   1       1.792   1.329   0.197  0.00  0.00    -0.073 C 
ATOM      7  C   LIG A   1       1.804   2.659   0.439  0.00  0.00    +0.008 C 
ATOM      8  C   LIG A   1       2.284   1.017  -1.171  0.00  0.00    +0.030 C 
ATOM      9  C   LIG A   1       1.057   0.972  -2.064  0.00  0.00    +0.005 C 
ATOM     10  C   LIG A   1      -0.402   0.769  -1.534  0.00  0.00    +0.007 C 
ATOM     11  C   LIG A   1       1.736  -1.261   0.552  0.00  0.00    +0.013 C 
ATOM     12  C   LIG A   1       0.925  -2.557   0.618  0.00  0.00    +0.031 C 
ATOM     13  C   LIG A   1      -0.532  -2.443   0.815  0.00  0.00    -0.076 C 
ATOM     14  C   LIG A   1      -1.124  -1.237   1.048  0.00  0.00    -0.023 C 
ATOM     15  C   LIG A   1      -1.372  -3.674   0.696  0.00  0.00    +0.038 C 
ENDROOT
TORSDOF 0
