@<TRIPOS>MOLECULE
NuBBE_2272
 38 39 0 0 0
SMALL
GASTEIGER

@<TRIPOS>ATOM
      1 C           2.5046   -0.8904   -0.1735 C.ar    1  LIG1        0.0000
      2 C           1.2599   -0.2045   -0.1097 C.ar    1  LIG1        0.0000
      3 C           1.2460    1.2190   -0.0387 C.ar    1  LIG1        0.0000
      4 C           2.4782    1.9274    0.0296 C.ar    1  LIG1        0.0000
      5 C           3.6841    1.2208   -0.0177 C.ar    1  LIG1        0.0000
      6 C           3.6968   -0.1629   -0.1264 C.ar    1  LIG1        0.0000
      7 C           2.5621    3.4320    0.1361 C.3     1  LIG1        0.0000
      8 C          -0.0700    1.9775   -0.0478 C.3     1  LIG1        0.0000
      9 C          -1.2642    1.1388   -0.5136 C.3     1  LIG1        0.0000
     10 C          -1.3069   -0.1888    0.2402 C.3     1  LIG1        0.0000
     11 H          -1.2631    0.0617    1.3262 H       1  LIG1        0.0000
     12 C          -0.0364   -0.9983   -0.1168 C.3     1  LIG1        0.0000
     13 C          -2.6449   -0.9809    0.0019 C.3     1  LIG1        0.0000
     14 C          -2.6913   -2.3240    0.7628 C.3     1  LIG1        0.0000
     15 C          -3.8637   -0.1289    0.4040 C.3     1  LIG1        0.0000
     16 O          -2.7449   -1.2522   -1.3695 O.3     1  LIG1        0.0000
     17 AC         -4.8510   -2.4872   -1.6705 Ac      1  LIG1        0.0000
     18 C           2.6132   -2.3943   -0.2821 C.3     1  LIG1        0.0000
     19 H           4.6270    1.7531    0.0226 H       1  LIG1        0.0000
     20 H           4.6487   -0.6790   -0.1683 H       1  LIG1        0.0000
     21 H           1.5854    3.9456    0.1964 H       1  LIG1        0.0000
     22 H           3.1043    3.8330   -0.7466 H       1  LIG1        0.0000
     23 H           3.1265    3.7029    1.0531 H       1  LIG1        0.0000
     24 H          -0.0278    2.8210   -0.7694 H       1  LIG1        0.0000
     25 H          -0.2383    2.3844    0.9732 H       1  LIG1        0.0000
     26 H          -1.1679    0.9380   -1.6028 H       1  LIG1        0.0000
     27 H          -2.1861    1.7370   -0.3460 H       1  LIG1        0.0000
     28 H          -0.1091   -1.4527   -1.1242 H       1  LIG1        0.0000
     29 H           0.0328   -1.7975    0.6495 H       1  LIG1        0.0000
     30 H          -2.6410   -2.1823    1.8605 H       1  LIG1        0.0000
     31 H          -1.8645   -2.9926    0.4477 H       1  LIG1        0.0000
     32 H          -3.6401   -2.8579    0.5484 H       1  LIG1        0.0000
     33 H          -3.8726    0.0800    1.4942 H       1  LIG1        0.0000
     34 H          -4.8081   -0.6628    0.1681 H       1  LIG1        0.0000
     35 H          -3.8642    0.8347   -0.1485 H       1  LIG1        0.0000
     36 H           1.6457   -2.9266   -0.3359 H       1  LIG1        0.0000
     37 H           3.1657   -2.7881    0.5970 H       1  LIG1        0.0000
     38 H           3.1751   -2.6551   -1.2034 H       1  LIG1        0.0000
@<TRIPOS>BOND
     1     1     2   ar
     2     2     3   ar
     3     3     4   ar
     4     4     5   ar
     5     5     6   ar
     6     1     6   ar
     7     4     7    1
     8     3     8    1
     9     8     9    1
    10     9    10    1
    11    10    11    1
    12    10    12    1
    13     2    12    1
    14    10    13    1
    15    13    14    1
    16    13    15    1
    17    13    16    1
    18    16    17    1
    19     1    18    1
    20     5    19    1
    21     6    20    1
    22     7    21    1
    23     7    22    1
    24     7    23    1
    25     8    24    1
    26     8    25    1
    27     9    26    1
    28     9    27    1
    29    12    28    1
    30    12    29    1
    31    14    30    1
    32    14    31    1
    33    14    32    1
    34    15    33    1
    35    15    34    1
    36    15    35    1
    37    18    36    1
    38    18    37    1
    39    18    38    1
