@<TRIPOS>MOLECULE
NuBBE_2041
 54 56 0 0 0
SMALL
GASTEIGER

@<TRIPOS>ATOM
      1 C          -3.3541    0.2352    1.1755 C.3     1  LIG1       -0.0185
      2 C          -4.0874    1.0518    2.2279 C.2     1  LIG1       -0.0899
      3 C          -5.3950    1.3502    2.2588 C.2     1  LIG1       -0.1026
      4 C          -2.1710    0.9638    0.4447 C.3     1  LIG1        0.0595
      5 C          -1.1027    1.3933    1.4108 C.2     1  LIG1        0.1130
      6 C          -0.8622    2.6516    1.7673 C.2     1  LIG1        0.0271
      7 C          -1.6494    3.7621    1.1608 C.2     1  LIG1        0.2231
      8 O          -1.5586    4.8938    1.6176 O.2     1  LIG1       -0.2839
      9 C          -2.4908    3.4238   -0.0500 C.2     1  LIG1        0.1637
     10 C          -2.7045    2.1160   -0.3545 C.2     1  LIG1       -0.0243
     11 O          -2.9925    4.4869   -0.7792 O.2     1  LIG1       -0.4916
     12 C          -4.1815    4.2401   -1.5245 C.3     1  LIG1        0.0790
     13 O          -0.2044    0.3869    1.7208 O.2     1  LIG1       -0.4872
     14 C          -0.3359   -0.5749    0.6515 C.3     1  LIG1        0.1287
     15 H          -0.8101   -1.4614    1.0926 H       1  LIG1        0.0787
     16 C          -1.2645    0.0498   -0.4077 C.3     1  LIG1        0.0138
     17 H          -0.6797    0.6861   -1.0920 H       1  LIG1        0.0350
     18 C          -1.9297   -1.0128   -1.2738 C.3     1  LIG1       -0.0575
     19 C           1.0412   -0.9449    0.1431 C.ar    1  LIG1        0.0001
     20 C           1.4650   -2.2779    0.1919 C.ar    1  LIG1       -0.0094
     21 C           2.7421   -2.6533   -0.2461 C.ar    1  LIG1        0.1655
     22 O           3.1203   -3.9695   -0.2960 O.3     1  LIG1       -0.4913
     23 C           2.6109   -4.8359    0.7093 C.3     1  LIG1        0.0790
     24 C           3.6264   -1.6848   -0.7665 C.ar    1  LIG1        0.2035
     25 C           3.1942   -0.3446   -0.8582 C.ar    1  LIG1        0.1655
     26 C           1.9186    0.0099   -0.3856 C.ar    1  LIG1       -0.0094
     27 O           3.8693    0.7382   -1.3681 O.3     1  LIG1       -0.4913
     28 C           5.1486    0.5273   -1.9462 C.3     1  LIG1        0.0790
     29 O           4.8596   -1.9988   -1.2814 O.3     1  LIG1       -0.4885
     30 C           5.6553   -2.9538   -0.5901 C.3     1  LIG1        0.0791
     31 H          -4.0751   -0.1369    0.4349 H       1  LIG1        0.0320
     32 H          -2.9679   -0.6513    1.6934 H       1  LIG1        0.0320
     33 H          -3.4841    1.3976    3.0668 H       1  LIG1        0.0567
     34 H          -6.1027    1.0322    1.5010 H       1  LIG1        0.0532
     35 H          -5.8002    1.9374    3.0829 H       1  LIG1        0.0532
     36 H          -0.0472    2.9277    2.4295 H       1  LIG1        0.0691
     37 H          -3.2816    1.8558   -1.2300 H       1  LIG1        0.0620
     38 H          -4.0429    3.4730   -2.2942 H       1  LIG1        0.0660
     39 H          -4.4641    5.1603   -2.0426 H       1  LIG1        0.0660
     40 H          -4.9955    3.9620   -0.8469 H       1  LIG1        0.0660
     41 H          -1.1969   -1.4622   -1.9561 H       1  LIG1        0.0234
     42 H          -2.7302   -0.5882   -1.8849 H       1  LIG1        0.0234
     43 H          -2.3403   -1.8235   -0.6648 H       1  LIG1        0.0234
     44 H           0.7698   -3.0299    0.5507 H       1  LIG1        0.0659
     45 H           3.1893   -5.7641    0.6614 H       1  LIG1        0.0660
     46 H           1.5663   -5.0902    0.5108 H       1  LIG1        0.0660
     47 H           2.7363   -4.4159    1.7131 H       1  LIG1        0.0660
     48 H           1.6144    1.0555   -0.4419 H       1  LIG1        0.0659
     49 H           5.4797    1.4704   -2.3909 H       1  LIG1        0.0660
     50 H           5.1067   -0.2034   -2.7600 H       1  LIG1        0.0660
     51 H           5.8793    0.2542   -1.1780 H       1  LIG1        0.0660
     52 H           6.6457   -2.9443   -1.0563 H       1  LIG1        0.0660
     53 H           5.2873   -3.9725   -0.7182 H       1  LIG1        0.0660
     54 H           5.7767   -2.6980    0.4675 H       1  LIG1        0.0660
@<TRIPOS>BOND
     1     1     2    1
     2     2     3    2
     3     4     5    1
     4     5     6    2
     5     6     7    1
     6     7     9    1
     7     9    10    2
     8     4    10    1
     9    11    12    1
    10     5    13    1
    11    13    14    1
    12    14    16    1
    13     4    16    1
    14    19    20   ar
    15    20    21   ar
    16    21    22    1
    17    22    23    1
    18    21    24   ar
    19    24    25   ar
    20    25    26   ar
    21    19    26   ar
    22    25    27    1
    23    27    28    1
    24    24    29    1
    25    29    30    1
    26     1     4    1
    27     7     8    2
    28     9    11    1
    29    14    19    1
    30    14    15    1
    31    16    18    1
    32    16    17    1
    33     1    31    1
    34     1    32    1
    35     2    33    1
    36     3    34    1
    37     3    35    1
    38     6    36    1
    39    10    37    1
    40    12    38    1
    41    12    39    1
    42    12    40    1
    43    18    41    1
    44    18    42    1
    45    18    43    1
    46    20    44    1
    47    23    45    1
    48    23    46    1
    49    23    47    1
    50    26    48    1
    51    28    49    1
    52    28    50    1
    53    28    51    1
    54    30    52    1
    55    30    53    1
    56    30    54    1
