REMARK  Name = NuBBE_1857
REMARK  6 active torsions:
REMARK  status: ('A' for Active; 'I' for Inactive)
REMARK    1  A    between atoms: O_1  and  C_2
REMARK    2  A    between atoms: C_7  and  C_8
REMARK    3  A    between atoms: C_8  and  C_9
REMARK    4  A    between atoms: C_9  and  C_10
REMARK    5  A    between atoms: C_13  and  C_18
REMARK    6  A    between atoms: C_21  and  O_22
REMARK                            x       y       z     vdW  Elec       q    Type
REMARK                         _______ _______ _______ _____ _____    ______ ____
ROOT
ATOM      1  C   LIG A   1       2.149  -0.729   1.290  0.00  0.00    +0.119 C 
ATOM      2  O   LIG A   1       1.444  -1.968   1.169  0.00  0.00    -0.369 OA
ATOM      3  C   LIG A   1       1.300  -2.543  -0.138  0.00  0.00    +0.149 C 
ATOM      4  C   LIG A   1       2.589  -2.498  -0.976  0.00  0.00    +0.036 C 
ATOM      5  C   LIG A   1       3.310  -1.161  -0.899  0.00  0.00    +0.005 C 
ATOM      6  C   LIG A   1       3.492  -0.780   0.560  0.00  0.00    +0.032 C 
ENDROOT
BRANCH   3   7
ATOM      7  C   LIG A   1      -0.000  -2.109  -0.798  0.00  0.00    -0.019 A 
ATOM      8  C   LIG A   1      -1.214  -2.417  -0.151  0.00  0.00    +0.010 A 
ATOM      9  C   LIG A   1      -2.445  -2.086  -0.720  0.00  0.00    +0.046 A 
ATOM     10  C   LIG A   1      -2.474  -1.436  -1.947  0.00  0.00    +0.117 A 
ATOM     11  C   LIG A   1      -1.295  -1.126  -2.610  0.00  0.00    +0.046 A 
ATOM     12  C   LIG A   1      -0.062  -1.461  -2.041  0.00  0.00    +0.010 A 
BRANCH  10  13
ATOM     13  O   LIG A   1      -3.649  -1.067  -2.531  0.00  0.00    -0.507 OA
ATOM     14  H   LIG A   1      -4.378  -1.315  -1.938  0.00  0.00    +0.292 HD
ENDBRANCH  10  13
ENDBRANCH   3   7
BRANCH   1  15
ATOM     15  C   LIG A   1       1.298   0.494   0.905  0.00  0.00    +0.036 C 
BRANCH  15  16
ATOM     16  C   LIG A   1       0.066   0.644   1.809  0.00  0.00    +0.037 C 
BRANCH  16  22
ATOM     17  C   LIG A   1      -2.315   4.051   0.673  0.00  0.00    +0.117 A 
ATOM     18  C   LIG A   1      -2.547   2.819   0.072  0.00  0.00    +0.045 A 
ATOM     19  C   LIG A   1      -1.776   1.717   0.451  0.00  0.00    +0.007 A 
ATOM     20  C   LIG A   1      -1.337   4.190   1.649  0.00  0.00    +0.045 A 
ATOM     21  C   LIG A   1      -0.566   3.087   2.026  0.00  0.00    +0.007 A 
ATOM     22  C   LIG A   1      -0.776   1.837   1.427  0.00  0.00    -0.047 A 
BRANCH  17  23
ATOM     23  O   LIG A   1      -3.031   5.157   0.323  0.00  0.00    -0.507 OA
ATOM     24  H   LIG A   1      -3.612   4.922  -0.418  0.00  0.00    +0.292 HD
ENDBRANCH  17  23
ENDBRANCH  16  22
ENDBRANCH  15  16
ENDBRANCH   1  15
TORSDOF 6
