REMARK  Name = NuBBE_2347
REMARK  9 active torsions:
REMARK  status: ('A' for Active; 'I' for Inactive)
REMARK    1  A    between atoms: C_1  and  O_2
REMARK    2  A    between atoms: O_2  and  C_3
REMARK    3  A    between atoms: C_10  and  C_11
REMARK    4  A    between atoms: C_15  and  C_16
REMARK    5  A    between atoms: C_16  and  C_17
REMARK    6  A    between atoms: C_19  and  O_20
REMARK    7  A    between atoms: C_21  and  O_22
REMARK    8  A    between atoms: O_22  and  C_23
REMARK    9  A    between atoms: C_26  and  C_28
REMARK                            x       y       z     vdW  Elec       q    Type
REMARK                         _______ _______ _______ _____ _____    ______ ____
ROOT
ATOM      1  C   LIG A   1      -1.274  -0.476  -0.048  0.00  0.00    +0.211 C 
ATOM      2  O   LIG A   1       0.066  -0.827  -0.495  0.00  0.00    -0.483 OA
ATOM      3  C   LIG A   1       0.185  -0.263  -1.741  0.00  0.00    +0.132 A 
ATOM      4  C   LIG A   1       1.249  -0.497  -2.610  0.00  0.00    +0.043 A 
ATOM      5  C   LIG A   1       1.226   0.211  -3.833  0.00  0.00    +0.166 A 
ATOM      6  C   LIG A   1       0.168   1.091  -4.161  0.00  0.00    +0.162 A 
ATOM      7  C   LIG A   1      -0.874   1.285  -3.244  0.00  0.00    +0.057 A 
ATOM      8  C   LIG A   1      -0.842   0.616  -2.035  0.00  0.00    +0.005 A 
ATOM      9  C   LIG A   1      -1.736   0.770  -0.850  0.00  0.00    +0.065 C 
ATOM     10  C   LIG A   1      -1.484   2.135  -0.212  0.00  0.00    +0.016 C 
ENDROOT
BRANCH   1  18
ATOM     11  C   LIG A   1      -0.302  -0.715   3.687  0.00  0.00    +0.166 A 
ATOM     12  C   LIG A   1      -1.524  -0.427   4.263  0.00  0.00    +0.207 A 
ATOM     13  O   LIG A   1      -1.817  -0.342   5.590  0.00  0.00    -0.449 OA
ATOM     14  C   LIG A   1      -3.215  -0.008   5.558  0.00  0.00    +0.467 C 
ATOM     15  O   LIG A   1      -3.740   0.113   4.223  0.00  0.00    -0.453 OA
ATOM     16  C   LIG A   1      -2.628  -0.159   3.483  0.00  0.00    +0.170 A 
ATOM     17  C   LIG A   1      -2.585  -0.168   2.101  0.00  0.00    +0.057 A 
ATOM     18  C   LIG A   1      -1.355  -0.417   1.471  0.00  0.00    +0.000 A 
ATOM     19  C   LIG A   1      -0.223  -0.679   2.285  0.00  0.00    +0.057 A 
BRANCH  11  21
ATOM     20  C   LIG A   1       0.727  -1.650   5.599  0.00  0.00    +0.277 C 
ATOM     21  O   LIG A   1       0.865  -1.004   4.336  0.00  0.00    -0.491 OA
ENDBRANCH  11  21
ENDBRANCH   1  18
BRANCH   5  22
ATOM     22  O   LIG A   1       2.261   0.039  -4.716  0.00  0.00    -0.503 OA
ATOM     23  H   LIG A   1       3.084   0.023  -4.200  0.00  0.00    +0.292 HD
ENDBRANCH   5  22
BRANCH   6  24
ATOM     24  O   LIG A   1       0.011   1.854  -5.289  0.00  0.00    -0.491 OA
ATOM     25  C   LIG A   1       1.025   1.820  -6.280  0.00  0.00    +0.277 C 
ENDBRANCH   6  24
BRANCH   4  26
ATOM     26  C   LIG A   1       2.319  -1.503  -2.246  0.00  0.00    +0.069 C 
BRANCH  26  27
ATOM     27  C   LIG A   1       3.115  -1.131  -1.024  0.00  0.00    -0.030 C 
ATOM     28  C   LIG A   1       4.431  -0.930  -0.983  0.00  0.00    +0.004 C 
ENDBRANCH  26  27
ENDBRANCH   4  26
TORSDOF 6
