@<TRIPOS>MOLECULE
NuBBE_2430
 33 35 0 0 0
SMALL
GASTEIGER

@<TRIPOS>ATOM
      1 O          -3.6466   -0.0394   -0.3017 O.2     1  LIG1       -0.2830
      2 C          -2.4280   -0.0484   -0.1727 C.ar    1  LIG1        0.2379
      3 C          -1.5897   -1.2556   -0.0547 C.ar    1  LIG1        0.1092
      4 C          -0.2137   -1.0757    0.0765 C.ar    1  LIG1        0.1465
      5 O           0.3856    0.1583    0.1344 O.2     1  LIG1       -0.4507
      6 C          -0.3966    1.3037    0.0269 C.ar    1  LIG1        0.1806
      7 C          -1.7315    1.2643   -0.1385 C.ar    1  LIG1        0.2082
      8 O          -2.5408    2.3767   -0.2934 O.3     1  LIG1       -0.5007
      9 C           0.4018    2.5580    0.0969 C.ar    1  LIG1        0.0211
     10 C           1.7280    2.5766   -0.3706 C.ar    1  LIG1       -0.0510
     11 C           2.5087    3.7356   -0.2939 C.ar    1  LIG1       -0.0611
     12 C           1.9775    4.9003    0.2517 C.ar    1  LIG1       -0.0617
     13 C           0.6719    4.9026    0.7312 C.ar    1  LIG1       -0.0611
     14 C          -0.1023    3.7395    0.6645 C.ar    1  LIG1       -0.0510
     15 C           0.6449   -2.1778    0.1683 C.ar    1  LIG1        0.0233
     16 C           0.1239   -3.4700    0.1338 C.ar    1  LIG1        0.1271
     17 C          -1.2564   -3.6547    0.0351 C.ar    1  LIG1        0.0225
     18 C          -2.1100   -2.5539   -0.0688 C.ar    1  LIG1        0.1348
     19 O          -3.4530   -2.7705   -0.1821 O.3     1  LIG1       -0.5058
     20 O           0.8574   -4.6191    0.2406 O.3     1  LIG1       -0.4949
     21 C           2.1815   -4.5567   -0.2799 C.3     1  LIG1        0.0788
     22 H          -3.4466    2.0074   -0.3904 H       1  LIG1        0.2924
     23 H           2.1720    1.6847   -0.8073 H       1  LIG1        0.0625
     24 H           3.5312    3.7266   -0.6622 H       1  LIG1        0.0618
     25 H           2.5793    5.8035    0.3064 H       1  LIG1        0.0618
     26 H           0.2495    5.8073    1.1609 H       1  LIG1        0.0618
     27 H          -1.1113    3.7767    1.0682 H       1  LIG1        0.0625
     28 H           1.7080   -1.9974    0.2889 H       1  LIG1        0.0691
     29 H          -1.6490   -4.6681    0.0294 H       1  LIG1        0.0691
     30 H          -3.6453   -3.7217   -0.1574 H       1  LIG1        0.2922
     31 H           2.6048   -5.5648   -0.2319 H       1  LIG1        0.0660
     32 H           2.8209   -3.9038    0.3215 H       1  LIG1        0.0660
     33 H           2.1744   -4.2443   -1.3297 H       1  LIG1        0.0660
@<TRIPOS>BOND
     1     1     2    2
     2     2     3   ar
     3     3     4   ar
     4     4     5   ar
     5     5     6   ar
     6     6     7   ar
     7     2     7   ar
     8     7     8    1
     9     6     9    1
    10     9    10   ar
    11    10    11   ar
    12    11    12   ar
    13    12    13   ar
    14    13    14   ar
    15     9    14   ar
    16     4    15   ar
    17    15    16   ar
    18    16    17   ar
    19    17    18   ar
    20     3    18   ar
    21    18    19    1
    22    16    20    1
    23    20    21    1
    24     8    22    1
    25    10    23    1
    26    11    24    1
    27    12    25    1
    28    13    26    1
    29    14    27    1
    30    15    28    1
    31    17    29    1
    32    19    30    1
    33    21    31    1
    34    21    32    1
    35    21    33    1
