REMARK  Name = NuBBE_1969
REMARK  9 active torsions:
REMARK  status: ('A' for Active; 'I' for Inactive)
REMARK    1  A    between atoms: O_1  and  C_2
REMARK    2  A    between atoms: C_3  and  C_27
REMARK    3  A    between atoms: C_4  and  C_20
REMARK    4  A    between atoms: C_6  and  C_8
REMARK    5  A    between atoms: C_9  and  C_10
REMARK    6  A    between atoms: C_13  and  O_16
REMARK    7  A    between atoms: C_23  and  O_26
REMARK    8  A    between atoms: C_29  and  O_30
REMARK    9  A    between atoms: C_32  and  O_34
REMARK                            x       y       z     vdW  Elec       q    Type
REMARK                         _______ _______ _______ _____ _____    ______ ____
ROOT
ATOM      1  C   LIG A   1      -2.029  -1.639   0.006  0.00  0.00    +0.099 C 
ATOM      2  C   LIG A   1      -1.534  -0.924  -1.313  0.00  0.00    +0.064 C 
ATOM      3  C   LIG A   1      -0.013  -0.511  -1.142  0.00  0.00    +0.044 C 
ATOM      4  C   LIG A   1       0.506  -1.083   0.209  0.00  0.00    +0.093 C 
ATOM      5  C   LIG A   1      -0.342  -0.558   1.359  0.00  0.00    -0.038 C 
ATOM      6  C   LIG A   1      -1.655  -0.799   1.219  0.00  0.00    +0.012 C 
ATOM      7  C   LIG A   1       0.208  -2.595   0.178  0.00  0.00    +0.144 C 
ATOM      8  O   LIG A   1       1.091  -3.444   0.060  0.00  0.00    -0.297 OA
ATOM      9  C   LIG A   1      -1.273  -2.963   0.212  0.00  0.00    +0.114 C 
ENDROOT
BRANCH   3  10
ATOM     10  C   LIG A   1       0.282   0.981  -1.323  0.00  0.00    -0.042 A 
ATOM     11  C   LIG A   1      -0.650   1.989  -1.022  0.00  0.00    +0.007 A 
ATOM     12  C   LIG A   1      -0.342   3.340  -1.196  0.00  0.00    +0.045 A 
ATOM     13  C   LIG A   1       0.910   3.701  -1.670  0.00  0.00    +0.117 A 
ATOM     14  C   LIG A   1       1.849   2.731  -1.989  0.00  0.00    +0.045 A 
ATOM     15  C   LIG A   1       1.540   1.378  -1.813  0.00  0.00    +0.007 A 
BRANCH  13  16
ATOM     16  O   LIG A   1       1.253   5.011  -1.828  0.00  0.00    -0.507 OA
ATOM     17  H   LIG A   1       0.505   5.561  -1.538  0.00  0.00    +0.292 HD
ENDBRANCH  13  16
ENDBRANCH   3  10
BRANCH   2  18
ATOM     18  C   LIG A   1      -1.806  -1.728  -2.591  0.00  0.00    -0.034 A 
ATOM     19  C   LIG A   1      -0.898  -2.668  -3.110  0.00  0.00    +0.049 A 
ATOM     20  C   LIG A   1      -1.187  -3.366  -4.279  0.00  0.00    +0.121 A 
ATOM     21  C   LIG A   1      -2.382  -3.171  -4.953  0.00  0.00    +0.090 A 
ATOM     22  C   LIG A   1      -3.291  -2.251  -4.446  0.00  0.00    +0.121 A 
ATOM     23  C   LIG A   1      -3.014  -1.531  -3.284  0.00  0.00    +0.049 A 
BRANCH  20  24
ATOM     24  O   LIG A   1      -0.302  -4.267  -4.795  0.00  0.00    -0.507 OA
ATOM     25  H   LIG A   1       0.483  -4.299  -4.222  0.00  0.00    +0.292 HD
ENDBRANCH  20  24
BRANCH  22  26
ATOM     26  O   LIG A   1      -4.484  -2.023  -5.066  0.00  0.00    -0.507 OA
ATOM     27  H   LIG A   1      -4.541  -2.610  -5.839  0.00  0.00    +0.292 HD
ENDBRANCH  22  26
ENDBRANCH   2  18
BRANCH   1  28
ATOM     28  O   LIG A   1      -3.429  -1.847   0.030  0.00  0.00    -0.384 OA
ATOM     29  H   LIG A   1      -3.864  -1.026  -0.250  0.00  0.00    +0.211 HD
ENDBRANCH   1  28
BRANCH   5  30
ATOM     30  C   LIG A   1       0.233   0.074   2.523  0.00  0.00    +0.005 C 
ATOM     31  C   LIG A   1       1.429   0.682   2.549  0.00  0.00    +0.008 C 
BRANCH  31  32
ATOM     32  C   LIG A   1       2.008   1.328   3.734  0.00  0.00    -0.025 A 
ATOM     33  C   LIG A   1       2.789   2.480   3.559  0.00  0.00    +0.011 A 
ATOM     34  C   LIG A   1       3.394   3.106   4.652  0.00  0.00    +0.046 A 
ATOM     35  C   LIG A   1       3.224   2.570   5.924  0.00  0.00    +0.117 A 
ATOM     36  C   LIG A   1       2.464   1.423   6.117  0.00  0.00    +0.046 A 
ATOM     37  C   LIG A   1       1.863   0.798   5.023  0.00  0.00    +0.011 A 
BRANCH  35  38
ATOM     38  O   LIG A   1       3.801   3.140   7.019  0.00  0.00    -0.507 OA
ATOM     39  H   LIG A   1       4.324   3.906   6.730  0.00  0.00    +0.292 HD
ENDBRANCH  35  38
ENDBRANCH  31  32
ENDBRANCH   5  30
TORSDOF 9
