REMARK  Name = NuBBE_613
REMARK  10 active torsions:
REMARK  status: ('A' for Active; 'I' for Inactive)
REMARK    1  A    between atoms: C_1  and  C_2
REMARK    2  A    between atoms: C_10  and  C_12
REMARK    3  A    between atoms: C_14  and  C_16
REMARK    4  A    between atoms: C_16  and  C_17
REMARK    5  A    between atoms: C_25  and  O_46
REMARK    6  A    between atoms: C_32  and  C_44
REMARK    7  A    between atoms: C_32  and  O_45
REMARK    8  A    between atoms: C_34  and  C_36
REMARK    9  A    between atoms: O_46  and  C_47
REMARK   10  A    between atoms: C_47  and  C_48
REMARK                            x       y       z     vdW  Elec       q    Type
REMARK                         _______ _______ _______ _____ _____    ______ ____
ROOT
ATOM      1  C   LIG A   1      -3.969  -1.318   2.517  0.00  0.00    +0.044 C 
ATOM      2  C   LIG A   1      -2.876  -1.102   1.511  0.00  0.00    +0.097 C 
ATOM      3  O   LIG A   1      -2.762  -2.229   0.625  0.00  0.00    -0.364 OA
ATOM      4  C   LIG A   1      -1.653  -2.001   1.506  0.00  0.00    +0.158 C 
ATOM      5  C   LIG A   1      -0.350  -1.671   0.800  0.00  0.00    +0.071 C 
ATOM      6  C   LIG A   1      -0.273  -0.261   0.120  0.00  0.00    +0.099 C 
ATOM      7  C   LIG A   1      -1.735   0.161  -0.298  0.00  0.00    +0.034 C 
ATOM      8  C   LIG A   1      -2.803   0.243   0.805  0.00  0.00    +0.026 C 
ATOM      9  C   LIG A   1      -2.639   1.367   1.816  0.00  0.00    +0.011 C 
ATOM     10  C   LIG A   1      -1.573   1.248  -1.361  0.00  0.00    +0.082 C 
ATOM     11  N   LIG A   1      -0.415   0.717  -2.050  0.00  0.00    -0.311 N 
ATOM     12  H   LIG A   1      -0.117   0.955  -2.988  0.00  0.00    +0.149 HD
ATOM     13  C   LIG A   1       0.668   0.702   1.002  0.00  0.00    +0.223 C 
ATOM     14  C   LIG A   1       2.179   0.558   0.709  0.00  0.00    +0.192 C 
ATOM     15  C   LIG A   1       3.360  -0.305   1.259  0.00  0.00    +0.190 C 
ATOM     16  O   LIG A   1       2.975   0.940   1.849  0.00  0.00    -0.361 OA
ATOM     17  C   LIG A   1       3.412  -1.492   2.190  0.00  0.00    +0.149 C 
ATOM     18  C   LIG A   1       3.773  -2.833   1.460  0.00  0.00    +0.170 C 
ATOM     19  C   LIG A   1       3.368  -3.040  -0.004  0.00  0.00    +0.058 C 
ATOM     20  C   LIG A   1       4.599  -3.372  -0.841  0.00  0.00    +0.015 C 
ATOM     21  C   LIG A   1       2.307  -4.155  -0.116  0.00  0.00    +0.045 C 
ATOM     22  C   LIG A   1       1.101  -3.751   0.653  0.00  0.00    +0.148 C 
ATOM     23  C   LIG A   1       0.140  -2.819  -0.042  0.00  0.00    +0.154 C 
ATOM     24  O   LIG A   1      -0.199  -4.182   0.280  0.00  0.00    -0.368 OA
ATOM     25  O   LIG A   1       4.288  -3.770   2.084  0.00  0.00    -0.294 OA
ATOM     26  C   LIG A   1       4.511  -1.256   3.249  0.00  0.00    +0.052 C 
ATOM     27  C   LIG A   1       0.337  -0.177  -1.295  0.00  0.00    +0.224 C 
ATOM     28  O   LIG A   1       1.340  -0.702  -1.703  0.00  0.00    -0.275 OA
ENDROOT
BRANCH  17  29
ATOM     29  O   LIG A   1       2.182  -1.647   2.889  0.00  0.00    -0.379 OA
ATOM     30  H   LIG A   1       2.339  -2.304   3.593  0.00  0.00    +0.211 HD
ENDBRANCH  17  29
BRANCH  10  31
ATOM     31  C   LIG A   1      -2.791   1.451  -2.294  0.00  0.00    +0.057 C 
BRANCH  31  32
ATOM     32  C   LIG A   1      -2.643   2.492  -3.397  0.00  0.00    -0.046 A 
ATOM     33  C   LIG A   1      -1.472   3.237  -3.603  0.00  0.00    +0.003 A 
ATOM     34  C   LIG A   1      -1.387   4.193  -4.618  0.00  0.00    +0.000 A 
ATOM     35  C   LIG A   1      -2.478   4.432  -5.445  0.00  0.00    +0.000 A 
ATOM     36  C   LIG A   1      -3.652   3.707  -5.261  0.00  0.00    +0.000 A 
ATOM     37  C   LIG A   1      -3.734   2.744  -4.248  0.00  0.00    +0.003 A 
ENDBRANCH  31  32
ENDBRANCH  10  31
BRANCH  13  38
ATOM     38  O   LIG A   1       0.352   2.111   0.740  0.00  0.00    -0.458 OA
BRANCH  38  39
ATOM     39  C   LIG A   1       0.136   2.933   1.806  0.00  0.00    +0.304 C 
ATOM     40  C   LIG A   1      -0.212   4.331   1.376  0.00  0.00    +0.136 C 
ATOM     41  O   LIG A   1       0.125   2.582   2.980  0.00  0.00    -0.251 OA
ENDBRANCH  38  39
ENDBRANCH  13  38
TORSDOF 5
