REMARK  Name = NuBBE_2412
REMARK  22 active torsions:
REMARK  status: ('A' for Active; 'I' for Inactive)
REMARK    1  A    between atoms: C_1  and  C_2
REMARK    2  A    between atoms: C_1  and  C_31
REMARK    3  A    between atoms: C_2  and  C_3
REMARK    4  A    between atoms: C_3  and  C_4
REMARK    5  A    between atoms: C_4  and  C_5
REMARK    6  A    between atoms: C_5  and  C_6
REMARK    7  A    between atoms: C_6  and  C_7
REMARK    8  A    between atoms: C_7  and  C_8
REMARK    9  A    between atoms: C_8  and  C_9
REMARK   10  A    between atoms: C_9  and  C_10
REMARK   11  A    between atoms: C_10  and  C_11
REMARK   12  A    between atoms: C_11  and  C_12
REMARK   13  A    between atoms: C_12  and  C_13
REMARK   14  A    between atoms: C_13  and  C_14
REMARK   15  A    between atoms: C_14  and  C_15
REMARK   16  A    between atoms: C_15  and  C_16
REMARK   17  A    between atoms: C_16  and  C_17
REMARK   18  A    between atoms: C_17  and  C_18
REMARK   19  A    between atoms: C_18  and  C_19
REMARK   20  A    between atoms: C_19  and  C_20
REMARK   21  A    between atoms: C_22  and  O_24
REMARK   22  A    between atoms: C_25  and  C_30
REMARK                            x       y       z     vdW  Elec       q    Type
REMARK                         _______ _______ _______ _____ _____    ______ ____
ROOT
ATOM      1  C   LIG A   1      -3.294  -0.629  -1.719  0.00  0.00    -0.000 C 
ENDROOT
BRANCH   1   2
ATOM      2  C   LIG A   1      -4.364   0.160  -0.985  0.00  0.00    -0.000 C 
BRANCH   2   3
ATOM      3  C   LIG A   1      -4.384   1.442  -0.084  0.00  0.00    -0.000 C 
BRANCH   3   4
ATOM      4  C   LIG A   1      -3.280   1.617   0.906  0.00  0.00    -0.000 C 
BRANCH   4   5
ATOM      5  C   LIG A   1      -3.073   0.496   1.843  0.00  0.00    -0.000 C 
BRANCH   5   6
ATOM      6  C   LIG A   1      -1.806   0.774   2.642  0.00  0.00    -0.000 C 
BRANCH   6   7
ATOM      7  C   LIG A   1      -0.474   1.027   1.882  0.00  0.00    -0.000 C 
BRANCH   7   8
ATOM      8  C   LIG A   1      -0.025   2.232   1.008  0.00  0.00    +0.000 C 
BRANCH   8   9
ATOM      9  C   LIG A   1      -0.604   2.596  -0.422  0.00  0.00    +0.001 C 
BRANCH   9  10
ATOM     10  C   LIG A   1      -0.394   1.502  -1.487  0.00  0.00    +0.017 C 
BRANCH  10  11
ATOM     11  C   LIG A   1      -1.442   1.436  -2.958  0.00  0.00    +0.130 C 
ATOM     12  C   LIG A   1      -1.408  -0.028  -3.969  0.00  0.00    +0.168 C 
ATOM     13  C   LIG A   1      -2.801  -0.110  -4.624  0.00  0.00    +0.203 C 
ATOM     14  O   LIG A   1      -3.653   0.956  -4.123  0.00  0.00    -0.459 OA
ATOM     15  C   LIG A   1      -3.035   1.805  -3.229  0.00  0.00    +0.313 C 
ATOM     16  O   LIG A   1      -3.857   2.736  -2.545  0.00  0.00    -0.250 OA
ATOM     17  C   LIG A   1      -2.672   0.109  -6.080  0.00  0.00    +0.055 C 
BRANCH  12  18
ATOM     18  O   LIG A   1      -1.162  -1.423  -3.573  0.00  0.00    -0.387 OA
ATOM     19  H   LIG A   1      -1.916  -1.835  -3.092  0.00  0.00    +0.210 HD
ENDBRANCH  12  18
ENDBRANCH  10  11
ENDBRANCH   9  10
ENDBRANCH   8   9
ENDBRANCH   7   8
ENDBRANCH   6   7
ENDBRANCH   5   6
ENDBRANCH   4   5
ENDBRANCH   3   4
ENDBRANCH   2   3
ENDBRANCH   1   2
BRANCH   1  20
ATOM     20  C   LIG A   1      -1.877  -0.624  -1.216  0.00  0.00    -0.000 C 
BRANCH  20  21
ATOM     21  C   LIG A   1      -1.029  -1.755  -0.807  0.00  0.00    -0.000 C 
BRANCH  21  22
ATOM     22  C   LIG A   1      -1.503  -2.134   0.518  0.00  0.00    -0.000 C 
BRANCH  22  23
ATOM     23  C   LIG A   1      -0.862  -3.394   0.956  0.00  0.00    -0.000 C 
BRANCH  23  24
ATOM     24  C   LIG A   1       0.645  -3.449   1.273  0.00  0.00    -0.000 C 
BRANCH  24  25
ATOM     25  C   LIG A   1       1.311  -2.711   2.454  0.00  0.00    +0.000 C 
BRANCH  25  26
ATOM     26  C   LIG A   1       1.397  -1.217   2.346  0.00  0.00    +0.000 C 
BRANCH  26  27
ATOM     27  C   LIG A   1       2.042  -0.649   1.075  0.00  0.00    +0.005 C 
BRANCH  27  28
ATOM     28  C   LIG A   1       3.465  -1.039   0.717  0.00  0.00    +0.035 C 
BRANCH  28  29
ATOM     29  C   LIG A   1       4.601  -0.421   1.493  0.00  0.00    -0.044 A 
ATOM     30  C   LIG A   1       4.588   0.918   1.916  0.00  0.00    +0.053 A 
ATOM     31  C   LIG A   1       5.760   1.457   2.408  0.00  0.00    +0.167 A 
ATOM     32  C   LIG A   1       6.917   0.722   2.502  0.00  0.00    +0.166 A 
ATOM     33  C   LIG A   1       6.966  -0.599   2.118  0.00  0.00    +0.050 A 
ATOM     34  C   LIG A   1       5.796  -1.169   1.608  0.00  0.00    +0.007 A 
ATOM     35  O   LIG A   1       7.959   1.455   2.978  0.00  0.00    -0.453 OA
ATOM     36  C   LIG A   1       7.295   2.701   3.275  0.00  0.00    +0.466 C 
ATOM     37  O   LIG A   1       5.932   2.748   2.805  0.00  0.00    -0.453 OA
ENDBRANCH  28  29
ENDBRANCH  27  28
ENDBRANCH  26  27
ENDBRANCH  25  26
ENDBRANCH  24  25
ENDBRANCH  23  24
ENDBRANCH  22  23
ENDBRANCH  21  22
ENDBRANCH  20  21
ENDBRANCH   1  20
TORSDOF 21
