@<TRIPOS>MOLECULE
NuBBE_1862
 52 53 0 0 0
SMALL
GASTEIGER

@<TRIPOS>ATOM
      1 O          -0.0061    2.9365    0.0879 O.3     1  LIG1       -0.3918
      2 C          -0.8587    1.7999   -0.0139 C.3     1  LIG1        0.0556
      3 H          -0.9820    1.3662    0.9847 H       1  LIG1        0.0593
      4 C          -2.2158    2.2353   -0.5795 C.3     1  LIG1       -0.0229
      5 C          -2.9437    3.3153    0.2320 C.3     1  LIG1       -0.0253
      6 C          -3.4005    2.9648    1.6311 C.ar    1  LIG1       -0.0471
      7 C          -3.7487    1.6700    2.0145 C.ar    1  LIG1       -0.0551
      8 C          -4.3057    1.4176    3.2721 C.ar    1  LIG1       -0.0197
      9 C          -4.5179    2.4644    4.1754 C.ar    1  LIG1        0.1201
     10 C          -4.1315    3.7500    3.8259 C.ar    1  LIG1       -0.0197
     11 C          -3.5935    4.0063    2.5586 C.ar    1  LIG1       -0.0551
     12 O          -5.0569    2.0885    5.3758 O.3     1  LIG1       -0.4951
     13 C          -5.8632    3.0697    6.0199 C.3     1  LIG1        0.0788
     14 C          -0.2198    0.7694   -0.9564 C.3     1  LIG1       -0.0268
     15 C           1.1086    0.2208   -0.4311 C.3     1  LIG1       -0.0504
     16 C           1.7139   -0.7783   -1.4207 C.3     1  LIG1       -0.0490
     17 C           3.0394   -1.3415   -0.9020 C.3     1  LIG1       -0.0277
     18 C           3.6704   -2.3289   -1.8523 C.ar    1  LIG1       -0.0471
     19 C           3.0052   -3.5154   -2.1838 C.ar    1  LIG1       -0.0551
     20 C           3.6084   -4.4675   -3.0074 C.ar    1  LIG1       -0.0197
     21 C           4.8932   -4.2499   -3.5027 C.ar    1  LIG1        0.1201
     22 C           5.5475   -3.0540   -3.2098 C.ar    1  LIG1       -0.0197
     23 C           4.9461   -2.1002   -2.3835 C.ar    1  LIG1       -0.0551
     24 O           5.5776   -5.1246   -4.3022 O.3     1  LIG1       -0.4951
     25 C           5.2900   -6.5002   -4.0676 C.3     1  LIG1        0.0788
     26 H           0.4636    2.8681    0.9376 H       1  LIG1        0.2098
     27 H          -2.8609    1.3592   -0.7040 H       1  LIG1        0.0293
     28 H          -2.0583    2.6496   -1.5849 H       1  LIG1        0.0293
     29 H          -3.8504    3.5837   -0.3283 H       1  LIG1        0.0314
     30 H          -2.3245    4.2192    0.2622 H       1  LIG1        0.0314
     31 H          -3.6063    0.8196    1.3428 H       1  LIG1        0.0621
     32 H          -4.6021    0.4098    3.5399 H       1  LIG1        0.0654
     33 H          -4.2192    4.5815    4.5211 H       1  LIG1        0.0654
     34 H          -3.3319    5.0265    2.2924 H       1  LIG1        0.0621
     35 H          -6.2412    2.6269    6.9475 H       1  LIG1        0.0660
     36 H          -6.7257    3.3351    5.3987 H       1  LIG1        0.0660
     37 H          -5.2891    3.9571    6.2966 H       1  LIG1        0.0660
     38 H          -0.0391    1.2344   -1.9343 H       1  LIG1        0.0290
     39 H          -0.9174   -0.0629   -1.1147 H       1  LIG1        0.0290
     40 H           0.9455   -0.2699    0.5360 H       1  LIG1        0.0266
     41 H           1.8159    1.0412   -0.2672 H       1  LIG1        0.0266
     42 H           1.8767   -0.2883   -2.3890 H       1  LIG1        0.0268
     43 H           0.9962   -1.5893   -1.5954 H       1  LIG1        0.0268
     44 H           2.8846   -1.8482    0.0592 H       1  LIG1        0.0313
     45 H           3.7340   -0.5152   -0.7064 H       1  LIG1        0.0313
     46 H           2.0092   -3.7151   -1.7950 H       1  LIG1        0.0621
     47 H           3.0467   -5.3623   -3.2485 H       1  LIG1        0.0654
     48 H           6.5428   -2.8716   -3.6085 H       1  LIG1        0.0654
     49 H           5.4880   -1.1873   -2.1492 H       1  LIG1        0.0621
     50 H           5.9577   -7.0947   -4.6978 H       1  LIG1        0.0660
     51 H           4.2647   -6.7540   -4.3531 H       1  LIG1        0.0660
     52 H           5.4839   -6.7675   -3.0226 H       1  LIG1        0.0660
@<TRIPOS>BOND
     1     1     2    1
     2     2     3    1
     3     2     4    1
     4     4     5    1
     5     5     6    1
     6     6     7   ar
     7     7     8   ar
     8     8     9   ar
     9     9    10   ar
    10    10    11   ar
    11     6    11   ar
    12     9    12    1
    13    12    13    1
    14     2    14    1
    15    14    15    1
    16    15    16    1
    17    16    17    1
    18    17    18    1
    19    18    19   ar
    20    19    20   ar
    21    20    21   ar
    22    21    22   ar
    23    22    23   ar
    24    18    23   ar
    25    21    24    1
    26    24    25    1
    27     1    26    1
    28     4    27    1
    29     4    28    1
    30     5    29    1
    31     5    30    1
    32     7    31    1
    33     8    32    1
    34    10    33    1
    35    11    34    1
    36    13    35    1
    37    13    36    1
    38    13    37    1
    39    14    38    1
    40    14    39    1
    41    15    40    1
    42    15    41    1
    43    16    42    1
    44    16    43    1
    45    17    44    1
    46    17    45    1
    47    19    46    1
    48    20    47    1
    49    22    48    1
    50    23    49    1
    51    25    50    1
    52    25    51    1
    53    25    52    1
