REMARK  Name = NuBBE_2230
REMARK  4 active torsions:
REMARK  status: ('A' for Active; 'I' for Inactive)
REMARK    1  A    between atoms: O_1  and  C_2
REMARK    2  A    between atoms: C_12  and  C_13
REMARK    3  A    between atoms: C_12  and  C_14
REMARK    4  A    between atoms: C_18  and  C_19
REMARK                            x       y       z     vdW  Elec       q    Type
REMARK                         _______ _______ _______ _____ _____    ______ ____
ROOT
ATOM      1  C   LIG A   1       0.239  -2.300   0.852  0.00  0.00    +0.119 C 
ATOM      2  C   LIG A   1       0.287  -0.849   0.143  0.00  0.00    +0.030 C 
ATOM      3  C   LIG A   1      -1.408  -0.436   0.267  0.00  0.00    -0.019 C 
ATOM      4  C   LIG A   1      -1.932  -0.659   1.734  0.00  0.00    +0.037 C 
ATOM      5  C   LIG A   1      -1.902   0.950  -0.120  0.00  0.00    +0.008 C 
ATOM      6  C   LIG A   1      -0.917   1.922   0.349  0.00  0.00    +0.005 C 
ATOM      7  C   LIG A   1       0.466   1.533  -0.119  0.00  0.00    +0.001 C 
ATOM      8  C   LIG A   1       0.883   1.482  -1.785  0.00  0.00    -0.032 C 
ATOM      9  C   LIG A   1       2.230   0.883  -2.483  0.00  0.00    +0.011 C 
ATOM     10  C   LIG A   1      -0.086   0.758  -2.737  0.00  0.00    +0.011 C 
ATOM     11  C   LIG A   1       1.283   2.937  -1.808  0.00  0.00    +0.007 C 
ATOM     12  C   LIG A   1       2.495   2.892  -0.736  0.00  0.00    +0.001 C 
ATOM     13  C   LIG A   1       2.697   1.310   0.092  0.00  0.00    +0.007 C 
ATOM     14  C   LIG A   1       1.262   0.481   0.601  0.00  0.00    -0.023 C 
ATOM     15  C   LIG A   1       1.401   0.494   2.134  0.00  0.00    +0.012 C 
ATOM     16  C   LIG A   1      -0.838  -3.215   0.145  0.00  0.00    +0.039 C 
ATOM     17  C   LIG A   1      -2.245  -2.652   0.356  0.00  0.00    +0.017 C 
ATOM     18  C   LIG A   1      -2.298  -1.411  -0.516  0.00  0.00    +0.015 C 
ATOM     19  C   LIG A   1      -2.354  -2.078   1.729  0.00  0.00    -0.073 C 
ATOM     20  C   LIG A   1      -2.547  -2.779   2.918  0.00  0.00    +0.008 C 
ENDROOT
BRANCH   1  21
ATOM     21  O   LIG A   1       1.345  -3.142   1.097  0.00  0.00    -0.392 OA
ATOM     22  H   LIG A   1       0.956  -3.820   1.704  0.00  0.00    +0.210 HD
ENDBRANCH   1  21
TORSDOF 1
