REMARK  Name = NuBBE_138
REMARK  5 active torsions:
REMARK  status: ('A' for Active; 'I' for Inactive)
REMARK    1  A    between atoms: O_1  and  C_2
REMARK    2  A    between atoms: C_4  and  C_5
REMARK    3  A    between atoms: C_5  and  O_6
REMARK    4  A    between atoms: C_9  and  O_10
REMARK    5  A    between atoms: C_11  and  O_12
REMARK                            x       y       z     vdW  Elec       q    Type
REMARK                         _______ _______ _______ _____ _____    ______ ____
ROOT
ATOM      1  C   LIG A   1      -1.571  -0.353   0.002  0.00  0.00    +0.163 A 
ATOM      2  C   LIG A   1      -0.903   0.871   0.036  0.00  0.00    +0.064 A 
ATOM      3  C   LIG A   1       0.501   0.897   0.025  0.00  0.00    +0.066 A 
ATOM      4  C   LIG A   1       1.232  -0.300  -0.022  0.00  0.00    +0.064 A 
ATOM      5  C   LIG A   1       0.550  -1.510  -0.056  0.00  0.00    +0.163 A 
ATOM      6  C   LIG A   1      -0.845  -1.540  -0.044  0.00  0.00    +0.201 A 
ENDROOT
BRANCH   1   7
ATOM      7  O   LIG A   1      -2.936  -0.399   0.013  0.00  0.00    -0.503 OA
ATOM      8  H   LIG A   1      -3.292   0.502   0.045  0.00  0.00    +0.292 HD
ENDBRANCH   1   7
BRANCH   3   9
ATOM      9  C   LIG A   1       1.259   2.170   0.060  0.00  0.00    +0.337 C 
ATOM     10  O   LIG A   1       2.471   2.273   0.049  0.00  0.00    -0.245 OA
BRANCH   9  11
ATOM     11  O   LIG A   1       0.463   3.252   0.110  0.00  0.00    -0.477 OA
ATOM     12  H   LIG A   1       1.088   4.007   0.130  0.00  0.00    +0.295 HD
ENDBRANCH   9  11
ENDBRANCH   3   9
BRANCH   5  13
ATOM     13  O   LIG A   1       1.211  -2.707  -0.102  0.00  0.00    -0.503 OA
ATOM     14  H   LIG A   1       2.169  -2.533  -0.105  0.00  0.00    +0.292 HD
ENDBRANCH   5  13
BRANCH   6  15
ATOM     15  O   LIG A   1      -1.483  -2.749  -0.078  0.00  0.00    -0.501 OA
ATOM     16  H   LIG A   1      -0.767  -3.412  -0.106  0.00  0.00    +0.292 HD
ENDBRANCH   6  15
TORSDOF 5
