REMARK  Name = NuBBE_554
REMARK  8 active torsions:
REMARK  status: ('A' for Active; 'I' for Inactive)
REMARK    1  A    between atoms: O_1  and  C_2
REMARK    2  A    between atoms: C_2  and  C_4
REMARK    3  A    between atoms: C_2  and  C_16
REMARK    4  A    between atoms: C_4  and  C_5
REMARK    5  A    between atoms: C_5  and  O_7
REMARK    6  A    between atoms: C_5  and  C_8
REMARK    7  A    between atoms: C_8  and  C_9
REMARK    8  A    between atoms: C_17  and  C_18
REMARK                            x       y       z     vdW  Elec       q    Type
REMARK                         _______ _______ _______ _____ _____    ______ ____
ROOT
ATOM      1  C   LIG A   1       2.281   0.538  -1.256  0.00  0.00    +0.067 C 
ENDROOT
BRANCH   1   2
ATOM      2  C   LIG A   1       1.964   1.102   0.135  0.00  0.00    +0.140 C 
BRANCH   2   3
ATOM      3  O   LIG A   1       2.813   2.228   0.354  0.00  0.00    -0.388 OA
ATOM      4  H   LIG A   1       2.551   2.912  -0.286  0.00  0.00    +0.210 HD
ENDBRANCH   2   3
BRANCH   2   5
ATOM      5  C   LIG A   1       0.525   1.494   0.334  0.00  0.00    +0.004 C 
ATOM      6  C   LIG A   1       0.067   2.716   0.660  0.00  0.00    +0.006 C 
BRANCH   6   7
ATOM      7  C   LIG A   1      -1.345   3.025   0.925  0.00  0.00    -0.025 A 
ATOM      8  C   LIG A   1      -2.392   2.327   0.310  0.00  0.00    +0.008 A 
ATOM      9  C   LIG A   1      -3.720   2.632   0.610  0.00  0.00    +0.001 A 
ATOM     10  C   LIG A   1      -4.016   3.652   1.510  0.00  0.00    +0.000 A 
ATOM     11  C   LIG A   1      -2.984   4.377   2.104  0.00  0.00    +0.001 A 
ATOM     12  C   LIG A   1      -1.655   4.069   1.808  0.00  0.00    +0.008 A 
ENDBRANCH   6   7
ENDBRANCH   2   5
ENDBRANCH   1   2
BRANCH   1  13
ATOM     13  C   LIG A   1       1.529  -0.728  -1.689  0.00  0.00    +0.121 C 
BRANCH  13  14
ATOM     14  O   LIG A   1       2.043  -1.109  -2.971  0.00  0.00    -0.392 OA
ATOM     15  H   LIG A   1       1.425  -0.774  -3.646  0.00  0.00    +0.210 HD
ENDBRANCH  13  14
BRANCH  13  16
ATOM     16  C   LIG A   1       1.726  -1.921  -0.742  0.00  0.00    +0.076 C 
BRANCH  16  17
ATOM     17  C   LIG A   1       0.987  -3.185  -1.229  0.00  0.00    +0.183 C 
ATOM     18  O   LIG A   1      -0.434  -2.905  -1.322  0.00  0.00    -0.458 OA
ATOM     19  C   LIG A   1      -1.212  -2.945  -0.220  0.00  0.00    +0.332 C 
ATOM     20  C   LIG A   1      -0.676  -3.671   0.952  0.00  0.00    +0.087 C 
ATOM     21  C   LIG A   1       0.444  -4.380   0.890  0.00  0.00    -0.016 C 
ATOM     22  C   LIG A   1       1.251  -4.419  -0.362  0.00  0.00    +0.072 C 
ATOM     23  O   LIG A   1      -2.313  -2.423  -0.187  0.00  0.00    -0.246 OA
ENDBRANCH  16  17
ENDBRANCH  13  16
ENDBRANCH   1  13
TORSDOF 8
