@<TRIPOS>MOLECULE
NuBBE_1946
 39 40 0 0 0
SMALL
GASTEIGER

@<TRIPOS>ATOM
      1 C          -2.2480   -0.9205   -0.3303 C.3     1  LIG1       -0.0250
      2 C          -2.6792   -1.9115   -1.4173 C.3     1  LIG1       -0.0589
      3 C          -2.9097   -1.2617    1.0081 C.3     1  LIG1       -0.0589
      4 C          -0.7236   -0.8242   -0.2005 C.2     1  LIG1       -0.0635
      5 C          -0.0196    0.3351   -0.1926 C.2     1  LIG1       -0.0446
      6 C           1.5076    0.3955   -0.1028 C.3     1  LIG1       -0.0130
      7 H           1.8742    0.9486   -0.9815 H       1  LIG1        0.0351
      8 C           2.2237   -0.9740   -0.1038 C.3     1  LIG1       -0.0368
      9 H           3.1805   -0.8879    0.4274 H       1  LIG1        0.0304
     10 C           1.3782   -2.0276    0.6078 C.3     1  LIG1       -0.0462
     11 C          -0.0118   -2.1541   -0.0121 C.3     1  LIG1       -0.0307
     12 C           2.5615   -1.4130   -1.5362 C.3     1  LIG1       -0.0619
     13 C           1.8665    1.2317    1.1359 C.3     1  LIG1       -0.0423
     14 C           1.3340    2.6627    0.9814 C.3     1  LIG1       -0.0311
     15 C          -0.0188    2.7407    0.3115 C.2     1  LIG1       -0.0723
     16 C          -0.6285    1.6603   -0.2149 C.2     1  LIG1       -0.0593
     17 C          -0.6495    4.1027    0.2752 C.3     1  LIG1       -0.0435
     18 H          -2.6624    0.0425   -0.6409 H       1  LIG1        0.0340
     19 H          -2.4322   -2.9451   -1.1531 H       1  LIG1        0.0235
     20 H          -2.1978   -1.6779   -2.3733 H       1  LIG1        0.0235
     21 H          -3.7631   -1.8627   -1.5700 H       1  LIG1        0.0235
     22 H          -2.6680   -2.2757    1.3422 H       1  LIG1        0.0235
     23 H          -4.0001   -1.1977    0.9216 H       1  LIG1        0.0235
     24 H          -2.5972   -0.5620    1.7910 H       1  LIG1        0.0235
     25 H           1.2789   -1.7584    1.6675 H       1  LIG1        0.0271
     26 H           1.8801   -3.0024    0.5831 H       1  LIG1        0.0271
     27 H          -0.5964   -2.8087    0.6432 H       1  LIG1        0.0310
     28 H           0.0553   -2.6631   -0.9810 H       1  LIG1        0.0310
     29 H           3.2780   -0.7183   -1.9881 H       1  LIG1        0.0233
     30 H           1.6778   -1.4404   -2.1814 H       1  LIG1        0.0233
     31 H           3.0193   -2.4078   -1.5404 H       1  LIG1        0.0233
     32 H           2.9527    1.2717    1.2808 H       1  LIG1        0.0274
     33 H           1.4421    0.7759    2.0404 H       1  LIG1        0.0274
     34 H           2.0463    3.2426    0.3808 H       1  LIG1        0.0310
     35 H           1.2910    3.1318    1.9713 H       1  LIG1        0.0310
     36 H          -1.6134    1.7764   -0.6530 H       1  LIG1        0.0620
     37 H          -0.0039    4.8045   -0.2624 H       1  LIG1        0.0274
     38 H          -0.8014    4.4780    1.2925 H       1  LIG1        0.0274
     39 H          -1.6230    4.0942   -0.2260 H       1  LIG1        0.0274
@<TRIPOS>BOND
     1     1     2    1
     2     1     3    1
     3     1     4    1
     4     4     5    2
     5     5     6    1
     6     6     7    1
     7     6     8    1
     8     8     9    1
     9     8    10    1
    10    10    11    1
    11     4    11    1
    12     8    12    1
    13     6    13    1
    14    13    14    1
    15    14    15    1
    16    15    16    2
    17     5    16    1
    18    15    17    1
    19     1    18    1
    20     2    19    1
    21     2    20    1
    22     2    21    1
    23     3    22    1
    24     3    23    1
    25     3    24    1
    26    10    25    1
    27    10    26    1
    28    11    27    1
    29    11    28    1
    30    12    29    1
    31    12    30    1
    32    12    31    1
    33    13    32    1
    34    13    33    1
    35    14    34    1
    36    14    35    1
    37    16    36    1
    38    17    37    1
    39    17    38    1
    40    17    39    1
