@<TRIPOS>MOLECULE
NuBBE_70
 53 53 0 0 0
SMALL
GASTEIGER

@<TRIPOS>ATOM
      1 C          -5.2709    5.2446   -1.7753 C.3     1  LIG1       -0.0440
      2 C          -4.0232    4.5375   -1.3168 C.2     1  LIG1       -0.0796
      3 C          -3.4440    5.0801   -0.0376 C.3     1  LIG1       -0.0440
      4 C          -3.5133    3.5088   -2.0218 C.2     1  LIG1       -0.0850
      5 C          -2.2646    2.7325   -1.7044 C.3     1  LIG1       -0.0308
      6 C          -2.5417    1.4844   -0.8511 C.3     1  LIG1       -0.0286
      7 C          -1.2767    0.6898   -0.5553 C.2     1  LIG1       -0.0762
      8 C          -0.2204    1.4398    0.2143 C.3     1  LIG1       -0.0438
      9 C          -1.1572   -0.5960   -0.9513 C.2     1  LIG1       -0.0850
     10 C           0.0626   -1.4760   -0.8271 C.3     1  LIG1       -0.0334
     11 C           0.0903   -2.3188    0.4542 C.3     1  LIG1       -0.0367
     12 C           1.3224   -3.2763    0.6253 C.3     1  LIG1        0.0111
     13 C           1.3062   -4.3373   -0.5095 C.3     1  LIG1       -0.0520
     14 C           2.6524   -2.4697    0.6168 C.ar    1  LIG1       -0.0340
     15 C           3.2010   -1.9526    1.8109 C.ar    1  LIG1       -0.0125
     16 C           4.3858   -1.2155    1.7881 C.ar    1  LIG1        0.1585
     17 O           4.9364   -0.6954    2.9278 O.3     1  LIG1       -0.5033
     18 C           5.0458   -0.9744    0.5899 C.ar    1  LIG1        0.1582
     19 O           6.1996   -0.2458    0.5745 O.3     1  LIG1       -0.5033
     20 C           4.5349   -1.4577   -0.5989 C.ar    1  LIG1       -0.0162
     21 C           3.3474   -2.1972   -0.5843 C.ar    1  LIG1       -0.0541
     22 C           1.2128   -4.0864    1.9369 C.2     1  LIG1       -0.0809
     23 C           0.2608   -4.0014    2.8958 C.2     1  LIG1       -0.1018
     24 H          -5.0630    6.3076   -1.9369 H       1  LIG1        0.0274
     25 H          -6.0568    5.1545   -1.0185 H       1  LIG1        0.0274
     26 H          -5.6598    4.8364   -2.7137 H       1  LIG1        0.0274
     27 H          -3.3019    6.1629   -0.1178 H       1  LIG1        0.0274
     28 H          -2.4757    4.6472    0.2233 H       1  LIG1        0.0274
     29 H          -4.1269    4.8829    0.7953 H       1  LIG1        0.0274
     30 H          -4.0185    3.1951   -2.9353 H       1  LIG1        0.0572
     31 H          -1.5447    3.3901   -1.2085 H       1  LIG1        0.0310
     32 H          -1.7866    2.4410   -2.6485 H       1  LIG1        0.0310
     33 H          -3.2817    0.8545   -1.3630 H       1  LIG1        0.0313
     34 H          -3.0001    1.7787    0.1019 H       1  LIG1        0.0313
     35 H          -0.6381    1.8027    1.1598 H       1  LIG1        0.0274
     36 H           0.1370    2.3015   -0.3570 H       1  LIG1        0.0274
     37 H           0.6552    0.8342    0.4567 H       1  LIG1        0.0274
     38 H          -1.9909   -1.0570   -1.4805 H       1  LIG1        0.0572
     39 H           0.9615   -0.8597   -0.9001 H       1  LIG1        0.0308
     40 H           0.0716   -2.1307   -1.7054 H       1  LIG1        0.0308
     41 H          -0.8297   -2.9245    0.4804 H       1  LIG1        0.0280
     42 H           0.0367   -1.6384    1.3151 H       1  LIG1        0.0280
     43 H           1.3682   -3.8933   -1.5082 H       1  LIG1        0.0241
     44 H           0.3822   -4.9268   -0.4945 H       1  LIG1        0.0241
     45 H           2.1497   -5.0342   -0.4246 H       1  LIG1        0.0241
     46 H           2.7086   -2.1354    2.7614 H       1  LIG1        0.0658
     47 H           4.3175   -0.8583    3.6600 H       1  LIG1        0.2923
     48 H           6.3557   -0.0179    1.5122 H       1  LIG1        0.2923
     49 H           5.0478   -1.2564   -1.5347 H       1  LIG1        0.0655
     50 H           2.9726   -2.5374   -1.5454 H       1  LIG1        0.0622
     51 H           2.0285   -4.7876    2.1173 H       1  LIG1        0.0575
     52 H          -0.5906   -3.3363    2.8244 H       1  LIG1        0.0532
     53 H           0.3259   -4.6125    3.7834 H       1  LIG1        0.0532
@<TRIPOS>BOND
     1     1     2    1
     2     2     3    1
     3     2     4    2
     4     4     5    1
     5     5     6    1
     6     6     7    1
     7     7     8    1
     8     7     9    2
     9     9    10    1
    10    10    11    1
    11    11    12    1
    12    12    13    1
    13    12    14    1
    14    14    15   ar
    15    15    16   ar
    16    16    17    1
    17    16    18   ar
    18    18    19    1
    19    18    20   ar
    20    20    21   ar
    21    14    21   ar
    22    12    22    1
    23    22    23    2
    24     1    24    1
    25     1    25    1
    26     1    26    1
    27     3    27    1
    28     3    28    1
    29     3    29    1
    30     4    30    1
    31     5    31    1
    32     5    32    1
    33     6    33    1
    34     6    34    1
    35     8    35    1
    36     8    36    1
    37     8    37    1
    38     9    38    1
    39    10    39    1
    40    10    40    1
    41    11    41    1
    42    11    42    1
    43    13    43    1
    44    13    44    1
    45    13    45    1
    46    15    46    1
    47    17    47    1
    48    19    48    1
    49    20    49    1
    50    21    50    1
    51    22    51    1
    52    23    52    1
    53    23    53    1
