@<TRIPOS>MOLECULE
NuBBE_260
 47 49 0 0 0
SMALL
GASTEIGER

@<TRIPOS>ATOM
      1 O          -3.3293    1.1141    7.3357 O.3     1  LIG1       -0.3950
      2 C          -3.4240   -0.1320    6.6619 C.3     1  LIG1        0.0445
      3 C          -3.0027    0.0268    5.2057 C.3     1  LIG1       -0.0257
      4 C          -1.5466    0.4835    5.0756 C.3     1  LIG1       -0.0255
      5 C          -1.1153    0.6234    3.6321 C.ar    1  LIG1       -0.0430
      6 C          -1.2625    1.8566    2.9756 C.ar    1  LIG1       -0.0131
      7 C          -0.8831    2.0362    1.6378 C.ar    1  LIG1        0.1630
      8 O          -1.0876    3.3049    1.1208 O.3     1  LIG1       -0.4914
      9 C          -0.7133    3.4891   -0.2400 C.3     1  LIG1        0.0790
     10 C          -0.3505    0.9135    0.9922 C.ar    1  LIG1        0.1771
     11 O           0.0691    0.8475   -0.2992 O.2     1  LIG1       -0.4511
     12 C           0.5081   -0.4184   -0.5474 C.ar    1  LIG1        0.1365
     13 C           0.9692   -0.6387   -1.9130 C.ar    1  LIG1        0.0210
     14 C           1.9476   -1.5863   -2.2246 C.ar    1  LIG1       -0.0056
     15 C           2.4107   -1.7552   -3.5449 C.ar    1  LIG1        0.1622
     16 O           3.3754   -2.7303   -3.6368 O.3     1  LIG1       -0.4914
     17 C           3.9221   -3.0317   -4.9105 C.3     1  LIG1        0.0790
     18 C           1.8828   -0.9571   -4.5801 C.ar    1  LIG1        0.1615
     19 O           2.3760   -1.1111   -5.8474 O.3     1  LIG1       -0.4915
     20 C           1.8159   -0.3320   -6.8958 C.3     1  LIG1        0.0790
     21 C           0.8847   -0.0278   -4.2671 C.ar    1  LIG1       -0.0156
     22 C           0.4382    0.1306   -2.9549 C.ar    1  LIG1       -0.0474
     23 C           0.3926   -1.1751    0.6012 C.ar    1  LIG1       -0.0080
     24 C          -0.1813   -0.3277    1.5970 C.ar    1  LIG1        0.0247
     25 C          -0.5773   -0.4804    2.9401 C.ar    1  LIG1       -0.0475
     26 H          -3.6411    0.9734    8.2470 H       1  LIG1        0.2094
     27 H          -4.4621   -0.4748    6.7170 H       1  LIG1        0.0557
     28 H          -2.7874   -0.8592    7.1766 H       1  LIG1        0.0557
     29 H          -3.6555    0.7640    4.7203 H       1  LIG1        0.0290
     30 H          -3.1466   -0.9271    4.6853 H       1  LIG1        0.0290
     31 H          -0.8826   -0.2313    5.5803 H       1  LIG1        0.0314
     32 H          -1.3977    1.4424    5.5877 H       1  LIG1        0.0314
     33 H          -1.6812    2.7073    3.5123 H       1  LIG1        0.0658
     34 H          -0.9637    4.5167   -0.5208 H       1  LIG1        0.0660
     35 H          -1.2810    2.8273   -0.9026 H       1  LIG1        0.0660
     36 H           0.3667    3.3664   -0.3739 H       1  LIG1        0.0660
     37 H           2.3874   -2.1964   -1.4382 H       1  LIG1        0.0662
     38 H           4.5143   -2.1950   -5.2918 H       1  LIG1        0.0660
     39 H           3.1491   -3.3482   -5.6178 H       1  LIG1        0.0660
     40 H           4.6035   -3.8813   -4.7890 H       1  LIG1        0.0660
     41 H           2.3535   -0.5810   -7.8157 H       1  LIG1        0.0660
     42 H           1.9520    0.7382   -6.7143 H       1  LIG1        0.0660
     43 H           0.7610   -0.5818   -7.0481 H       1  LIG1        0.0660
     44 H           0.4324    0.6068   -5.0217 H       1  LIG1        0.0655
     45 H          -0.3337    0.8684   -2.7506 H       1  LIG1        0.0626
     46 H           0.6592   -2.2165    0.7085 H       1  LIG1        0.0661
     47 H          -0.4653   -1.4407    3.4355 H       1  LIG1        0.0627
@<TRIPOS>BOND
     1     1     2    1
     2     2     3    1
     3     3     4    1
     4     4     5    1
     5     5     6   ar
     6     6     7   ar
     7     7     8    1
     8     8     9    1
     9     7    10   ar
    10    10    11   ar
    11    11    12   ar
    12    12    13    1
    13    13    14   ar
    14    14    15   ar
    15    15    16    1
    16    16    17    1
    17    15    18   ar
    18    18    19    1
    19    19    20    1
    20    18    21   ar
    21    21    22   ar
    22    13    22   ar
    23    12    23   ar
    24    10    24   ar
    25    23    24   ar
    26    24    25   ar
    27     5    25   ar
    28     1    26    1
    29     2    27    1
    30     2    28    1
    31     3    29    1
    32     3    30    1
    33     4    31    1
    34     4    32    1
    35     6    33    1
    36     9    34    1
    37     9    35    1
    38     9    36    1
    39    14    37    1
    40    17    38    1
    41    17    39    1
    42    17    40    1
    43    20    41    1
    44    20    42    1
    45    20    43    1
    46    21    44    1
    47    22    45    1
    48    23    46    1
    49    25    47    1
