REMARK  Name = NuBBE_1751
REMARK  4 active torsions:
REMARK  status: ('A' for Active; 'I' for Inactive)
REMARK    1  A    between atoms: C_1  and  C_2
REMARK    2  A    between atoms: C_1  and  C_3
REMARK    3  A    between atoms: C_1  and  C_4
REMARK    4  A    between atoms: C_7  and  C_10
REMARK                            x       y       z     vdW  Elec       q    Type
REMARK                         _______ _______ _______ _____ _____    ______ ____
ROOT
ATOM      1  C   LIG A   1      -0.168  -0.066   0.550  0.00  0.00    +0.018 C 
ATOM      2  C   LIG A   1       0.210   1.262  -0.167  0.00  0.00    +0.035 C 
ATOM      3  C   LIG A   1       1.401   1.183  -1.081  0.00  0.00    -0.023 C 
ATOM      4  C   LIG A   1       1.853   0.019  -1.574  0.00  0.00    -0.055 C 
ATOM      5  C   LIG A   1       1.181  -1.217  -1.230  0.00  0.00    -0.001 C 
ATOM      6  C   LIG A   1       0.257  -1.278  -0.260  0.00  0.00    -0.023 C 
ATOM      7  C   LIG A   1       3.023  -0.075  -2.506  0.00  0.00    +0.043 C 
ENDROOT
BRANCH   1   8
ATOM      8  C   LIG A   1      -1.677  -0.084   0.947  0.00  0.00    -0.010 C 
ATOM      9  C   LIG A   1      -2.056  -1.323   1.771  0.00  0.00    +0.008 C 
ATOM     10  C   LIG A   1      -2.072   1.163   1.754  0.00  0.00    +0.008 C 
ENDBRANCH   1   8
TORSDOF 1
