REMARK  Name = NuBBE_853
REMARK  8 active torsions:
REMARK  status: ('A' for Active; 'I' for Inactive)
REMARK    1  A    between atoms: C_3  and  O_4
REMARK    2  A    between atoms: C_13  and  C_14
REMARK    3  A    between atoms: C_18  and  C_20
REMARK    4  A    between atoms: C_20  and  C_21
REMARK    5  A    between atoms: C_22  and  C_23
REMARK    6  A    between atoms: C_23  and  C_24
REMARK    7  A    between atoms: C_24  and  C_26
REMARK    8  A    between atoms: C_26  and  C_27
REMARK                            x       y       z     vdW  Elec       q    Type
REMARK                         _______ _______ _______ _____ _____    ______ ____
ROOT
ATOM      1  O   LIG A   1      -0.389   3.710   1.193  0.00  0.00    -0.289 OA
ATOM      2  C   LIG A   1       0.780   3.379   1.194  0.00  0.00    +0.196 C 
ATOM      3  C   LIG A   1       1.845   4.157   1.991  0.00  0.00    +0.154 C 
ATOM      4  C   LIG A   1       3.104   4.247   1.161  0.00  0.00    +0.084 C 
ATOM      5  C   LIG A   1       3.540   2.789   1.252  0.00  0.00    +0.187 C 
ATOM      6  O   LIG A   1       3.395   2.469   2.654  0.00  0.00    -0.365 OA
ATOM      7  C   LIG A   1       2.332   3.307   3.169  0.00  0.00    +0.203 C 
ATOM      8  C   LIG A   1       1.258   2.173   0.435  0.00  0.00    +0.038 C 
ATOM      9  C   LIG A   1       2.578   1.882   0.502  0.00  0.00    +0.134 C 
ATOM     10  O   LIG A   1       3.155   0.757  -0.097  0.00  0.00    -0.487 OA
ATOM     11  C   LIG A   1       2.267   0.075  -1.003  0.00  0.00    +0.111 C 
ATOM     12  C   LIG A   1       2.353   0.810  -2.357  0.00  0.00    +0.056 C 
ATOM     13  C   LIG A   1       0.890  -0.078  -0.328  0.00  0.00    +0.044 C 
ATOM     14  C   LIG A   1       0.233   1.285  -0.217  0.00  0.00    +0.050 C 
ATOM     15  C   LIG A   1       0.141  -1.230  -1.030  0.00  0.00    +0.022 C 
ATOM     16  C   LIG A   1       1.286  -1.957  -1.799  0.00  0.00    +0.012 C 
ATOM     17  C   LIG A   1       2.603  -1.402  -1.222  0.00  0.00    +0.049 C 
ENDROOT
BRANCH  15  18
ATOM     18  C   LIG A   1      -0.589  -2.109  -0.002  0.00  0.00    -0.073 C 
ATOM     19  C   LIG A   1       0.204  -3.243   0.621  0.00  0.00    +0.039 C 
ATOM     20  C   LIG A   1      -1.853  -1.941   0.445  0.00  0.00    -0.026 C 
BRANCH  20  21
ATOM     21  C   LIG A   1      -2.929  -0.955   0.059  0.00  0.00    +0.051 C 
BRANCH  21  22
ATOM     22  C   LIG A   1      -4.360  -1.545   0.199  0.00  0.00    +0.109 C 
ATOM     23 CL   LIG A   1      -5.572  -0.264  -0.132  0.00  0.00    -0.117 Cl
BRANCH  22  24
ATOM     24  C   LIG A   1      -4.623  -2.804  -0.622  0.00  0.00    -0.062 C 
ATOM     25  C   LIG A   1      -5.072  -2.682  -2.053  0.00  0.00    +0.040 C 
ATOM     26  C   LIG A   1      -4.434  -4.027  -0.088  0.00  0.00    +0.009 C 
ENDBRANCH  22  24
ENDBRANCH  21  22
ENDBRANCH  20  21
ENDBRANCH  15  18
BRANCH   3  27
ATOM     27  O   LIG A   1       1.384   5.430   2.405  0.00  0.00    -0.378 OA
ATOM     28  H   LIG A   1       0.425   5.336   2.571  0.00  0.00    +0.211 HD
ENDBRANCH   3  27
TORSDOF 5
