REMARK  Name = NuBBE_1716
REMARK  4 active torsions:
REMARK  status: ('A' for Active; 'I' for Inactive)
REMARK    1  A    between atoms: C_4  and  O_5
REMARK    2  A    between atoms: O_5  and  C_6
REMARK    3  A    between atoms: C_7  and  O_8
REMARK    4  A    between atoms: C_17  and  O_18
REMARK                            x       y       z     vdW  Elec       q    Type
REMARK                         _______ _______ _______ _____ _____    ______ ____
ROOT
ATOM      1  O   LIG A   1      -2.043  -0.295   0.195  0.00  0.00    -0.286 OA
ATOM      2  C   LIG A   1      -0.823  -0.383   0.167  0.00  0.00    +0.207 A 
ATOM      3  C   LIG A   1       0.025   0.831   0.167  0.00  0.00    +0.110 A 
ATOM      4  C   LIG A   1      -0.486   2.130   0.305  0.00  0.00    +0.176 A 
ATOM      5  C   LIG A   1       0.392   3.220   0.356  0.00  0.00    +0.159 A 
ATOM      6  C   LIG A   1       1.760   3.051   0.208  0.00  0.00    +0.053 A 
ATOM      7  C   LIG A   1       2.267   1.765   0.039  0.00  0.00    +0.051 A 
ATOM      8  C   LIG A   1       1.405   0.660   0.031  0.00  0.00    +0.143 A 
ATOM      9  O   LIG A   1       2.021  -0.556  -0.116  0.00  0.00    -0.454 OA
ATOM     10  C   LIG A   1       1.255  -1.690  -0.036  0.00  0.00    +0.143 A 
ATOM     11  C   LIG A   1       1.965  -2.893  -0.113  0.00  0.00    +0.047 A 
ATOM     12  C   LIG A   1       1.293  -4.110  -0.041  0.00  0.00    +0.007 A 
ATOM     13  C   LIG A   1      -0.092  -4.128   0.108  0.00  0.00    +0.046 A 
ATOM     14  C   LIG A   1      -0.803  -2.925   0.181  0.00  0.00    +0.131 A 
ATOM     15  C   LIG A   1      -0.133  -1.694   0.107  0.00  0.00    +0.106 A 
ENDROOT
BRANCH   4  16
ATOM     16  O   LIG A   1      -1.817   2.411   0.481  0.00  0.00    -0.491 OA
ATOM     17  C   LIG A   1      -2.481   2.502  -0.784  0.00  0.00    +0.277 C 
ENDBRANCH   4  16
BRANCH   5  18
ATOM     18  O   LIG A   1      -0.083   4.484   0.567  0.00  0.00    -0.503 OA
ATOM     19  H   LIG A   1      -1.028   4.375   0.793  0.00  0.00    +0.292 HD
ENDBRANCH   5  18
BRANCH  14  20
ATOM     20  O   LIG A   1      -2.159  -2.982   0.333  0.00  0.00    -0.506 OA
ATOM     21  H   LIG A   1      -2.461  -3.903   0.365  0.00  0.00    +0.292 HD
ENDBRANCH  14  20
TORSDOF 3
