REMARK  Name = NuBBE_315
REMARK  16 active torsions:
REMARK  status: ('A' for Active; 'I' for Inactive)
REMARK    1  A    between atoms: C_1  and  C_2
REMARK    2  A    between atoms: C_2  and  C_3
REMARK    3  A    between atoms: C_4  and  O_6
REMARK    4  A    between atoms: O_6  and  C_7
REMARK    5  A    between atoms: C_10  and  C_12
REMARK    6  A    between atoms: C_13  and  O_15
REMARK    7  A    between atoms: C_16  and  O_18
REMARK    8  A    between atoms: C_19  and  O_21
REMARK    9  A    between atoms: C_24  and  C_25
REMARK   10  A    between atoms: C_29  and  C_30
REMARK   11  A    between atoms: C_35  and  C_36
REMARK   12  A    between atoms: C_36  and  O_37
REMARK   13  A    between atoms: C_41  and  C_42
REMARK   14  A    between atoms: C_42  and  O_43
REMARK   15  A    between atoms: C_47  and  C_50
REMARK   16  A    between atoms: C_47  and  C_51
REMARK                            x       y       z     vdW  Elec       q    Type
REMARK                         _______ _______ _______ _____ _____    ______ ____
ROOT
ATOM      1  C   LIG A   1      -3.130  -1.323  -3.068  0.00  0.00    +0.014 C 
ATOM      2  C   LIG A   1      -2.100  -1.691  -1.966  0.00  0.00    -0.005 C 
ATOM      3  C   LIG A   1      -2.942  -2.346  -0.851  0.00  0.00    +0.014 C 
ATOM      4  C   LIG A   1      -1.061  -2.716  -2.564  0.00  0.00    +0.127 C 
ATOM      5  C   LIG A   1       0.062  -2.990  -1.558  0.00  0.00    +0.033 C 
ATOM      6  C   LIG A   1       0.817  -1.713  -1.182  0.00  0.00    +0.010 C 
ATOM      7  C   LIG A   1      -0.090  -0.611  -0.554  0.00  0.00    -0.025 C 
ATOM      8  C   LIG A   1      -0.464  -1.110   0.857  0.00  0.00    +0.012 C 
ATOM      9  C   LIG A   1      -1.328  -0.393  -1.506  0.00  0.00    +0.003 C 
ATOM     10  C   LIG A   1      -2.220   0.745  -0.975  0.00  0.00    +0.005 C 
ATOM     11  C   LIG A   1      -1.452   2.070  -0.888  0.00  0.00    +0.009 C 
ATOM     12  C   LIG A   1      -0.123   2.063  -0.072  0.00  0.00    -0.009 C 
ATOM     13  C   LIG A   1       0.668   3.295  -0.647  0.00  0.00    +0.013 C 
ATOM     14  C   LIG A   1       0.696   0.776  -0.510  0.00  0.00    +0.006 C 
ATOM     15  C   LIG A   1       2.055   0.742   0.200  0.00  0.00    +0.031 C 
ATOM     16  C   LIG A   1       1.968   0.989   1.661  0.00  0.00    -0.026 C 
ATOM     17  C   LIG A   1       0.953   1.598   2.304  0.00  0.00    -0.052 C 
ATOM     18  C   LIG A   1      -0.257   2.241   1.559  0.00  0.00    +0.094 C 
ATOM     19  C   LIG A   1      -0.236   3.748   2.018  0.00  0.00    +0.024 C 
ATOM     20  C   LIG A   1      -0.238   3.958   3.550  0.00  0.00    +0.020 C 
ATOM     21  C   LIG A   1       0.921   3.233   4.278  0.00  0.00    +0.074 C 
ATOM     22  C   LIG A   1       0.975   1.751   3.833  0.00  0.00    +0.033 C 
ATOM     23  C   LIG A   1       2.081   0.974   4.590  0.00  0.00    +0.015 C 
ATOM     24  C   LIG A   1       1.931   1.022   6.128  0.00  0.00    -0.034 C 
ATOM     25  C   LIG A   1       1.729   2.476   6.605  0.00  0.00    +0.007 C 
ATOM     26  C   LIG A   1       0.667   3.250   5.811  0.00  0.00    +0.019 C 
ATOM     27  C   LIG A   1       0.756   0.136   6.590  0.00  0.00    +0.011 C 
ATOM     28  C   LIG A   1       3.218   0.455   6.760  0.00  0.00    +0.011 C 
ENDROOT
BRANCH  18  29
ATOM     29  C   LIG A   1      -1.617   1.708   2.111  0.00  0.00    +0.316 C 
ATOM     30  O   LIG A   1      -1.810   0.871   2.979  0.00  0.00    -0.250 OA
BRANCH  29  31
ATOM     31  O   LIG A   1      -2.702   2.337   1.611  0.00  0.00    -0.480 OA
ATOM     32  H   LIG A   1      -3.455   1.863   2.023  0.00  0.00    +0.295 HD
ENDBRANCH  29  31
ENDBRANCH  18  29
BRANCH  21  33
ATOM     33  C   LIG A   1       2.228   3.976   3.941  0.00  0.00    +0.311 C 
ATOM     34  O   LIG A   1       2.971   3.779   3.002  0.00  0.00    -0.250 OA
BRANCH  33  35
ATOM     35  O   LIG A   1       2.507   4.992   4.785  0.00  0.00    -0.480 OA
ATOM     36  H   LIG A   1       3.355   5.345   4.441  0.00  0.00    +0.295 HD
ENDBRANCH  33  35
ENDBRANCH  21  33
BRANCH   4  37
ATOM     37  O   LIG A   1      -0.560  -2.188  -3.815  0.00  0.00    -0.345 OA
BRANCH  37  38
ATOM     38  C   LIG A   1       0.409  -3.000  -4.493  0.00  0.00    +0.282 C 
ATOM     39  O   LIG A   1      -0.083  -4.294  -4.845  0.00  0.00    -0.343 OA
ATOM     40  C   LIG A   1      -0.998  -4.382  -5.944  0.00  0.00    +0.149 C 
ATOM     41  C   LIG A   1      -2.427  -4.079  -5.515  0.00  0.00    +0.040 C 
ATOM     42  C   LIG A   1      -0.556  -3.578  -7.179  0.00  0.00    +0.174 C 
ATOM     43  C   LIG A   1      -0.076  -2.162  -6.825  0.00  0.00    +0.179 C 
ATOM     44  C   LIG A   1       0.973  -2.225  -5.708  0.00  0.00    +0.201 C 
BRANCH  42  45
ATOM     45  O   LIG A   1       0.517  -4.289  -7.824  0.00  0.00    -0.387 OA
ATOM     46  H   LIG A   1       1.216  -4.416  -7.148  0.00  0.00    +0.210 HD
ENDBRANCH  42  45
BRANCH  43  47
ATOM     47  O   LIG A   1      -1.161  -1.298  -6.487  0.00  0.00    -0.386 OA
ATOM     48  H   LIG A   1      -1.266  -1.305  -5.513  0.00  0.00    +0.210 HD
ENDBRANCH  43  47
BRANCH  44  49
ATOM     49  O   LIG A   1       2.168  -2.868  -6.186  0.00  0.00    -0.384 OA
ATOM     50  H   LIG A   1       2.460  -2.385  -6.982  0.00  0.00    +0.210 HD
ENDBRANCH  44  49
ENDBRANCH  37  38
ENDBRANCH   4  37
TORSDOF 9
