REMARK  Name = NuBBE_1273
REMARK  5 active torsions:
REMARK  status: ('A' for Active; 'I' for Inactive)
REMARK    1  A    between atoms: C_7  and  C_11
REMARK    2  A    between atoms: C_8  and  O_9
REMARK    3  A    between atoms: C_11  and  C_12
REMARK    4  A    between atoms: C_13  and  C_14
REMARK    5  A    between atoms: C_13  and  C_15
REMARK                            x       y       z     vdW  Elec       q    Type
REMARK                         _______ _______ _______ _____ _____    ______ ____
ROOT
ATOM      1  O   LIG A   1      -5.755   2.575   0.634  0.00  0.00    -0.245 OA
ATOM      2  C   LIG A   1      -4.559   2.306   0.663  0.00  0.00    +0.337 A 
ATOM      3  C   LIG A   1      -3.549   3.379   0.671  0.00  0.00    +0.092 A 
ATOM      4  C   LIG A   1      -2.236   3.129   0.694  0.00  0.00    +0.018 A 
ATOM      5  C   LIG A   1      -1.772   1.752   0.717  0.00  0.00    +0.018 A 
ATOM      6  C   LIG A   1      -0.412   1.429   0.746  0.00  0.00    +0.019 A 
ATOM      7  C   LIG A   1       0.012   0.085   0.779  0.00  0.00    -0.001 A 
ATOM      8  C   LIG A   1      -0.965  -0.922   0.758  0.00  0.00    +0.124 A 
ATOM      9  C   LIG A   1      -2.323  -0.612   0.742  0.00  0.00    +0.092 A 
ATOM     10  C   LIG A   1      -2.709   0.724   0.719  0.00  0.00    +0.142 A 
ATOM     11  O   LIG A   1      -4.090   1.000   0.690  0.00  0.00    -0.422 OA
ENDROOT
BRANCH   8  12
ATOM     12  O   LIG A   1      -0.654  -2.252   0.749  0.00  0.00    -0.506 OA
ATOM     13  H   LIG A   1       0.254  -2.356   0.418  0.00  0.00    +0.292 HD
ENDBRANCH   8  12
BRANCH   7  14
ATOM     14  C   LIG A   1       1.495  -0.211   0.816  0.00  0.00    +0.066 C 
BRANCH  14  15
ATOM     15  C   LIG A   1       2.064  -0.363  -0.569  0.00  0.00    -0.023 C 
ATOM     16  C   LIG A   1       2.681  -1.427  -1.119  0.00  0.00    -0.079 C 
ATOM     17  C   LIG A   1       2.964  -2.733  -0.430  0.00  0.00    +0.038 C 
ATOM     18  C   LIG A   1       3.151  -1.374  -2.551  0.00  0.00    +0.038 C 
ENDBRANCH  14  15
ENDBRANCH   7  14
TORSDOF 3
