@<TRIPOS>MOLECULE
NuBBE_1850
 45 48 0 0 0
SMALL
GASTEIGER

@<TRIPOS>ATOM
      1 C          -3.0072    0.8995    0.0317 C.3     1  LIG1       -0.0546
      2 C          -1.5014    0.8198    0.2745 C.3     1  LIG1        0.0258
      3 H          -1.3238    0.6689    1.3464 H       1  LIG1        0.0387
      4 C          -0.8893   -0.2698   -0.5358 C.2     1  LIG1        0.0003
      5 C          -0.9941   -1.5936   -0.3858 C.2     1  LIG1       -0.0378
      6 C          -0.2489   -2.5609   -1.2847 C.3     1  LIG1        0.1528
      7 C           0.6711   -1.8462   -2.3405 C.2     1  LIG1        0.1953
      8 O           1.4266   -2.4544   -3.1036 O.2     1  LIG1       -0.2891
      9 C           0.6488   -0.3610   -2.4335 C.2     1  LIG1        0.0261
     10 C          -0.1103    0.3270   -1.5713 C.2     1  LIG1        0.1282
     11 O          -0.1644    1.7023   -1.5367 O.2     1  LIG1       -0.4832
     12 C          -0.7566    2.0587   -0.2588 C.3     1  LIG1        0.1319
     13 H          -1.4562    2.8780   -0.4704 H       1  LIG1        0.0790
     14 C           0.3103    2.5944    0.6906 C.ar    1  LIG1       -0.0031
     15 C           1.6432    2.1525    0.6109 C.ar    1  LIG1       -0.0095
     16 C           2.5714    2.6883    1.4751 C.ar    1  LIG1        0.1666
     17 C           2.2299    3.6311    2.4111 C.ar    1  LIG1        0.1662
     18 C           0.9349    4.0827    2.5405 C.ar    1  LIG1       -0.0158
     19 C          -0.0333    3.5547    1.6748 C.ar    1  LIG1       -0.0514
     20 O           3.2970    4.0322    3.1519 O.3     1  LIG1       -0.4526
     21 C           4.3488    3.2335    2.5679 C.3     1  LIG1        0.2332
     22 O           3.8922    2.3700    1.5080 O.3     1  LIG1       -0.4526
     23 C          -1.2766   -3.3815   -2.1206 C.3     1  LIG1        0.0052
     24 C          -2.2289   -4.2322   -1.3094 C.2     1  LIG1       -0.0876
     25 C          -3.5624   -4.1116   -1.3362 C.2     1  LIG1       -0.1025
     26 O           0.4910   -3.4733   -0.4568 O.3     1  LIG1       -0.3643
     27 C           1.4808   -2.8666    0.3699 C.3     1  LIG1        0.0382
     28 H          -3.5068   -0.0127    0.3781 H       1  LIG1        0.0237
     29 H          -3.2428    1.0245   -1.0314 H       1  LIG1        0.0237
     30 H          -3.4393    1.7439    0.5776 H       1  LIG1        0.0237
     31 H          -1.5976   -2.0172    0.4105 H       1  LIG1        0.0609
     32 H           1.2666    0.1122   -3.1776 H       1  LIG1        0.0690
     33 H           1.9639    1.4182   -0.1184 H       1  LIG1        0.0659
     34 H           0.6802    4.8271    3.2869 H       1  LIG1        0.0655
     35 H          -1.0596    3.9078    1.7646 H       1  LIG1        0.0623
     36 H           4.7957    2.6137    3.3535 H       1  LIG1        0.1166
     37 H           5.1183    3.9025    2.1656 H       1  LIG1        0.1166
     38 H          -0.7409   -4.0612   -2.7968 H       1  LIG1        0.0343
     39 H          -1.8483   -2.6988   -2.7657 H       1  LIG1        0.0343
     40 H          -1.7743   -4.9915   -0.6743 H       1  LIG1        0.0567
     41 H          -4.0583   -3.3743   -1.9594 H       1  LIG1        0.0532
     42 H          -4.1894   -4.7593   -0.7305 H       1  LIG1        0.0532
     43 H           1.9480   -3.6513    0.9709 H       1  LIG1        0.0524
     44 H           1.0367   -2.1471    1.0650 H       1  LIG1        0.0524
     45 H           2.2554   -2.3794   -0.2280 H       1  LIG1        0.0524
@<TRIPOS>BOND
     1     1     2    1
     2     2     3    1
     3     2     4    1
     4     4     5    2
     5     5     6    1
     6     6     7    1
     7     7     8    2
     8     7     9    1
     9     9    10    2
    10     4    10    1
    11    10    11    1
    12    11    12    1
    13     2    12    1
    14    14    15   ar
    15    15    16   ar
    16    16    17   ar
    17    17    18   ar
    18    18    19   ar
    19    14    19   ar
    20    17    20    1
    21    20    21    1
    22    21    22    1
    23    16    22    1
    24     6    23    1
    25    23    24    1
    26    24    25    2
    27     6    26    1
    28    26    27    1
    29    12    14    1
    30    12    13    1
    31     1    28    1
    32     1    29    1
    33     1    30    1
    34     5    31    1
    35     9    32    1
    36    15    33    1
    37    18    34    1
    38    19    35    1
    39    21    36    1
    40    21    37    1
    41    23    38    1
    42    23    39    1
    43    24    40    1
    44    25    41    1
    45    25    42    1
    46    27    43    1
    47    27    44    1
    48    27    45    1
