REMARK  Name = NuBBE_2379
REMARK  9 active torsions:
REMARK  status: ('A' for Active; 'I' for Inactive)
REMARK    1  A    between atoms: C_1  and  C_26
REMARK    2  A    between atoms: C_1  and  C_27
REMARK    3  A    between atoms: C_11  and  O_20
REMARK    4  A    between atoms: C_12  and  O_18
REMARK    5  A    between atoms: C_13  and  C_14
REMARK    6  A    between atoms: C_14  and  C_15
REMARK    7  A    between atoms: C_14  and  C_16
REMARK    8  A    between atoms: O_18  and  C_19
REMARK    9  A    between atoms: O_20  and  C_21
REMARK                            x       y       z     vdW  Elec       q    Type
REMARK                         _______ _______ _______ _____ _____    ______ ____
ROOT
ATOM      1  C   LIG A   1      -1.518   2.524  -2.332  0.00  0.00    -0.031 C 
ATOM      2  C   LIG A   1      -1.110   1.589  -1.116  0.00  0.00    +0.020 C 
ATOM      3  C   LIG A   1      -0.020   0.480  -1.444  0.00  0.00    +0.100 C 
ATOM      4  C   LIG A   1       1.275   1.272  -1.748  0.00  0.00    +0.319 C 
ATOM      5  O   LIG A   1       1.980   1.163  -2.775  0.00  0.00    -0.250 OA
ATOM      6  O   LIG A   1       1.588   2.157  -0.750  0.00  0.00    -0.456 OA
ATOM      7  C   LIG A   1       0.787   2.026   0.457  0.00  0.00    +0.207 C 
ATOM      8  C   LIG A   1       0.803   0.576   0.850  0.00  0.00    +0.001 A 
ATOM      9  C   LIG A   1       0.321  -0.315  -0.131  0.00  0.00    +0.022 A 
ATOM     10  C   LIG A   1       0.311  -1.691   0.171  0.00  0.00    +0.166 A 
ATOM     11  C   LIG A   1       0.752  -2.125   1.464  0.00  0.00    +0.165 A 
ATOM     12  C   LIG A   1       1.245  -1.200   2.428  0.00  0.00    +0.001 A 
ATOM     13  C   LIG A   1       1.239   0.157   2.104  0.00  0.00    +0.015 A 
ATOM     14  C   LIG A   1      -0.669   2.365   0.154  0.00  0.00    +0.055 C 
ATOM     15  C   LIG A   1      -0.472  -0.349  -2.661  0.00  0.00    +0.023 C 
ATOM     16  C   LIG A   1      -1.175   0.436  -3.782  0.00  0.00    +0.002 C 
ATOM     17  C   LIG A   1      -1.055   1.946  -3.688  0.00  0.00    +0.007 C 
ATOM     18  C   LIG A   1      -3.062   2.649  -2.334  0.00  0.00    +0.011 C 
ATOM     19  C   LIG A   1      -0.974   3.974  -2.272  0.00  0.00    +0.011 C 
ENDROOT
BRANCH  12  20
ATOM     20  C   LIG A   1       1.759  -1.619   3.808  0.00  0.00    +0.017 C 
ATOM     21  C   LIG A   1       0.638  -1.565   4.850  0.00  0.00    +0.012 C 
ATOM     22  C   LIG A   1       2.934  -0.764   4.324  0.00  0.00    +0.012 C 
ENDBRANCH  12  20
BRANCH  11  23
ATOM     23  O   LIG A   1       0.871  -3.455   1.807  0.00  0.00    -0.491 OA
ATOM     24  C   LIG A   1      -0.358  -4.169   1.908  0.00  0.00    +0.277 C 
ENDBRANCH  11  23
BRANCH  10  25
ATOM     25  O   LIG A   1      -0.215  -2.536  -0.767  0.00  0.00    -0.491 OA
ATOM     26  C   LIG A   1       0.579  -3.659  -1.149  0.00  0.00    +0.277 C 
ENDBRANCH  10  25
TORSDOF 3
