REMARK  Name = NuBBE_264
REMARK  6 active torsions:
REMARK  status: ('A' for Active; 'I' for Inactive)
REMARK    1  A    between atoms: C_2  and  C_3
REMARK    2  A    between atoms: C_3  and  C_4
REMARK    3  A    between atoms: C_7  and  C_9
REMARK    4  A    between atoms: C_18  and  C_20
REMARK    5  A    between atoms: C_23  and  O_24
REMARK    6  A    between atoms: O_24  and  C_25
REMARK                            x       y       z     vdW  Elec       q    Type
REMARK                         _______ _______ _______ _____ _____    ______ ____
ROOT
ATOM      1  C   LIG A   1      -1.354   0.194  -0.962  0.00  0.00    +0.059 C 
ATOM      2  C   LIG A   1      -0.101   0.713  -1.621  0.00  0.00    +0.113 C 
ATOM      3  O   LIG A   1       0.820  -0.262  -1.943  0.00  0.00    -0.487 OA
ATOM      4  C   LIG A   1       0.555  -1.368  -1.050  0.00  0.00    +0.207 C 
ATOM      5  C   LIG A   1      -0.908  -1.238  -0.580  0.00  0.00    +0.049 C 
ATOM      6  C   LIG A   1      -1.249  -1.726   0.822  0.00  0.00    +0.013 C 
ATOM      7  C   LIG A   1       0.192   2.013  -1.745  0.00  0.00    +0.096 C 
ATOM      8  C   LIG A   1      -0.724   2.999  -1.126  0.00  0.00    +0.223 C 
ATOM      9  C   LIG A   1      -1.533   2.493   0.049  0.00  0.00    +0.164 C 
ATOM     10  C   LIG A   1      -1.773   1.170   0.127  0.00  0.00    +0.038 C 
ATOM     11  O   LIG A   1      -0.755   4.146  -1.539  0.00  0.00    -0.284 OA
ENDROOT
BRANCH   4  12
ATOM     12  C   LIG A   1       1.658  -1.515  -0.013  0.00  0.00    -0.003 A 
ATOM     13  C   LIG A   1       2.000  -2.810   0.460  0.00  0.00    +0.011 A 
ATOM     14  C   LIG A   1       3.084  -3.010   1.325  0.00  0.00    +0.050 A 
ATOM     15  C   LIG A   1       3.809  -1.905   1.707  0.00  0.00    +0.166 A 
ATOM     16  O   LIG A   1       4.910  -1.908   2.505  0.00  0.00    -0.453 OA
ATOM     17  C   LIG A   1       5.236  -0.502   2.522  0.00  0.00    +0.466 C 
ATOM     18  O   LIG A   1       4.319   0.309   1.760  0.00  0.00    -0.453 OA
ATOM     19  C   LIG A   1       3.474  -0.643   1.280  0.00  0.00    +0.167 A 
ATOM     20  C   LIG A   1       2.408  -0.415   0.434  0.00  0.00    +0.056 A 
ENDBRANCH   4  12
BRANCH   9  21
ATOM     21  O   LIG A   1      -2.113   3.341   0.978  0.00  0.00    -0.492 OA
ATOM     22  C   LIG A   1      -1.366   4.514   1.291  0.00  0.00    +0.277 C 
ENDBRANCH   9  21
BRANCH   1  23
ATOM     23  C   LIG A   1      -2.499   0.119  -2.032  0.00  0.00    +0.045 C 
BRANCH  23  25
ATOM     24  C   LIG A   1      -4.431  -1.501  -1.939  0.00  0.00    +0.004 C 
ATOM     25  C   LIG A   1      -3.814  -0.399  -1.497  0.00  0.00    -0.033 C 
ENDBRANCH  23  25
ENDBRANCH   1  23
TORSDOF 4
