REMARK  Name = NuBBE_432
REMARK  14 active torsions:
REMARK  status: ('A' for Active; 'I' for Inactive)
REMARK    1  A    between atoms: C_1  and  C_2
REMARK    2  A    between atoms: C_6  and  C_41
REMARK    3  A    between atoms: C_9  and  C_40
REMARK    4  A    between atoms: C_10  and  C_39
REMARK    5  A    between atoms: C_15  and  C_16
REMARK    6  A    between atoms: C_15  and  C_37
REMARK    7  A    between atoms: C_16  and  O_17
REMARK    8  A    between atoms: C_18  and  O_36
REMARK    9  A    between atoms: C_20  and  O_35
REMARK   10  A    between atoms: C_23  and  C_34
REMARK   11  A    between atoms: C_31  and  C_32
REMARK   12  A    between atoms: C_31  and  O_33
REMARK   13  A    between atoms: C_37  and  O_38
REMARK   14  A    between atoms: C_41  and  O_42
REMARK                            x       y       z     vdW  Elec       q    Type
REMARK                         _______ _______ _______ _____ _____    ______ ____
ROOT
ATOM      1  C   LIG A   1      -5.430  -1.412   4.497  0.00  0.00    +0.010 C 
ATOM      2  C   LIG A   1      -4.595  -0.288   3.850  0.00  0.00    +0.018 C 
ATOM      3  C   LIG A   1      -5.534   0.475   2.917  0.00  0.00    +0.007 C 
ATOM      4  C   LIG A   1      -4.806   1.547   2.136  0.00  0.00    +0.019 C 
ATOM      5  C   LIG A   1      -3.667   0.980   1.272  0.00  0.00    +0.077 C 
ATOM      6  C   LIG A   1      -2.978   2.198   0.625  0.00  0.00    +0.019 C 
ATOM      7  C   LIG A   1      -1.883   1.791  -0.340  0.00  0.00    +0.012 C 
ATOM      8  C   LIG A   1      -0.830   0.793   0.224  0.00  0.00    -0.005 C 
ATOM      9  C   LIG A   1      -0.211  -0.072  -1.004  0.00  0.00    -0.019 C 
ATOM     10  C   LIG A   1       0.183   0.774  -2.249  0.00  0.00    +0.008 C 
ATOM     11  C   LIG A   1       1.623   1.229  -2.341  0.00  0.00    +0.005 C 
ATOM     12  C   LIG A   1       2.564   0.021  -2.237  0.00  0.00    +0.008 C 
ATOM     13  C   LIG A   1       4.002   0.284  -2.835  0.00  0.00    +0.049 C 
ATOM     14  C   LIG A   1       4.853  -1.008  -2.650  0.00  0.00    +0.154 C 
ATOM     15  C   LIG A   1       4.815  -1.598  -1.237  0.00  0.00    +0.144 C 
ATOM     16  C   LIG A   1       3.384  -1.863  -0.760  0.00  0.00    +0.041 C 
ATOM     17  C   LIG A   1       2.473  -0.600  -0.790  0.00  0.00    -0.022 C 
ATOM     18  C   LIG A   1       0.948  -1.045  -0.551  0.00  0.00    +0.006 C 
ATOM     19  C   LIG A   1       0.630  -1.717   0.811  0.00  0.00    +0.031 C 
ATOM     20  C   LIG A   1      -0.660  -1.324   1.495  0.00  0.00    -0.026 C 
ATOM     21  C   LIG A   1      -1.365  -0.187   1.302  0.00  0.00    -0.060 C 
ATOM     22  C   LIG A   1      -2.610   0.234   2.151  0.00  0.00    +0.064 C 
ATOM     23  C   LIG A   1      -3.262  -0.800   3.190  0.00  0.00    +0.073 C 
ATOM     24  C   LIG A   1      -2.281  -1.083   4.359  0.00  0.00    +0.042 C 
ATOM     25  C   LIG A   1       2.999   0.339   0.318  0.00  0.00    +0.012 C 
ATOM     26  C   LIG A   1      -1.355  -1.026  -1.566  0.00  0.00    +0.012 C 
ATOM     27  C   LIG A   1       0.185   1.687   0.969  0.00  0.00    +0.016 C 
ENDROOT
BRANCH  23  28
ATOM     28  O   LIG A   1      -3.518  -2.061   2.567  0.00  0.00    -0.388 OA
ATOM     29  H   LIG A   1      -4.011  -1.906   1.733  0.00  0.00    +0.210 HD
ENDBRANCH  23  28
BRANCH  15  30
ATOM     30  O   LIG A   1       5.526  -2.843  -1.244  0.00  0.00    -0.389 OA
ATOM     31  H   LIG A   1       6.338  -2.664  -1.760  0.00  0.00    +0.210 HD
ENDBRANCH  15  30
BRANCH  14  32
ATOM     32  O   LIG A   1       6.232  -0.821  -2.995  0.00  0.00    -0.389 OA
ATOM     33  H   LIG A   1       6.227  -0.405  -3.886  0.00  0.00    +0.210 HD
ENDBRANCH  14  32
BRANCH   5  34
ATOM     34  C   LIG A   1      -4.288   0.053   0.217  0.00  0.00    +0.312 C 
ATOM     35  O   LIG A   1      -4.530  -1.126   0.351  0.00  0.00    -0.250 OA
BRANCH  34  36
ATOM     36  O   LIG A   1      -4.651   0.673  -0.925  0.00  0.00    -0.480 OA
ATOM     37  H   LIG A   1      -4.987  -0.054  -1.492  0.00  0.00    +0.295 HD
ENDBRANCH  34  36
ENDBRANCH   5  34
BRANCH  13  38
ATOM     38  C   LIG A   1       3.875   0.497  -4.384  0.00  0.00    +0.167 C 
BRANCH  38  39
ATOM     39  O   LIG A   1       5.144   0.698  -5.004  0.00  0.00    -0.394 OA
ATOM     40  H   LIG A   1       5.527   1.501  -4.584  0.00  0.00    +0.209 HD
ENDBRANCH  38  39
ENDBRANCH  13  38
BRANCH  13  41
ATOM     41  C   LIG A   1       4.646   1.566  -2.241  0.00  0.00    +0.167 C 
BRANCH  41  42
ATOM     42  O   LIG A   1       5.931   1.865  -2.779  0.00  0.00    -0.394 OA
ATOM     43  H   LIG A   1       6.588   1.517  -2.143  0.00  0.00    +0.209 HD
ENDBRANCH  41  42
ENDBRANCH  13  41
TORSDOF 9
