REMARK  Name = NuBBE_2316
REMARK  11 active torsions:
REMARK  status: ('A' for Active; 'I' for Inactive)
REMARK    1  A    between atoms: C_1  and  C_30
REMARK    2  A    between atoms: C_3  and  C_4
REMARK    3  A    between atoms: C_6  and  O_13
REMARK    4  A    between atoms: O_13  and  C_14
REMARK    5  A    between atoms: C_19  and  O_20
REMARK    6  A    between atoms: O_20  and  C_21
REMARK    7  A    between atoms: C_22  and  O_26
REMARK    8  A    between atoms: C_23  and  O_24
REMARK    9  A    between atoms: O_24  and  C_25
REMARK   10  A    between atoms: O_26  and  C_27
REMARK   11  A    between atoms: C_27  and  C_28
REMARK                            x       y       z     vdW  Elec       q    Type
REMARK                         _______ _______ _______ _____ _____    ______ ____
ROOT
ATOM      1  C   LIG A   1      -2.287  -0.323   0.381  0.00  0.00    +0.065 C 
ATOM      2  C   LIG A   1      -1.941  -0.405  -1.123  0.00  0.00    +0.211 C 
ATOM      3  O   LIG A   1      -1.390   0.905  -1.446  0.00  0.00    -0.479 OA
ATOM      4  C   LIG A   1      -0.706   1.269  -0.304  0.00  0.00    +0.170 A 
ATOM      5  C   LIG A   1      -1.140   0.533   0.784  0.00  0.00    +0.008 A 
ATOM      6  C   LIG A   1      -0.520   0.634   2.005  0.00  0.00    +0.057 A 
ATOM      7  C   LIG A   1       0.517   1.556   2.185  0.00  0.00    +0.166 A 
ATOM      8  C   LIG A   1       0.920   2.373   1.086  0.00  0.00    +0.208 A 
ATOM      9  C   LIG A   1       0.320   2.195  -0.198  0.00  0.00    +0.208 A 
ATOM     10  C   LIG A   1      -2.482  -1.591   1.196  0.00  0.00    +0.016 C 
ENDROOT
BRANCH   2  11
ATOM     11  C   LIG A   1      -0.989  -1.514  -1.568  0.00  0.00    +0.000 A 
ATOM     12  C   LIG A   1      -1.371  -2.853  -1.375  0.00  0.00    +0.057 A 
ATOM     13  C   LIG A   1      -0.557  -3.935  -1.725  0.00  0.00    +0.166 A 
ATOM     14  C   LIG A   1       0.656  -3.644  -2.317  0.00  0.00    +0.207 A 
ATOM     15  C   LIG A   1       1.028  -2.343  -2.556  0.00  0.00    +0.170 A 
ATOM     16  C   LIG A   1       0.236  -1.273  -2.196  0.00  0.00    +0.057 A 
ATOM     17  O   LIG A   1       2.228  -2.237  -3.187  0.00  0.00    -0.453 OA
ATOM     18  C   LIG A   1       2.573  -3.627  -3.332  0.00  0.00    +0.467 C 
ATOM     19  O   LIG A   1       1.591  -4.524  -2.772  0.00  0.00    -0.449 OA
BRANCH  13  20
ATOM     20  O   LIG A   1      -0.903  -5.236  -1.491  0.00  0.00    -0.491 OA
ATOM     21  C   LIG A   1      -2.310  -5.473  -1.407  0.00  0.00    +0.277 C 
ENDBRANCH  13  20
ENDBRANCH   2  11
BRANCH   7  22
ATOM     22  O   LIG A   1       1.166   1.657   3.389  0.00  0.00    -0.491 OA
ATOM     23  C   LIG A   1       0.766   0.814   4.471  0.00  0.00    +0.277 C 
ENDBRANCH   7  22
BRANCH   9  24
ATOM     24  O   LIG A   1       0.773   2.980  -1.230  0.00  0.00    -0.488 OA
ATOM     25  C   LIG A   1       0.675   2.455  -2.551  0.00  0.00    +0.277 C 
ENDBRANCH   9  24
BRANCH   8  26
ATOM     26  O   LIG A   1       1.954   3.281   1.088  0.00  0.00    -0.481 OA
BRANCH  26  27
ATOM     27  C   LIG A   1       2.261   4.081   2.223  0.00  0.00    +0.256 C 
BRANCH  27  28
ATOM     28  C   LIG A   1       1.414   5.316   2.275  0.00  0.00    +0.006 C 
ATOM     29  C   LIG A   1       1.780   6.527   1.778  0.00  0.00    +0.007 C 
ENDBRANCH  27  28
ENDBRANCH  26  27
ENDBRANCH   8  26
TORSDOF 7
