REMARK  Name = NuBBE_681
REMARK  17 active torsions:
REMARK  status: ('A' for Active; 'I' for Inactive)
REMARK    1  A    between atoms: C_1  and  C_2
REMARK    2  A    between atoms: C_2  and  C_3
REMARK    3  A    between atoms: C_3  and  C_5
REMARK    4  A    between atoms: C_3  and  C_6
REMARK    5  A    between atoms: C_7  and  C_8
REMARK    6  A    between atoms: C_14  and  C_16
REMARK    7  A    between atoms: C_21  and  C_22
REMARK    8  A    between atoms: C_22  and  C_23
REMARK    9  A    between atoms: C_23  and  C_25
REMARK   10  A    between atoms: C_23  and  C_26
REMARK   11  A    between atoms: C_26  and  O_28
REMARK   12  A    between atoms: C_26  and  C_41
REMARK   13  A    between atoms: O_28  and  C_29
REMARK   14  A    between atoms: C_29  and  C_30
REMARK   15  A    between atoms: C_30  and  O_31
REMARK   16  A    between atoms: C_30  and  C_34
REMARK   17  A    between atoms: O_31  and  C_32
REMARK                            x       y       z     vdW  Elec       q    Type
REMARK                         _______ _______ _______ _____ _____    ______ ____
ROOT
ATOM      1  C   LIG A   1       0.422  -4.015  -0.713  0.00  0.00    +0.128 C 
ATOM      2  C   LIG A   1       1.053  -3.176  -1.547  0.00  0.00    +0.055 C 
ATOM      3  C   LIG A   1       0.622  -1.834  -1.526  0.00  0.00    -0.008 C 
ATOM      4  C   LIG A   1       0.998  -1.030  -2.538  0.00  0.00    +0.059 C 
ATOM      5  C   LIG A   1       0.289   0.221  -2.633  0.00  0.00    +0.204 C 
ATOM      6  C   LIG A   1      -0.881   0.361  -1.664  0.00  0.00    +0.199 C 
ATOM      7  O   LIG A   1      -0.604   1.677  -1.313  0.00  0.00    -0.442 OA
ATOM      8  C   LIG A   1      -2.263   0.153  -2.296  0.00  0.00    +0.070 C 
ATOM      9  C   LIG A   1      -0.637  -0.118  -0.307  0.00  0.00    +0.031 C 
ATOM     10  C   LIG A   1      -0.282  -1.450  -0.423  0.00  0.00    +0.025 C 
ATOM     11  C   LIG A   1      -0.849  -2.358   0.366  0.00  0.00    +0.204 C 
ATOM     12  O   LIG A   1      -0.566  -3.677   0.209  0.00  0.00    -0.463 OA
ATOM     13  C   LIG A   1      -0.329   0.785   0.634  0.00  0.00    +0.110 C 
ATOM     14  C   LIG A   1       0.075   1.782  -0.209  0.00  0.00    +0.344 C 
ATOM     15  O   LIG A   1       0.825   2.797   0.066  0.00  0.00    -0.245 OA
ATOM     16  O   LIG A   1       0.698   1.083  -3.424  0.00  0.00    -0.288 OA
ENDROOT
BRANCH   1  18
ATOM     17  C   LIG A   1       0.556  -6.197  -1.720  0.00  0.00    -0.020 C 
ATOM     18  C   LIG A   1       0.740  -5.385  -0.675  0.00  0.00    +0.042 C 
BRANCH  17  19
ATOM     19  C   LIG A   1       0.757  -7.685  -1.680  0.00  0.00    +0.008 C 
ATOM     20  C   LIG A   1       1.897  -8.046  -2.630  0.00  0.00    +0.012 C 
BRANCH  19  22
ATOM     21  C   LIG A   1       1.048  -9.766  -0.202  0.00  0.00    +0.004 C 
ATOM     22  C   LIG A   1       0.989  -8.247  -0.261  0.00  0.00    +0.004 C 
ENDBRANCH  19  22
ENDBRANCH  17  19
ENDBRANCH   1  18
BRANCH  13  23
ATOM     23  C   LIG A   1      -0.068   0.773   2.095  0.00  0.00    +0.177 C 
ATOM     24  O   LIG A   1       0.617  -0.140   2.501  0.00  0.00    -0.291 OA
BRANCH  23  25
ATOM     25  C   LIG A   1      -0.864   1.757   3.069  0.00  0.00    +0.098 C 
ATOM     26  C   LIG A   1      -0.576   1.158   4.466  0.00  0.00    +0.020 C 
BRANCH  25  27
ATOM     27  C   LIG A   1      -0.667   3.303   3.161  0.00  0.00    +0.184 C 
ATOM     28  C   LIG A   1       0.784   3.751   3.368  0.00  0.00    +0.052 C 
BRANCH  27  29
ATOM     29  O   LIG A   1      -1.289   4.180   2.180  0.00  0.00    -0.459 OA
BRANCH  29  30
ATOM     30  C   LIG A   1      -1.525   3.784   0.921  0.00  0.00    +0.341 C 
ATOM     31  O   LIG A   1      -2.100   2.711   0.758  0.00  0.00    -0.247 OA
BRANCH  30  32
ATOM     32  C   LIG A   1      -1.077   4.822  -0.274  0.00  0.00    +0.256 C 
BRANCH  32  33
ATOM     33  C   LIG A   1      -0.371   6.070   0.152  0.00  0.00    -0.008 A 
ATOM     34  C   LIG A   1       0.132   6.269   1.425  0.00  0.00    +0.007 A 
ATOM     35  C   LIG A   1       0.703   7.424   1.873  0.00  0.00    +0.000 A 
ATOM     36  C   LIG A   1       0.851   8.435   0.965  0.00  0.00    +0.000 A 
ATOM     37  C   LIG A   1       0.426   8.266  -0.357  0.00  0.00    +0.000 A 
ATOM     38  C   LIG A   1      -0.192   7.095  -0.766  0.00  0.00    +0.007 A 
ENDBRANCH  32  33
BRANCH  32  39
ATOM     39  O   LIG A   1      -0.421   4.552  -1.515  0.00  0.00    -0.364 OA
ATOM     40  C   LIG A   1      -1.100   3.556  -2.198  0.00  0.00    +0.195 C 
ENDBRANCH  32  39
ENDBRANCH  30  32
ENDBRANCH  29  30
ENDBRANCH  27  29
ENDBRANCH  25  27
ENDBRANCH  23  25
ENDBRANCH  13  23
TORSDOF 11
