REMARK  Name = NuBBE_2189
REMARK  7 active torsions:
REMARK  status: ('A' for Active; 'I' for Inactive)
REMARK    1  A    between atoms: C_1  and  C_2
REMARK    2  A    between atoms: C_5  and  O_7
REMARK    3  A    between atoms: C_8  and  O_9
REMARK    4  A    between atoms: C_14  and  C_15
REMARK    5  A    between atoms: C_14  and  C_17
REMARK    6  A    between atoms: C_20  and  C_21
REMARK    7  A    between atoms: C_20  and  C_22
REMARK                            x       y       z     vdW  Elec       q    Type
REMARK                         _______ _______ _______ _____ _____    ______ ____
ROOT
ATOM      1  C   LIG A   1      -2.374  -0.288  -1.197  0.00  0.00    +0.012 C 
ATOM      2  C   LIG A   1      -1.177  -0.600  -0.257  0.00  0.00    -0.023 C 
ATOM      3  C   LIG A   1      -0.127  -1.607  -0.861  0.00  0.00    +0.003 C 
ATOM      4  C   LIG A   1       0.699  -0.933  -1.966  0.00  0.00    +0.038 C 
ATOM      5  C   LIG A   1       1.524   0.250  -1.427  0.00  0.00    +0.147 C 
ATOM      6  C   LIG A   1       1.042   0.821  -0.057  0.00  0.00    +0.096 C 
ATOM      7  C   LIG A   1      -0.500   0.825  -0.000  0.00  0.00    +0.030 C 
ATOM      8  C   LIG A   1      -1.019   1.544   1.260  0.00  0.00    +0.008 C 
ATOM      9  C   LIG A   1      -0.469   2.967   1.368  0.00  0.00    +0.011 C 
ATOM     10  C   LIG A   1       1.075   3.039   1.353  0.00  0.00    -0.012 C 
ATOM     11  C   LIG A   1       1.635   2.487   2.682  0.00  0.00    +0.015 C 
ATOM     12  C   LIG A   1       1.624   2.243   0.138  0.00  0.00    +0.048 C 
ATOM     13  C   LIG A   1      -0.645  -3.055  -1.171  0.00  0.00    -0.032 C 
ATOM     14  C   LIG A   1       0.556  -3.989  -1.485  0.00  0.00    +0.011 C 
ATOM     15  C   LIG A   1      -1.592  -3.159  -2.379  0.00  0.00    +0.011 C 
ATOM     16  C   LIG A   1      -1.317  -3.617   0.110  0.00  0.00    +0.007 C 
ATOM     17  C   LIG A   1      -2.310  -2.673   0.783  0.00  0.00    +0.001 C 
ATOM     18  C   LIG A   1      -1.739  -1.270   1.025  0.00  0.00    +0.007 C 
ENDROOT
BRANCH   5  19
ATOM     19  O   LIG A   1       2.886  -0.189  -1.274  0.00  0.00    -0.389 OA
ATOM     20  H   LIG A   1       3.448   0.607  -1.272  0.00  0.00    +0.210 HD
ENDBRANCH   5  19
BRANCH   6  21
ATOM     21  O   LIG A   1       1.563   0.004   0.999  0.00  0.00    -0.386 OA
ATOM     22  H   LIG A   1       2.351  -0.443   0.627  0.00  0.00    +0.210 HD
ENDBRANCH   6  21
BRANCH  10  23
ATOM     23  C   LIG A   1       1.466   4.508   1.142  0.00  0.00    -0.028 C 
ATOM     24  C   LIG A   1       2.268   5.271   1.898  0.00  0.00    +0.004 C 
ENDBRANCH  10  23
TORSDOF 3
