REMARK  Name = NuBBE_566
REMARK  7 active torsions:
REMARK  status: ('A' for Active; 'I' for Inactive)
REMARK    1  A    between atoms: O_1  and  C_2
REMARK    2  A    between atoms: C_4  and  O_5
REMARK    3  A    between atoms: C_6  and  C_7
REMARK    4  A    between atoms: C_7  and  C_8
REMARK    5  A    between atoms: C_9  and  C_10
REMARK    6  A    between atoms: C_12  and  O_13
REMARK    7  A    between atoms: C_14  and  O_15
REMARK                            x       y       z     vdW  Elec       q    Type
REMARK                         _______ _______ _______ _____ _____    ______ ____
ROOT
ATOM      1  C   LIG A   1      -1.577  -0.958   0.434  0.00  0.00    +0.190 C 
ATOM      2  O   LIG A   1      -2.646  -0.632   0.940  0.00  0.00    -0.287 OA
ENDROOT
BRANCH   1   6
ATOM      3  C   LIG A   1      -1.358  -4.863  -1.339  0.00  0.00    +0.120 A 
ATOM      4  C   LIG A   1      -0.191  -4.305  -0.828  0.00  0.00    +0.091 A 
ATOM      5  C   LIG A   1      -0.234  -3.034  -0.244  0.00  0.00    +0.131 A 
ATOM      6  C   LIG A   1      -1.437  -2.316  -0.179  0.00  0.00    +0.063 A 
ATOM      7  C   LIG A   1      -2.605  -2.906  -0.697  0.00  0.00    +0.019 A 
ATOM      8  C   LIG A   1      -2.562  -4.176  -1.278  0.00  0.00    +0.046 A 
BRANCH   3   9
ATOM      9  O   LIG A   1      -1.361  -6.100  -1.912  0.00  0.00    -0.507 OA
ATOM     10  H   LIG A   1      -0.460  -6.464  -1.899  0.00  0.00    +0.292 HD
ENDBRANCH   3   9
BRANCH   5  11
ATOM     11  O   LIG A   1       0.920  -2.525   0.287  0.00  0.00    -0.506 OA
ATOM     12  H   LIG A   1       1.653  -3.147   0.142  0.00  0.00    +0.292 HD
ENDBRANCH   5  11
ENDBRANCH   1   6
BRANCH   1  13
ATOM     13  C   LIG A   1      -0.438  -0.002   0.338  0.00  0.00    +0.052 C 
ATOM     14  C   LIG A   1      -0.555   1.242   0.826  0.00  0.00    +0.012 C 
BRANCH  14  15
ATOM     15  C   LIG A   1       0.486   2.274   0.716  0.00  0.00    -0.021 A 
ATOM     16  C   LIG A   1       0.077   3.600   0.502  0.00  0.00    +0.057 A 
ATOM     17  C   LIG A   1       1.026   4.614   0.430  0.00  0.00    +0.159 A 
ATOM     18  C   LIG A   1       2.378   4.326   0.577  0.00  0.00    +0.158 A 
ATOM     19  C   LIG A   1       2.805   3.025   0.790  0.00  0.00    +0.050 A 
ATOM     20  C   LIG A   1       1.857   1.997   0.864  0.00  0.00    +0.012 A 
BRANCH  17  21
ATOM     21  O   LIG A   1       0.671   5.919   0.218  0.00  0.00    -0.503 OA
ATOM     22  H   LIG A   1      -0.297   5.955   0.123  0.00  0.00    +0.292 HD
ENDBRANCH  17  21
BRANCH  18  23
ATOM     23  O   LIG A   1       3.299   5.333   0.522  0.00  0.00    -0.503 OA
ATOM     24  H   LIG A   1       2.766   6.144   0.394  0.00  0.00    +0.292 HD
ENDBRANCH  18  23
ENDBRANCH  14  15
ENDBRANCH   1  13
TORSDOF 7
