@<TRIPOS>MOLECULE
NuBBE_2518
 49 52 0 0 0
SMALL
GASTEIGER

@<TRIPOS>ATOM
      1 C          -2.4260   -1.6030   -0.0391 C.3     1  LIG1       -0.0263
      2 C          -3.7442   -1.0535   -0.5163 C.2     1  LIG1       -0.0905
      3 C          -4.6010   -0.3673    0.2499 C.2     1  LIG1       -0.1026
      4 C          -1.1800   -1.0296   -0.7653 C.3     1  LIG1        0.0103
      5 C           0.1019   -1.6711   -0.1973 C.3     1  LIG1        0.0679
      6 O           0.3317   -2.9867   -0.6582 O.3     1  LIG1       -0.3908
      7 C           1.1540   -0.6971   -0.7115 C.3     1  LIG1        0.0258
      8 H           2.1455   -0.9016   -0.2949 H       1  LIG1        0.0361
      9 C           0.5864    0.6624   -0.2255 C.3     1  LIG1       -0.0046
     10 H           0.9915    1.4855   -0.8269 H       1  LIG1        0.0356
     11 C          -0.9572    0.4964   -0.4459 C.3     1  LIG1       -0.0279
     12 H          -1.4908    0.7311    0.4846 H       1  LIG1        0.0310
     13 C          -1.4723    1.4853   -1.4972 C.3     1  LIG1       -0.0612
     14 C           0.9143    1.0191    1.2371 C.ar    1  LIG1       -0.0399
     15 C           1.7247    0.2137    2.0598 C.ar    1  LIG1       -0.0127
     16 C           1.9667    0.6053    3.3604 C.ar    1  LIG1        0.1665
     17 C           1.4535    1.7650    3.8774 C.ar    1  LIG1        0.1662
     18 C           0.6690    2.5996    3.1147 C.ar    1  LIG1       -0.0159
     19 C           0.4043    2.2237    1.7879 C.ar    1  LIG1       -0.0546
     20 O           1.8149    1.9557    5.1740 O.3     1  LIG1       -0.4526
     21 C           2.5984    0.7671    5.4164 C.3     1  LIG1        0.2332
     22 O           2.7147   -0.0871    4.2608 O.3     1  LIG1       -0.4526
     23 C           1.3262   -0.7937   -2.2570 C.3     1  LIG1        0.1218
     24 H           1.8883   -1.7246   -2.4431 H       1  LIG1        0.0679
     25 C          -0.0011   -0.9701   -3.0146 C.2     1  LIG1        0.1628
     26 O          -0.0575   -0.8875   -4.2449 O.2     1  LIG1       -0.2946
     27 C          -1.2452   -1.3591   -2.2681 C.3     1  LIG1        0.0170
     28 O           2.1674    0.2935   -2.6313 O.3     1  LIG1       -0.3719
     29 C           2.4705    0.3504   -4.0190 C.3     1  LIG1        0.0374
     30 H          -2.4550   -2.6929   -0.1666 H       1  LIG1        0.0314
     31 H          -2.3254   -1.4320    1.0412 H       1  LIG1        0.0314
     32 H          -4.0239   -1.2532   -1.5492 H       1  LIG1        0.0566
     33 H          -4.3938   -0.1515    1.2931 H       1  LIG1        0.0532
     34 H          -5.5419   -0.0094   -0.1586 H       1  LIG1        0.0532
     35 H           0.0639   -1.7018    0.8987 H       1  LIG1        0.0603
     36 H           1.0618   -3.3599   -0.1304 H       1  LIG1        0.2098
     37 H          -0.8909    1.4492   -2.4235 H       1  LIG1        0.0233
     38 H          -1.3993    2.5111   -1.1203 H       1  LIG1        0.0233
     39 H          -2.5211    1.3004   -1.7453 H       1  LIG1        0.0233
     40 H           2.1731   -0.7146    1.7317 H       1  LIG1        0.0658
     41 H           0.2700    3.5189    3.5290 H       1  LIG1        0.0655
     42 H          -0.2123    2.8830    1.1785 H       1  LIG1        0.0622
     43 H           2.1287    0.1947    6.2249 H       1  LIG1        0.1166
     44 H           3.6047    1.0631    5.7347 H       1  LIG1        0.1166
     45 H          -1.3871   -2.4388   -2.4167 H       1  LIG1        0.0349
     46 H          -2.0896   -0.8562   -2.7491 H       1  LIG1        0.0349
     47 H           3.3213    1.0237   -4.1537 H       1  LIG1        0.0524
     48 H           1.6303    0.7791   -4.5722 H       1  LIG1        0.0524
     49 H           2.7380   -0.6344   -4.4130 H       1  LIG1        0.0524
@<TRIPOS>BOND
     1     1     2    1
     2     2     3    2
     3     1     4    1
     4     4     5    1
     5     5     6    1
     6     5     7    1
     7     7     8    1
     8     7     9    1
     9     9    10    1
    10     9    11    1
    11     4    11    1
    12     9    14    1
    13    14    15   ar
    14    15    16   ar
    15    16    17   ar
    16    17    18   ar
    17    18    19   ar
    18    14    19   ar
    19    17    20    1
    20    20    21    1
    21    21    22    1
    22    16    22    1
    23     7    23    1
    24    23    25    1
    25    25    26    2
    26    25    27    1
    27     4    27    1
    28    28    29    1
    29    11    13    1
    30    11    12    1
    31    23    28    1
    32    23    24    1
    33     1    30    1
    34     1    31    1
    35     2    32    1
    36     3    33    1
    37     3    34    1
    38     5    35    1
    39     6    36    1
    40    13    37    1
    41    13    38    1
    42    13    39    1
    43    15    40    1
    44    18    41    1
    45    19    42    1
    46    21    43    1
    47    21    44    1
    48    27    45    1
    49    27    46    1
    50    29    47    1
    51    29    48    1
    52    29    49    1
