REMARK  Name = NuBBE_2428
REMARK  11 active torsions:
REMARK  status: ('A' for Active; 'I' for Inactive)
REMARK    1  A    between atoms: C_10  and  C_15
REMARK    2  A    between atoms: C_10  and  C_16
REMARK    3  A    between atoms: C_17  and  C_35
REMARK    4  A    between atoms: C_18  and  C_34
REMARK    5  A    between atoms: C_21  and  C_25
REMARK    6  A    between atoms: C_25  and  C_27
REMARK    7  A    between atoms: C_25  and  C_33
REMARK    8  A    between atoms: C_27  and  C_28
REMARK    9  A    between atoms: C_28  and  C_29
REMARK   10  A    between atoms: C_30  and  C_31
REMARK   11  A    between atoms: C_30  and  C_32
REMARK                            x       y       z     vdW  Elec       q    Type
REMARK                         _______ _______ _______ _____ _____    ______ ____
ROOT
ATOM      1  C   LIG A   1       0.982   1.847  -1.475  0.00  0.00    -0.019 C 
ATOM      2  C   LIG A   1       0.324   0.446  -1.501  0.00  0.00    -0.019 C 
ATOM      3  C   LIG A   1       0.994   0.977  -0.243  0.00  0.00    +0.015 C 
ATOM      4  C   LIG A   1      -1.200   0.291  -1.360  0.00  0.00    +0.002 C 
ATOM      5  C   LIG A   1      -1.896   1.531  -1.943  0.00  0.00    +0.005 C 
ATOM      6  C   LIG A   1      -1.393   2.796  -1.244  0.00  0.00    +0.005 C 
ATOM      7  C   LIG A   1       0.078   3.078  -1.595  0.00  0.00    +0.009 C 
ATOM      8  C   LIG A   1       0.694   4.322  -0.876  0.00  0.00    +0.027 C 
ATOM      9  C   LIG A   1       2.158   4.474  -1.323  0.00  0.00    +0.139 C 
ATOM     10  O   LIG A   1       2.666   5.590  -1.533  0.00  0.00    -0.297 OA
ATOM     11  C   LIG A   1       3.035   3.243  -1.364  0.00  0.00    +0.075 C 
ATOM     12  C   LIG A   1       2.342   2.111  -2.096  0.00  0.00    +0.015 C 
ATOM     13  C   LIG A   1      -0.077   5.599  -1.275  0.00  0.00    +0.019 C 
ATOM     14  C   LIG A   1       0.687   4.223   0.659  0.00  0.00    +0.019 C 
ATOM     15  C   LIG A   1      -1.771  -1.093  -1.872  0.00  0.00    -0.023 C 
ATOM     16  C   LIG A   1      -0.863  -2.309  -1.398  0.00  0.00    -0.023 C 
ATOM     17  C   LIG A   1       0.650  -1.986  -1.485  0.00  0.00    +0.008 C 
ATOM     18  C   LIG A   1       0.996  -0.699  -2.213  0.00  0.00    +0.008 C 
ATOM     19  C   LIG A   1      -1.421  -2.710   0.052  0.00  0.00    -0.002 C 
ATOM     20  C   LIG A   1      -2.715  -1.886   0.228  0.00  0.00    +0.005 C 
ATOM     21  C   LIG A   1      -3.108  -1.408  -1.159  0.00  0.00    +0.008 C 
ATOM     22  C   LIG A   1      -1.088  -3.570  -2.287  0.00  0.00    +0.012 C 
ATOM     23  C   LIG A   1      -2.068  -1.054  -3.391  0.00  0.00    +0.012 C 
ENDROOT
BRANCH  19  24
ATOM     24  C   LIG A   1      -0.498  -2.632   1.316  0.00  0.00    -0.010 C 
ATOM     25  C   LIG A   1       0.757  -3.518   1.180  0.00  0.00    +0.008 C 
BRANCH  24  26
ATOM     26  C   LIG A   1      -1.268  -3.029   2.610  0.00  0.00    +0.007 C 
BRANCH  26  27
ATOM     27  C   LIG A   1      -0.459  -2.949   3.918  0.00  0.00    +0.027 C 
BRANCH  27  28
ATOM     28  C   LIG A   1       0.045  -1.562   4.203  0.00  0.00    -0.028 C 
ATOM     29  C   LIG A   1       1.322  -1.145   4.314  0.00  0.00    -0.080 C 
ATOM     30  C   LIG A   1       2.544  -2.010   4.168  0.00  0.00    +0.038 C 
ATOM     31  C   LIG A   1       1.624   0.301   4.610  0.00  0.00    +0.038 C 
ENDBRANCH  27  28
ENDBRANCH  26  27
ENDBRANCH  24  26
ENDBRANCH  19  24
TORSDOF 4
