@<TRIPOS>MOLECULE
NuBBE_2070
 44 48 0 0 0
SMALL
GASTEIGER

@<TRIPOS>ATOM
      1 O          -4.0514    1.8242    0.0472 O.2     1  LIG1       -0.2500
      2 C          -3.0652    1.1423    0.1343 C.2     1  LIG1        0.3189
      3 C          -1.6942    1.4090   -0.4605 C.3     1  LIG1        0.1249
      4 C          -2.0498    0.6940   -1.8743 C.3     1  LIG1       -0.0440
      5 C          -0.6240    2.8334   -1.0399 C.3     1  LIG1        0.1832
      6 O          -1.1558    3.9810   -0.4537 O.3     1  LIG1       -0.3636
      7 C           0.2778    1.7701   -0.9500 C.3     1  LIG1        0.0029
      8 C           0.1792    2.0115    0.8441 C.3     1  LIG1       -0.0397
      9 C           0.6593    0.6671    1.0472 C.3     1  LIG1        0.0052
     10 C           1.9079    1.8437    0.3988 C.3     1  LIG1        0.0573
     11 O           1.0586    3.2371   -0.4432 O.3     1  LIG1       -0.3471
     12 C           0.7789   -0.7148    0.1962 C.3     1  LIG1       -0.0232
     13 C           0.4644   -1.8428    1.1965 C.3     1  LIG1        0.0243
     14 H           0.9778   -1.6184    2.1442 H       1  LIG1        0.0381
     15 C          -1.0995   -1.8866    1.4405 C.3     1  LIG1       -0.0056
     16 C          -1.8532   -0.5381    1.3244 C.3     1  LIG1        0.1083
     17 H          -2.2460   -0.4129    2.3472 H       1  LIG1        0.0737
     18 O          -3.0442   -0.2451    0.5537 O.3     1  LIG1       -0.4605
     19 C          -1.0044    0.6233    0.9558 C.3     1  LIG1        0.0247
     20 C           1.9191   -0.9243   -0.8115 C.3     1  LIG1       -0.0486
     21 C           2.0995   -2.3625   -1.2675 C.3     1  LIG1       -0.0461
     22 C           2.2149   -3.2991   -0.0910 C.3     1  LIG1        0.0061
     23 C           0.9895   -3.2209    0.7915 C.2     1  LIG1        0.1368
     24 O           0.5299   -4.2459    1.2989 O.2     1  LIG1       -0.2971
     25 H          -2.1589    1.4928   -2.6252 H       1  LIG1        0.0242
     26 H          -3.0043    0.1553   -1.9090 H       1  LIG1        0.0242
     27 H          -1.3071   -0.0074   -2.2651 H       1  LIG1        0.0242
     28 H          -1.9399    3.7704    0.0725 H       1  LIG1        0.2128
     29 H           1.1778    1.8317   -1.6202 H       1  LIG1        0.0317
     30 H           0.0238    0.7983   -1.3239 H       1  LIG1        0.0317
     31 H          -0.7513    2.5497    1.1681 H       1  LIG1        0.0273
     32 H           0.6803    2.7936    1.4970 H       1  LIG1        0.0273
     33 H           2.6230    1.4710   -0.3379 H       1  LIG1        0.0566
     34 H           2.4763    2.3487    1.2044 H       1  LIG1        0.0566
     35 H          -0.0790   -0.8408   -0.4789 H       1  LIG1        0.0314
     36 H          -1.1906   -2.2003    2.4958 H       1  LIG1        0.0308
     37 H          -1.5946   -2.6739    0.8672 H       1  LIG1        0.0308
     38 H          -1.3607    1.1797    1.8713 H       1  LIG1        0.0355
     39 H           2.8716   -0.5395   -0.4526 H       1  LIG1        0.0268
     40 H           1.6760   -0.3778   -1.7336 H       1  LIG1        0.0268
     41 H           3.0068   -2.4190   -1.8820 H       1  LIG1        0.0269
     42 H           1.2668   -2.6667   -1.9154 H       1  LIG1        0.0269
     43 H           3.1026   -3.0677    0.5059 H       1  LIG1        0.0342
     44 H           2.3123   -4.3233   -0.4674 H       1  LIG1        0.0342
@<TRIPOS>BOND
     1     2     3    1
     2     3     5    1
     3     5     7    1
     4     7     8    1
     5     8     9    1
     6     9    10    1
     7    10    11    1
     8     5    11    1
     9     9    12    1
    10    12    13    1
    11    13    15    1
    12    15    16    1
    13    16    18    1
    14     2    18    1
    15    16    19    1
    16     9    19    1
    17     3    19    1
    18    12    20    1
    19    20    21    1
    20    21    22    1
    21    22    23    1
    22    13    23    1
    23     1     2    2
    24     3     4    1
    25     5     6    1
    26    13    14    1
    27    16    17    1
    28    23    24    2
    29     4    25    1
    30     4    26    1
    31     4    27    1
    32     6    28    1
    33     7    29    1
    34     7    30    1
    35     8    31    1
    36     8    32    1
    37    10    33    1
    38    10    34    1
    39    12    35    1
    40    15    36    1
    41    15    37    1
    42    19    38    1
    43    20    39    1
    44    20    40    1
    45    21    41    1
    46    21    42    1
    47    22    43    1
    48    22    44    1
