REMARK  Name = NuBBE_1232
REMARK  9 active torsions:
REMARK  status: ('A' for Active; 'I' for Inactive)
REMARK    1  A    between atoms: C_1  and  C_2
REMARK    2  A    between atoms: C_2  and  C_34
REMARK    3  A    between atoms: C_5  and  C_6
REMARK    4  A    between atoms: C_6  and  O_7
REMARK    5  A    between atoms: C_11  and  C_12
REMARK    6  A    between atoms: C_13  and  C_27
REMARK    7  A    between atoms: C_17  and  C_18
REMARK    8  A    between atoms: C_17  and  C_26
REMARK    9  A    between atoms: C_22  and  C_24
REMARK                            x       y       z     vdW  Elec       q    Type
REMARK                         _______ _______ _______ _____ _____    ______ ____
ROOT
ATOM      1  C   LIG A   1      -4.657  -0.425  -3.839  0.00  0.00    +0.011 C 
ATOM      2  C   LIG A   1      -3.208  -0.604  -4.336  0.00  0.00    -0.034 C 
ATOM      3  C   LIG A   1      -2.718   0.675  -5.041  0.00  0.00    +0.007 C 
ATOM      4  C   LIG A   1      -2.450   1.830  -4.076  0.00  0.00    +0.019 C 
ATOM      5  C   LIG A   1      -1.433   1.460  -2.969  0.00  0.00    +0.074 C 
ATOM      6  C   LIG A   1      -1.331   2.631  -1.966  0.00  0.00    +0.019 C 
ATOM      7  C   LIG A   1      -0.387   2.313  -0.804  0.00  0.00    +0.012 C 
ATOM      8  C   LIG A   1      -0.736   1.017  -0.004  0.00  0.00    -0.004 C 
ATOM      9  C   LIG A   1      -2.010   1.330   0.833  0.00  0.00    +0.016 C 
ATOM     10  C   LIG A   1       0.519   0.596   0.931  0.00  0.00    -0.013 C 
ATOM     11  C   LIG A   1       0.783   1.629   2.046  0.00  0.00    +0.008 C 
ATOM     12  C   LIG A   1       2.052   1.320   2.826  0.00  0.00    +0.005 C 
ATOM     13  C   LIG A   1       2.111  -0.085   3.457  0.00  0.00    +0.008 C 
ATOM     14  C   LIG A   1       3.589  -0.622   3.613  0.00  0.00    +0.027 C 
ATOM     15  C   LIG A   1       4.426   0.398   4.430  0.00  0.00    +0.019 C 
ATOM     16  C   LIG A   1       3.584  -1.940   4.400  0.00  0.00    +0.139 C 
ATOM     17  C   LIG A   1       2.429  -2.889   4.214  0.00  0.00    +0.075 C 
ATOM     18  C   LIG A   1       1.588  -2.563   2.990  0.00  0.00    +0.015 C 
ATOM     19  C   LIG A   1       1.014  -1.124   2.966  0.00  0.00    -0.018 C 
ATOM     20  C   LIG A   1       0.216  -0.773   1.617  0.00  0.00    +0.073 C 
ATOM     21  C   LIG A   1      -0.102  -1.110   4.085  0.00  0.00    +0.012 C 
ATOM     22  O   LIG A   1       4.499  -2.246   5.169  0.00  0.00    -0.297 OA
ATOM     23  C   LIG A   1       4.348  -0.874   2.301  0.00  0.00    +0.019 C 
ATOM     24  C   LIG A   1       1.805   0.463   0.054  0.00  0.00    +0.013 C 
ATOM     25  C   LIG A   1      -1.092  -0.145  -0.964  0.00  0.00    -0.056 C 
ATOM     26  C   LIG A   1      -0.689  -1.409  -0.718  0.00  0.00    +0.046 C 
ATOM     27  C   LIG A   1       0.048  -1.825   0.510  0.00  0.00    +0.160 C 
ATOM     28  O   LIG A   1       0.373  -3.004   0.597  0.00  0.00    -0.292 OA
ATOM     29  C   LIG A   1      -1.953   0.208  -2.196  0.00  0.00    +0.033 C 
ATOM     30  C   LIG A   1      -2.275  -0.969  -3.158  0.00  0.00    +0.015 C 
ATOM     31  C   LIG A   1      -3.201  -1.762  -5.354  0.00  0.00    +0.011 C 
ENDROOT
BRANCH   5  32
ATOM     32  C   LIG A   1      -0.050   1.214  -3.612  0.00  0.00    +0.311 C 
ATOM     33  O   LIG A   1       0.581   0.172  -3.544  0.00  0.00    -0.250 OA
BRANCH  32  34
ATOM     34  O   LIG A   1       0.456   2.277  -4.283  0.00  0.00    -0.480 OA
ATOM     35  H   LIG A   1      -0.099   3.076  -4.298  0.00  0.00    +0.295 HD
ENDBRANCH  32  34
ENDBRANCH   5  32
TORSDOF 2
