REMARK  Name = NuBBE_1906
REMARK  18 active torsions:
REMARK  status: ('A' for Active; 'I' for Inactive)
REMARK    1  A    between atoms: C_1  and  C_2
REMARK    2  A    between atoms: C_1  and  C_13
REMARK    3  A    between atoms: C_2  and  C_3
REMARK    4  A    between atoms: C_3  and  C_4
REMARK    5  A    between atoms: C_4  and  C_5
REMARK    6  A    between atoms: C_5  and  C_6
REMARK    7  A    between atoms: C_6  and  C_7
REMARK    8  A    between atoms: C_7  and  C_8
REMARK    9  A    between atoms: C_8  and  C_9
REMARK   10  A    between atoms: C_9  and  C_10
REMARK   11  A    between atoms: C_10  and  C_11
REMARK   12  A    between atoms: C_11  and  C_12
REMARK   13  A    between atoms: C_13  and  C_14
REMARK   14  A    between atoms: C_14  and  C_15
REMARK   15  A    between atoms: C_15  and  C_16
REMARK   16  A    between atoms: C_16  and  C_17
REMARK   17  A    between atoms: C_17  and  C_18
REMARK   18  A    between atoms: C_18  and  O_20
REMARK                            x       y       z     vdW  Elec       q    Type
REMARK                         _______ _______ _______ _____ _____    ______ ____
ROOT
ATOM      1  C   LIG A   1       1.273   1.886  -0.676  0.00  0.00    -0.000 C 
ENDROOT
BRANCH   1   2
ATOM      2  C   LIG A   1       2.012   0.622  -1.143  0.00  0.00    -0.000 C 
BRANCH   2   3
ATOM      3  C   LIG A   1       3.474   0.613  -0.686  0.00  0.00    -0.000 C 
BRANCH   3   4
ATOM      4  C   LIG A   1       4.215  -0.648  -1.146  0.00  0.00    +0.000 C 
BRANCH   4   5
ATOM      5  C   LIG A   1       5.678  -0.639  -0.687  0.00  0.00    +0.000 C 
BRANCH   5   6
ATOM      6  C   LIG A   1       6.422  -1.895  -1.148  0.00  0.00    +0.011 C 
BRANCH   6   7
ATOM      7  C   LIG A   1       7.877  -1.897  -0.683  0.00  0.00    +0.120 C 
BRANCH   7   8
ATOM      8  C   LIG A   1       8.597  -3.129  -1.135  0.00  0.00    +0.305 C 
ATOM      9  O   LIG A   1       9.602  -3.163  -1.850  0.00  0.00    -0.251 OA
BRANCH   8  10
ATOM     10  O   LIG A   1       8.070  -4.264  -0.643  0.00  0.00    -0.481 OA
ATOM     11  H   LIG A   1       8.637  -4.975  -1.008  0.00  0.00    +0.295 HD
ENDBRANCH   8  10
ENDBRANCH   7   8
ENDBRANCH   6   7
ENDBRANCH   5   6
ENDBRANCH   4   5
ENDBRANCH   3   4
ENDBRANCH   2   3
ENDBRANCH   1   2
BRANCH   1  12
ATOM     12  C   LIG A   1      -0.187   1.869  -1.140  0.00  0.00    -0.000 C 
BRANCH  12  13
ATOM     13  C   LIG A   1      -0.985   3.100  -0.685  0.00  0.00    -0.000 C 
BRANCH  13  14
ATOM     14  C   LIG A   1      -2.476   3.036  -1.085  0.00  0.00    -0.000 C 
BRANCH  14  15
ATOM     15  C   LIG A   1      -3.177   1.820  -0.459  0.00  0.00    -0.000 C 
BRANCH  15  16
ATOM     16  C   LIG A   1      -4.680   1.715  -0.724  0.00  0.00    -0.000 C 
BRANCH  16  17
ATOM     17  C   LIG A   1      -5.278   0.407  -0.157  0.00  0.00    -0.000 C 
BRANCH  17  18
ATOM     18  C   LIG A   1      -5.221   0.289   1.377  0.00  0.00    -0.000 C 
BRANCH  18  19
ATOM     19  C   LIG A   1      -5.909  -0.990   1.884  0.00  0.00    -0.000 C 
BRANCH  19  20
ATOM     20  C   LIG A   1      -5.804  -1.154   3.408  0.00  0.00    -0.003 C 
ATOM     21  C   LIG A   1      -6.522  -2.410   3.890  0.00  0.00    +0.004 C 
ENDBRANCH  19  20
ENDBRANCH  18  19
ENDBRANCH  17  18
ENDBRANCH  16  17
ENDBRANCH  15  16
ENDBRANCH  14  15
ENDBRANCH  13  14
ENDBRANCH  12  13
ENDBRANCH   1  12
TORSDOF 17
