@<TRIPOS>MOLECULE
NuBBE_1140
 53 57 0 0 0
SMALL
GASTEIGER

@<TRIPOS>ATOM
      1 C           3.6838   -1.8964   -0.8222 C.3     1  LIG1       -0.0060
      2 C           2.2827   -1.8595   -1.4018 C.2     1  LIG1        0.1324
      3 C           1.6267   -0.4952   -1.4974 C.3     1  LIG1        0.0284
      4 C           0.0936   -0.5559   -1.3570 C.3     1  LIG1        0.0592
      5 H          -0.2944   -1.2219   -2.1375 H       1  LIG1        0.0555
      6 C          -0.5126    0.8425   -1.5074 C.ar    1  LIG1        0.0263
      7 C          -1.0675    1.2992   -2.7297 C.ar    1  LIG1        0.1670
      8 C          -1.4620    2.6461   -2.8486 C.ar    1  LIG1        0.1619
      9 O          -1.9061    3.1139   -4.0582 O.3     1  LIG1       -0.4914
     10 C          -1.6511    4.4905   -4.3332 C.3     1  LIG1        0.0790
     11 C          -1.3944    3.4796   -1.7275 C.ar    1  LIG1       -0.0157
     12 C          -0.9284    2.9995   -0.5035 C.ar    1  LIG1       -0.0500
     13 C          -0.4778    1.6810   -0.3669 C.ar    1  LIG1       -0.0074
     14 C          -0.0510    1.1056    0.9309 C.ar    1  LIG1        0.0042
     15 C          -0.0282   -0.3081    1.0830 C.ar    1  LIG1        0.0457
     16 N          -0.2913   -1.1396   -0.0422 N.pl3   1  LIG1       -0.3244
     17 C          -1.6465   -1.7087   -0.0260 C.3     1  LIG1        0.0013
     18 C           0.2690   -0.9008    2.3519 C.ar    1  LIG1        0.0074
     19 C           0.5617   -0.0497    3.4583 C.ar    1  LIG1       -0.0124
     20 C           0.5878    1.3337    3.2750 C.ar    1  LIG1       -0.0532
     21 C           0.2892    1.9003    2.0352 C.ar    1  LIG1       -0.0517
     22 C           0.8242   -0.5855    4.7313 C.ar    1  LIG1       -0.0084
     23 C           0.7831   -1.9515    4.8903 C.ar    1  LIG1        0.1668
     24 C           0.5265   -2.7883    3.8373 C.ar    1  LIG1        0.1669
     25 O           0.5244   -4.0978    4.2039 O.3     1  LIG1       -0.4526
     26 C           0.7742   -3.9829    5.6196 C.3     1  LIG1        0.2332
     27 O           0.9795   -2.6230    6.0559 O.3     1  LIG1       -0.4526
     28 C           0.2912   -2.3013    2.5691 C.ar    1  LIG1       -0.0066
     29 O          -1.0909    0.3689   -3.7400 O.3     1  LIG1       -0.4911
     30 C          -2.1816    0.4043   -4.6578 C.3     1  LIG1        0.0790
     31 O           1.7853   -2.8667   -1.8827 O.2     1  LIG1       -0.2976
     32 H           3.7454   -1.2696    0.0700 H       1  LIG1        0.0306
     33 H           4.3942   -1.5457   -1.5735 H       1  LIG1        0.0306
     34 H           3.9338   -2.9214   -0.5350 H       1  LIG1        0.0306
     35 H           1.9163   -0.0670   -2.4654 H       1  LIG1        0.0363
     36 H           2.0691    0.1488   -0.7277 H       1  LIG1        0.0363
     37 H          -1.8036    4.6538   -5.4043 H       1  LIG1        0.0660
     38 H          -0.6163    4.7651   -4.0985 H       1  LIG1        0.0660
     39 H          -2.3576    5.1350   -3.7997 H       1  LIG1        0.0660
     40 H          -1.7220    4.5138   -1.7682 H       1  LIG1        0.0655
     41 H          -0.9478    3.6808    0.3426 H       1  LIG1        0.0625
     42 H          -1.6355   -2.6685   -0.5539 H       1  LIG1        0.0428
     43 H          -2.3657   -1.0532   -0.5301 H       1  LIG1        0.0428
     44 H          -2.0222   -1.8965    0.9852 H       1  LIG1        0.0428
     45 H           0.8308    1.9952    4.1044 H       1  LIG1        0.0624
     46 H           0.3239    2.9831    1.9584 H       1  LIG1        0.0624
     47 H           1.0415    0.0491    5.5840 H       1  LIG1        0.0661
     48 H           1.6656   -4.5695    5.8680 H       1  LIG1        0.1166
     49 H          -0.0828   -4.3986    6.1633 H       1  LIG1        0.1166
     50 H           0.1071   -2.9977    1.7567 H       1  LIG1        0.0662
     51 H          -2.1080   -0.4934   -5.2820 H       1  LIG1        0.0660
     52 H          -2.1113    1.2503   -5.3436 H       1  LIG1        0.0660
     53 H          -3.1541    0.3738   -4.1528 H       1  LIG1        0.0660
@<TRIPOS>BOND
     1     1     2    1
     2     2     3    1
     3     3     4    1
     4     4     5    1
     5     4     6    1
     6     6     7   ar
     7     7     8   ar
     8     8     9    1
     9     9    10    1
    10     8    11   ar
    11    11    12   ar
    12    12    13   ar
    13     6    13   ar
    14    13    14    1
    15    14    15   ar
    16    15    16    1
    17     4    16    1
    18    16    17    1
    19    15    18   ar
    20    18    19   ar
    21    19    20   ar
    22    20    21   ar
    23    14    21   ar
    24    19    22   ar
    25    22    23   ar
    26    23    24   ar
    27    24    25    1
    28    25    26    1
    29    26    27    1
    30    23    27    1
    31    24    28   ar
    32    18    28   ar
    33     7    29    1
    34    29    30    1
    35     2    31    2
    36     1    32    1
    37     1    33    1
    38     1    34    1
    39     3    35    1
    40     3    36    1
    41    10    37    1
    42    10    38    1
    43    10    39    1
    44    11    40    1
    45    12    41    1
    46    17    42    1
    47    17    43    1
    48    17    44    1
    49    20    45    1
    50    21    46    1
    51    22    47    1
    52    26    48    1
    53    26    49    1
    54    28    50    1
    55    30    51    1
    56    30    52    1
    57    30    53    1
