REMARK  Name = NuBBE_2385
REMARK  7 active torsions:
REMARK  status: ('A' for Active; 'I' for Inactive)
REMARK    1  A    between atoms: C_1  and  C_20
REMARK    2  A    between atoms: C_1  and  C_21
REMARK    3  A    between atoms: C_5  and  O_16
REMARK    4  A    between atoms: C_6  and  O_7
REMARK    5  A    between atoms: C_8  and  C_13
REMARK    6  A    between atoms: C_13  and  C_14
REMARK    7  A    between atoms: C_13  and  C_15
REMARK                            x       y       z     vdW  Elec       q    Type
REMARK                         _______ _______ _______ _____ _____    ______ ____
ROOT
ATOM      1  C   LIG A   1       1.937  -2.910  -0.049  0.00  0.00    -0.032 C 
ATOM      2  C   LIG A   1       1.409  -1.452  -0.288  0.00  0.00    +0.003 C 
ATOM      3  C   LIG A   1      -0.130  -1.349  -0.076  0.00  0.00    +0.027 C 
ATOM      4  C   LIG A   1      -0.666   0.068  -0.229  0.00  0.00    +0.004 A 
ATOM      5  C   LIG A   1      -2.019   0.331  -0.495  0.00  0.00    +0.162 A 
ATOM      6  C   LIG A   1      -2.504   1.643  -0.593  0.00  0.00    +0.162 A 
ATOM      7  C   LIG A   1      -1.669   2.746  -0.441  0.00  0.00    +0.001 A 
ATOM      8  C   LIG A   1      -0.317   2.489  -0.172  0.00  0.00    +0.011 A 
ATOM      9  C   LIG A   1       0.190   1.175  -0.063  0.00  0.00    -0.040 A 
ATOM     10  C   LIG A   1       1.673   1.018   0.157  0.00  0.00    +0.036 C 
ATOM     11  C   LIG A   1       2.108  -0.383   0.572  0.00  0.00    +0.009 C 
ATOM     12  C   LIG A   1      -0.557  -1.920   1.292  0.00  0.00    +0.008 C 
ATOM     13  C   LIG A   1      -0.048  -3.338   1.520  0.00  0.00    +0.001 C 
ATOM     14  C   LIG A   1       1.460  -3.446   1.320  0.00  0.00    +0.007 C 
ATOM     15  C   LIG A   1       1.435  -3.840  -1.181  0.00  0.00    +0.011 C 
ATOM     16  C   LIG A   1       3.479  -2.974  -0.086  0.00  0.00    +0.011 C 
ENDROOT
BRANCH   7  17
ATOM     17  C   LIG A   1      -2.202   4.165  -0.537  0.00  0.00    +0.017 C 
ATOM     18  C   LIG A   1      -2.250   4.819   0.846  0.00  0.00    +0.012 C 
ATOM     19  C   LIG A   1      -1.402   5.027  -1.518  0.00  0.00    +0.012 C 
ENDBRANCH   7  17
BRANCH   6  20
ATOM     20  O   LIG A   1      -3.841   1.818  -0.842  0.00  0.00    -0.503 OA
ATOM     21  H   LIG A   1      -4.193   0.907  -0.902  0.00  0.00    +0.292 HD
ENDBRANCH   6  20
BRANCH   5  22
ATOM     22  O   LIG A   1      -2.966  -0.649  -0.679  0.00  0.00    -0.503 OA
ATOM     23  H   LIG A   1      -2.540  -1.518  -0.636  0.00  0.00    +0.292 HD
ENDBRANCH   5  22
TORSDOF 3
