REMARK  Name = NuBBE_1862
REMARK  13 active torsions:
REMARK  status: ('A' for Active; 'I' for Inactive)
REMARK    1  A    between atoms: O_1  and  C_2
REMARK    2  A    between atoms: C_2  and  C_4
REMARK    3  A    between atoms: C_2  and  C_14
REMARK    4  A    between atoms: C_4  and  C_5
REMARK    5  A    between atoms: C_5  and  C_6
REMARK    6  A    between atoms: C_9  and  O_12
REMARK    7  A    between atoms: O_12  and  C_13
REMARK    8  A    between atoms: C_14  and  C_15
REMARK    9  A    between atoms: C_15  and  C_16
REMARK   10  A    between atoms: C_16  and  C_17
REMARK   11  A    between atoms: C_17  and  C_18
REMARK   12  A    between atoms: C_21  and  O_24
REMARK   13  A    between atoms: O_24  and  C_25
REMARK                            x       y       z     vdW  Elec       q    Type
REMARK                         _______ _______ _______ _____ _____    ______ ____
ROOT
ATOM      1  C   LIG A   1      -0.859   1.800  -0.014  0.00  0.00    +0.115 C 
ENDROOT
BRANCH   1   2
ATOM      2  O   LIG A   1      -0.006   2.937   0.088  0.00  0.00    -0.392 OA
ATOM      3  H   LIG A   1       0.464   2.868   0.938  0.00  0.00    +0.210 HD
ENDBRANCH   1   2
BRANCH   1   4
ATOM      4  C   LIG A   1      -2.216   2.235  -0.580  0.00  0.00    +0.036 C 
BRANCH   4   5
ATOM      5  C   LIG A   1      -2.944   3.315   0.232  0.00  0.00    +0.037 C 
BRANCH   5   6
ATOM      6  C   LIG A   1      -3.401   2.965   1.631  0.00  0.00    -0.047 A 
ATOM      7  C   LIG A   1      -3.749   1.670   2.014  0.00  0.00    +0.007 A 
ATOM      8  C   LIG A   1      -4.306   1.418   3.272  0.00  0.00    +0.046 A 
ATOM      9  C   LIG A   1      -4.518   2.464   4.175  0.00  0.00    +0.120 A 
ATOM     10  C   LIG A   1      -4.131   3.750   3.826  0.00  0.00    +0.046 A 
ATOM     11  C   LIG A   1      -3.594   4.006   2.559  0.00  0.00    +0.007 A 
BRANCH   9  12
ATOM     12  O   LIG A   1      -5.057   2.088   5.376  0.00  0.00    -0.495 OA
ATOM     13  C   LIG A   1      -5.863   3.070   6.020  0.00  0.00    +0.277 C 
ENDBRANCH   9  12
ENDBRANCH   5   6
ENDBRANCH   4   5
ENDBRANCH   1   4
BRANCH   1  14
ATOM     14  C   LIG A   1      -0.220   0.769  -0.956  0.00  0.00    +0.031 C 
BRANCH  14  15
ATOM     15  C   LIG A   1       1.109   0.221  -0.431  0.00  0.00    +0.003 C 
BRANCH  15  16
ATOM     16  C   LIG A   1       1.714  -0.778  -1.421  0.00  0.00    +0.005 C 
BRANCH  16  17
ATOM     17  C   LIG A   1       3.039  -1.341  -0.902  0.00  0.00    +0.035 C 
BRANCH  17  18
ATOM     18  C   LIG A   1       3.670  -2.329  -1.852  0.00  0.00    -0.047 A 
ATOM     19  C   LIG A   1       3.005  -3.515  -2.184  0.00  0.00    +0.007 A 
ATOM     20  C   LIG A   1       3.608  -4.468  -3.007  0.00  0.00    +0.046 A 
ATOM     21  C   LIG A   1       4.893  -4.250  -3.503  0.00  0.00    +0.120 A 
ATOM     22  C   LIG A   1       5.548  -3.054  -3.210  0.00  0.00    +0.046 A 
ATOM     23  C   LIG A   1       4.946  -2.100  -2.384  0.00  0.00    +0.007 A 
BRANCH  21  24
ATOM     24  O   LIG A   1       5.578  -5.125  -4.302  0.00  0.00    -0.495 OA
ATOM     25  C   LIG A   1       5.290  -6.500  -4.068  0.00  0.00    +0.277 C 
ENDBRANCH  21  24
ENDBRANCH  17  18
ENDBRANCH  16  17
ENDBRANCH  15  16
ENDBRANCH  14  15
ENDBRANCH   1  14
TORSDOF 11
