REMARK  Name = NuBBE_1025
REMARK  7 active torsions:
REMARK  status: ('A' for Active; 'I' for Inactive)
REMARK    1  A    between atoms: O_1  and  C_2
REMARK    2  A    between atoms: C_6  and  C_7
REMARK    3  A    between atoms: C_11  and  C_12
REMARK    4  A    between atoms: C_19  and  C_20
REMARK    5  A    between atoms: C_23  and  C_24
REMARK    6  A    between atoms: C_30  and  C_31
REMARK    7  A    between atoms: C_30  and  C_32
REMARK                            x       y       z     vdW  Elec       q    Type
REMARK                         _______ _______ _______ _____ _____    ______ ____
ROOT
ATOM      1  C   LIG A   1       2.866   0.826  -3.891  0.00  0.00    +0.120 C 
ATOM      2  C   LIG A   1       2.556   2.116  -3.195  0.00  0.00    +0.032 C 
ATOM      3  C   LIG A   1       1.511   1.942  -2.123  0.00  0.00    +0.010 C 
ATOM      4  C   LIG A   1       1.761   0.726  -1.161  0.00  0.00    -0.025 C 
ATOM      5  C   LIG A   1       2.873   1.250  -0.196  0.00  0.00    +0.012 C 
ATOM      6  C   LIG A   1       2.051  -0.612  -2.061  0.00  0.00    +0.003 C 
ATOM      7  C   LIG A   1       1.897  -1.911  -1.242  0.00  0.00    +0.005 C 
ATOM      8  C   LIG A   1       0.478  -1.971  -0.604  0.00  0.00    +0.008 C 
ATOM      9  C   LIG A   1       0.193  -0.816   0.411  0.00  0.00    -0.023 C 
ATOM     10  C   LIG A   1       1.143  -1.067   1.613  0.00  0.00    +0.012 C 
ATOM     11  C   LIG A   1       0.443   0.540  -0.354  0.00  0.00    +0.002 C 
ATOM     12  C   LIG A   1       0.166   1.775   0.520  0.00  0.00    +0.005 C 
ATOM     13  C   LIG A   1      -1.285   1.827   0.859  0.00  0.00    +0.009 C 
ATOM     14  C   LIG A   1      -1.623   0.605   1.689  0.00  0.00    +0.022 C 
ATOM     15  C   LIG A   1      -1.345  -0.779   0.961  0.00  0.00    -0.020 C 
ATOM     16  C   LIG A   1      -2.353  -0.998  -0.208  0.00  0.00    +0.012 C 
ATOM     17  C   LIG A   1      -1.639  -1.893   2.022  0.00  0.00    +0.008 C 
ATOM     18  C   LIG A   1      -3.044  -1.831   2.643  0.00  0.00    +0.011 C 
ATOM     19  C   LIG A   1      -3.517  -0.414   3.045  0.00  0.00    -0.011 C 
ATOM     20  C   LIG A   1      -3.065  -0.088   4.484  0.00  0.00    +0.016 C 
ATOM     21  C   LIG A   1      -2.998   0.691   2.186  0.00  0.00    -0.064 C 
ATOM     22  C   LIG A   1      -3.932   1.693   2.025  0.00  0.00    -0.027 C 
ATOM     23  C   LIG A   1      -5.234   1.276   2.608  0.00  0.00    +0.028 C 
ATOM     24  C   LIG A   1      -5.029  -0.239   2.755  0.00  0.00    +0.015 C 
ATOM     25  C   LIG A   1       3.339  -0.378  -2.969  0.00  0.00    -0.006 C 
ATOM     26  C   LIG A   1       4.523  -0.375  -1.957  0.00  0.00    +0.014 C 
ATOM     27  C   LIG A   1       4.032  -1.215  -4.089  0.00  0.00    +0.014 C 
ENDROOT
BRANCH   1  28
ATOM     28  O   LIG A   1       1.693   0.420  -4.657  0.00  0.00    -0.391 OA
ATOM     29  H   LIG A   1       0.877   0.600  -4.155  0.00  0.00    +0.210 HD
ENDBRANCH   1  28
TORSDOF 1
