REMARK  Name = NuBBE_1658
REMARK  5 active torsions:
REMARK  status: ('A' for Active; 'I' for Inactive)
REMARK    1  A    between atoms: C_1  and  C_3
REMARK    2  A    between atoms: C_1  and  C_5
REMARK    3  A    between atoms: C_1  and  C_15
REMARK    4  A    between atoms: C_9  and  O_13
REMARK    5  A    between atoms: O_13  and  C_14
REMARK                            x       y       z     vdW  Elec       q    Type
REMARK                         _______ _______ _______ _____ _____    ______ ____
ROOT
ATOM      1  C   LIG A   1      -0.769  -0.094  -0.045  0.00  0.00    +0.014 C 
ATOM      2  C   LIG A   1      -1.170   0.617  -1.112  0.00  0.00    +0.062 C 
ATOM      3  C   LIG A   1      -1.647   2.008  -1.025  0.00  0.00    +0.221 C 
ATOM      4  O   LIG A   1      -2.030   2.576  -2.042  0.00  0.00    -0.284 OA
ATOM      5  C   LIG A   1      -1.627   2.672   0.314  0.00  0.00    +0.170 C 
ATOM      6  C   LIG A   1      -1.254   1.951   1.381  0.00  0.00    +0.100 C 
ATOM      7  C   LIG A   1      -0.853   0.533   1.298  0.00  0.00    +0.187 C 
ATOM      8  O   LIG A   1      -0.611  -0.083   2.329  0.00  0.00    -0.287 OA
ENDROOT
BRANCH   5   9
ATOM      9  O   LIG A   1      -2.009   4.000   0.329  0.00  0.00    -0.491 OA
ATOM     10  C   LIG A   1      -1.987   4.690   1.571  0.00  0.00    +0.277 C 
ENDBRANCH   5   9
BRANCH   1  11
ATOM     11  C   LIG A   1      -0.268  -1.529  -0.090  0.00  0.00    +0.075 C 
BRANCH  11  12
ATOM     12  C   LIG A   1       1.255  -1.593  -0.244  0.00  0.00    -0.036 A 
ATOM     13  C   LIG A   1       1.921  -1.018  -1.342  0.00  0.00    +0.004 A 
ATOM     14  C   LIG A   1       3.315  -1.052  -1.434  0.00  0.00    +0.000 A 
ATOM     15  C   LIG A   1       4.067  -1.665  -0.437  0.00  0.00    +0.000 A 
ATOM     16  C   LIG A   1       3.425  -2.252   0.652  0.00  0.00    +0.000 A 
ATOM     17  C   LIG A   1       2.031  -2.217   0.747  0.00  0.00    +0.004 A 
ENDBRANCH  11  12
BRANCH  11  18
ATOM     18  C   LIG A   1      -0.993  -2.364  -1.137  0.00  0.00    -0.022 C 
ATOM     19  C   LIG A   1      -2.101  -3.080  -0.893  0.00  0.00    +0.005 C 
ENDBRANCH  11  18
ENDBRANCH   1  11
TORSDOF 4
