@<TRIPOS>MOLECULE
NuBBE_26
 34 34 0 0 0
SMALL
GASTEIGER

@<TRIPOS>ATOM
      1 C          -1.9283   -3.3962   -0.4842 C.3     1  LIG1        0.0790
      2 O          -2.4264   -2.1762   -1.0228 O.3     1  LIG1       -0.4913
      3 C          -1.6887   -1.0477   -0.7712 C.ar    1  LIG1        0.1657
      4 C          -2.3324    0.2084   -0.7052 C.ar    1  LIG1        0.2035
      5 O          -3.6835    0.4422   -0.8342 O.3     1  LIG1       -0.4885
      6 C          -4.5597   -0.6485   -1.0908 C.3     1  LIG1        0.0791
      7 C          -1.5466    1.3691   -0.4833 C.ar    1  LIG1        0.1657
      8 O          -2.1913    2.5857   -0.3961 O.3     1  LIG1       -0.4913
      9 C          -1.4080    3.7262   -0.7510 C.3     1  LIG1        0.0790
     10 C          -0.1614    1.2576   -0.3187 C.ar    1  LIG1       -0.0089
     11 C           0.4646    0.0192   -0.4181 C.ar    1  LIG1       -0.0177
     12 C           1.9095   -0.0775   -0.2623 C.2     1  LIG1       -0.0476
     13 C           2.4444   -0.2895    0.9476 C.2     1  LIG1        0.0230
     14 C           3.9122   -0.2578    1.0946 C.2     1  LIG1        0.3317
     15 O           4.1638    0.0806    2.3835 O.3     1  LIG1       -0.4649
     16 C           5.5334    0.3914    2.6260 C.3     1  LIG1        0.0820
     17 O           4.7156   -0.4225    0.2049 O.2     1  LIG1       -0.2456
     18 C          -0.2948   -1.1237   -0.6424 C.ar    1  LIG1       -0.0089
     19 H          -1.1071   -3.7832   -1.0954 H       1  LIG1        0.0660
     20 H          -2.7394   -4.1289   -0.5186 H       1  LIG1        0.0660
     21 H          -1.6233   -3.2816    0.5619 H       1  LIG1        0.0660
     22 H          -5.5810   -0.2579   -1.1417 H       1  LIG1        0.0660
     23 H          -4.5453   -1.3790   -0.2746 H       1  LIG1        0.0660
     24 H          -4.3483   -1.1124   -2.0606 H       1  LIG1        0.0660
     25 H          -2.0486    4.6122   -0.7180 H       1  LIG1        0.0660
     26 H          -1.0169    3.6269   -1.7698 H       1  LIG1        0.0660
     27 H          -0.5956    3.9044   -0.0380 H       1  LIG1        0.0660
     28 H           0.4543    2.1237   -0.1017 H       1  LIG1        0.0661
     29 H           2.5160    0.0788   -1.1508 H       1  LIG1        0.0626
     30 H           1.8467   -0.4120    1.8424 H       1  LIG1        0.0689
     31 H           5.6096    0.8124    3.6315 H       1  LIG1        0.0661
     32 H           5.8895    1.1430    1.9132 H       1  LIG1        0.0661
     33 H           6.1411   -0.5157    2.5723 H       1  LIG1        0.0661
     34 H           0.2261   -2.0715   -0.7284 H       1  LIG1        0.0661
@<TRIPOS>BOND
     1     1     2    1
     2     2     3    1
     3     3     4   ar
     4     4     5    1
     5     5     6    1
     6     4     7   ar
     7     7     8    1
     8     8     9    1
     9     7    10   ar
    10    10    11   ar
    11    11    12    1
    12    12    13    2
    13    13    14    1
    14    14    15    1
    15    15    16    1
    16    14    17    2
    17    11    18   ar
    18     3    18   ar
    19     1    19    1
    20     1    20    1
    21     1    21    1
    22     6    22    1
    23     6    23    1
    24     6    24    1
    25     9    25    1
    26     9    26    1
    27     9    27    1
    28    10    28    1
    29    12    29    1
    30    13    30    1
    31    16    31    1
    32    16    32    1
    33    16    33    1
    34    18    34    1
