REMARK  Name = NuBBE_438
REMARK  12 active torsions:
REMARK  status: ('A' for Active; 'I' for Inactive)
REMARK    1  A    between atoms: C_1  and  C_2
REMARK    2  A    between atoms: C_3  and  C_4
REMARK    3  A    between atoms: C_8  and  C_44
REMARK    4  A    between atoms: C_8  and  C_45
REMARK    5  A    between atoms: C_9  and  O_10
REMARK    6  A    between atoms: O_10  and  C_11
REMARK    7  A    between atoms: C_11  and  C_12
REMARK    8  A    between atoms: C_13  and  C_14
REMARK    9  A    between atoms: C_23  and  C_24
REMARK   10  A    between atoms: C_30  and  C_33
REMARK   11  A    between atoms: C_36  and  C_38
REMARK   12  A    between atoms: C_39  and  C_41
REMARK                            x       y       z     vdW  Elec       q    Type
REMARK                         _______ _______ _______ _____ _____    ______ ____
ROOT
ATOM      1  C   LIG A   1      -3.178   2.886   1.316  0.00  0.00    +0.016 C 
ATOM      2  C   LIG A   1      -2.008   1.985   0.844  0.00  0.00    -0.005 C 
ATOM      3  C   LIG A   1      -1.379   1.177   2.124  0.00  0.00    -0.019 C 
ATOM      4  C   LIG A   1      -1.199   2.147   3.341  0.00  0.00    +0.012 C 
ATOM      5  C   LIG A   1      -2.310   0.048   2.663  0.00  0.00    +0.008 C 
ATOM      6  C   LIG A   1      -1.799  -1.387   2.609  0.00  0.00    +0.005 C 
ATOM      7  C   LIG A   1      -0.312  -1.516   2.973  0.00  0.00    +0.004 C 
ATOM      8  C   LIG A   1       0.159  -3.019   3.270  0.00  0.00    +0.005 C 
ATOM      9  C   LIG A   1       1.689  -3.266   2.974  0.00  0.00    +0.183 C 
ATOM     10  C   LIG A   1       2.512  -1.997   3.197  0.00  0.00    +0.046 C 
ATOM     11  C   LIG A   1       2.018  -0.745   2.451  0.00  0.00    +0.011 C 
ATOM     12  C   LIG A   1       0.557  -0.768   1.934  0.00  0.00    -0.025 C 
ATOM     13  C   LIG A   1       0.495  -1.493   0.544  0.00  0.00    +0.012 C 
ATOM     14  C   LIG A   1       0.016   0.683   1.606  0.00  0.00    +0.006 C 
ATOM     15  C   LIG A   1       0.982   1.880   1.511  0.00  0.00    +0.031 C 
ATOM     16  C   LIG A   1       0.368   2.915   0.582  0.00  0.00    -0.026 C 
ATOM     17  C   LIG A   1      -0.912   2.882   0.138  0.00  0.00    -0.063 C 
ATOM     18  C   LIG A   1      -1.363   3.519  -1.201  0.00  0.00    +0.024 C 
ATOM     19  C   LIG A   1      -1.704   2.358  -2.216  0.00  0.00    -0.025 C 
ATOM     20  C   LIG A   1      -2.861   1.525  -1.601  0.00  0.00    +0.008 C 
ATOM     21  C   LIG A   1      -2.580   0.970  -0.205  0.00  0.00    +0.012 C 
ATOM     22  C   LIG A   1      -0.507   1.416  -2.513  0.00  0.00    +0.012 C 
ATOM     23  C   LIG A   1      -2.219   2.885  -3.582  0.00  0.00    +0.007 C 
ATOM     24  C   LIG A   1      -1.405   4.040  -4.150  0.00  0.00    +0.004 C 
ATOM     25  C   LIG A   1      -1.279   5.197  -3.155  0.00  0.00    -0.011 C 
ATOM     26  C   LIG A   1      -2.638   5.864  -2.899  0.00  0.00    +0.008 C 
ATOM     27  C   LIG A   1      -0.583   4.723  -1.844  0.00  0.00    -0.004 C 
ATOM     28  C   LIG A   1       0.919   4.535  -2.123  0.00  0.00    +0.008 C 
ATOM     29  C   LIG A   1      -0.030  -3.260   4.797  0.00  0.00    +0.015 C 
ATOM     30  C   LIG A   1      -0.726  -4.080   2.575  0.00  0.00    +0.015 C 
ENDROOT
BRANCH   9  31
ATOM     31  O   LIG A   1       1.998  -3.673   1.624  0.00  0.00    -0.458 OA
BRANCH  31  32
ATOM     32  C   LIG A   1       2.071  -4.976   1.301  0.00  0.00    +0.332 C 
ATOM     33  O   LIG A   1       1.868  -5.927   2.049  0.00  0.00    -0.246 OA
BRANCH  32  34
ATOM     34  C   LIG A   1       2.410  -5.152  -0.126  0.00  0.00    +0.092 C 
ATOM     35  C   LIG A   1       2.976  -4.192  -0.879  0.00  0.00    +0.015 C 
BRANCH  35  36
ATOM     36  C   LIG A   1       3.395  -4.377  -2.277  0.00  0.00    -0.025 A 
ATOM     37  C   LIG A   1       4.486  -3.637  -2.758  0.00  0.00    +0.008 A 
ATOM     38  C   LIG A   1       4.917  -3.779  -4.080  0.00  0.00    +0.001 A 
ATOM     39  C   LIG A   1       4.256  -4.654  -4.938  0.00  0.00    +0.000 A 
ATOM     40  C   LIG A   1       3.162  -5.382  -4.478  0.00  0.00    +0.001 A 
ATOM     41  C   LIG A   1       2.728  -5.238  -3.157  0.00  0.00    +0.008 A 
ENDBRANCH  35  36
ENDBRANCH  32  34
ENDBRANCH  31  32
ENDBRANCH   9  31
TORSDOF 4
