REMARK  Name = NuBBE_1626
REMARK  4 active torsions:
REMARK  status: ('A' for Active; 'I' for Inactive)
REMARK    1  A    between atoms: C_2  and  C_24
REMARK    2  A    between atoms: C_15  and  C_16
REMARK    3  A    between atoms: C_21  and  O_22
REMARK    4  A    between atoms: C_24  and  C_25
REMARK                            x       y       z     vdW  Elec       q    Type
REMARK                         _______ _______ _______ _____ _____    ______ ____
ROOT
ATOM      1  O   LIG A   1      -2.027  -1.706  -3.317  0.00  0.00    -0.275 OA
ATOM      2  C   LIG A   1      -1.206  -1.780  -2.399  0.00  0.00    +0.220 C 
ATOM      3  N   LIG A   1      -0.981  -0.763  -1.491  0.00  0.00    -0.264 N 
ATOM      4  C   LIG A   1       0.032  -0.759  -0.396  0.00  0.00    +0.095 C 
ATOM      5  C   LIG A   1      -0.499   0.267   0.649  0.00  0.00    +0.037 C 
ATOM      6  C   LIG A   1       0.580   0.921   1.537  0.00  0.00    +0.095 C 
ATOM      7  C   LIG A   1       1.836   1.267   0.784  0.00  0.00    -0.053 C 
ATOM      8  C   LIG A   1       2.416   0.037   0.136  0.00  0.00    +0.019 C 
ATOM      9  C   LIG A   1       2.649  -1.063   1.195  0.00  0.00    +0.023 C 
ATOM     10  C   LIG A   1       2.150  -0.677   2.597  0.00  0.00    +0.085 C 
ATOM     11  N   LIG A   1       0.823  -0.060   2.621  0.00  0.00    -0.295 NA
ATOM     12  C   LIG A   1      -0.288  -1.018   2.648  0.00  0.00    +0.086 C 
ATOM     13  C   LIG A   1      -1.345  -0.445   1.712  0.00  0.00    +0.030 C 
ATOM     14  C   LIG A   1       1.428  -0.397  -0.957  0.00  0.00    +0.031 C 
ATOM     15  C   LIG A   1       2.423   2.475   0.684  0.00  0.00    -0.029 C 
ATOM     16  C   LIG A   1       1.986   3.761   1.309  0.00  0.00    +0.035 C 
ATOM     17  C   LIG A   1      -1.337   1.148  -0.240  0.00  0.00    -0.013 A 
ATOM     18  C   LIG A   1      -1.831   2.417   0.049  0.00  0.00    +0.006 A 
ATOM     19  C   LIG A   1      -2.636   3.053  -0.893  0.00  0.00    +0.004 A 
ATOM     20  C   LIG A   1      -2.951   2.414  -2.095  0.00  0.00    +0.047 A 
ATOM     21  C   LIG A   1      -2.467   1.133  -2.376  0.00  0.00    +0.139 A 
ATOM     22  C   LIG A   1      -1.642   0.498  -1.452  0.00  0.00    +0.082 A 
ENDROOT
BRANCH  21  23
ATOM     23  O   LIG A   1      -2.836   0.630  -3.586  0.00  0.00    -0.505 OA
ATOM     24  H   LIG A   1      -2.579  -0.317  -3.613  0.00  0.00    +0.292 HD
ENDBRANCH  21  23
BRANCH   2  25
ATOM     25  C   LIG A   1      -0.461  -3.091  -2.206  0.00  0.00    +0.093 C 
ATOM     26  C   LIG A   1      -1.193  -4.015  -1.249  0.00  0.00    +0.013 C 
ENDBRANCH   2  25
TORSDOF 2
