REMARK  Name = NuBBE_2300
REMARK  17 active torsions:
REMARK  status: ('A' for Active; 'I' for Inactive)
REMARK    1  A    between atoms: O_1  and  C_2
REMARK    2  A    between atoms: C_9  and  C_34
REMARK    3  A    between atoms: C_14  and  C_15
REMARK    4  A    between atoms: C_16  and  C_20
REMARK    5  A    between atoms: C_20  and  C_21
REMARK    6  A    between atoms: C_20  and  C_32
REMARK    7  A    between atoms: C_20  and  O_33
REMARK    8  A    between atoms: C_21  and  C_23
REMARK    9  A    between atoms: C_21  and  O_31
REMARK   10  A    between atoms: C_23  and  C_24
REMARK   11  A    between atoms: C_24  and  C_26
REMARK   12  A    between atoms: C_24  and  O_30
REMARK   13  A    between atoms: C_26  and  C_27
REMARK   14  A    between atoms: C_26  and  C_28
REMARK   15  A    between atoms: C_26  and  O_29
REMARK   16  A    between atoms: C_36  and  O_42
REMARK   17  A    between atoms: C_38  and  O_41
REMARK                            x       y       z     vdW  Elec       q    Type
REMARK                         _______ _______ _______ _____ _____    ______ ____
ROOT
ATOM      1  C   LIG A   1      -2.325   0.021  -0.101  0.00  0.00    +0.093 C 
ATOM      2  C   LIG A   1      -1.444  -1.045   0.560  0.00  0.00    -0.031 C 
ATOM      3  C   LIG A   1      -1.120  -1.041   1.860  0.00  0.00    +0.049 C 
ATOM      4  C   LIG A   1      -0.218  -2.050   2.435  0.00  0.00    +0.160 C 
ATOM      5  O   LIG A   1       0.366  -1.798   3.478  0.00  0.00    -0.292 OA
ATOM      6  C   LIG A   1      -0.143  -3.412   1.784  0.00  0.00    +0.069 C 
ATOM      7  C   LIG A   1      -0.308  -3.423   0.229  0.00  0.00    -0.013 C 
ATOM      8  C   LIG A   1      -0.880  -2.078  -0.399  0.00  0.00    +0.025 C 
ATOM      9  C   LIG A   1       0.052  -1.279  -1.328  0.00  0.00    +0.009 C 
ATOM     10  C   LIG A   1      -0.758  -0.268  -2.157  0.00  0.00    +0.011 C 
ATOM     11  C   LIG A   1      -1.656   0.720  -1.352  0.00  0.00    +0.006 C 
ATOM     12  C   LIG A   1      -2.753   1.216  -2.329  0.00  0.00    +0.014 C 
ATOM     13  C   LIG A   1      -0.802   1.899  -0.699  0.00  0.00    +0.032 C 
ATOM     14  C   LIG A   1      -1.442   2.128   0.695  0.00  0.00    +0.010 C 
ATOM     15  C   LIG A   1      -2.672   1.240   0.763  0.00  0.00    +0.040 C 
ATOM     16  C   LIG A   1       1.074  -3.792  -0.372  0.00  0.00    +0.012 C 
ATOM     17  C   LIG A   1      -1.303  -4.566  -0.180  0.00  0.00    +0.042 C 
ATOM     18  C   LIG A   1      -1.052  -5.905   0.515  0.00  0.00    +0.144 C 
ATOM     19  C   LIG A   1      -1.026  -5.771   2.050  0.00  0.00    +0.144 C 
ATOM     20  C   LIG A   1      -1.134  -4.325   2.519  0.00  0.00    +0.045 C 
ENDROOT
BRANCH   1  21
ATOM     21  O   LIG A   1      -3.550  -0.632  -0.416  0.00  0.00    -0.384 OA
ATOM     22  H   LIG A   1      -3.421  -1.164  -1.217  0.00  0.00    +0.211 HD
ENDBRANCH   1  21
BRANCH  13  23
ATOM     23  C   LIG A   1      -0.542   3.245  -1.471  0.00  0.00    +0.092 C 
ATOM     24  C   LIG A   1       0.076   3.009  -2.862  0.00  0.00    +0.044 C 
BRANCH  23  25
ATOM     25  O   LIG A   1      -1.814   3.891  -1.731  0.00  0.00    -0.386 OA
ATOM     26  H   LIG A   1      -2.235   4.100  -0.877  0.00  0.00    +0.210 HD
ENDBRANCH  23  25
BRANCH  23  27
ATOM     27  C   LIG A   1       0.299   4.331  -0.683  0.00  0.00    +0.149 C 
BRANCH  27  28
ATOM     28  O   LIG A   1       0.241   5.555  -1.468  0.00  0.00    -0.389 OA
ATOM     29  H   LIG A   1      -0.636   5.553  -1.902  0.00  0.00    +0.210 HD
ENDBRANCH  27  28
BRANCH  27  30
ATOM     30  C   LIG A   1       1.798   4.101  -0.412  0.00  0.00    +0.068 C 
BRANCH  30  31
ATOM     31  C   LIG A   1       2.165   3.058   0.646  0.00  0.00    +0.148 C 
BRANCH  31  32
ATOM     32  C   LIG A   1       3.688   2.873   0.923  0.00  0.00    +0.086 C 
ATOM     33  C   LIG A   1       4.454   2.423  -0.323  0.00  0.00    +0.043 C 
ATOM     34  C   LIG A   1       4.352   4.100   1.553  0.00  0.00    +0.043 C 
BRANCH  32  35
ATOM     35  O   LIG A   1       3.771   1.808   1.895  0.00  0.00    -0.387 OA
ATOM     36  H   LIG A   1       4.679   1.787   2.247  0.00  0.00    +0.210 HD
ENDBRANCH  32  35
ENDBRANCH  31  32
BRANCH  31  37
ATOM     37  O   LIG A   1       1.507   3.385   1.877  0.00  0.00    -0.389 OA
ATOM     38  H   LIG A   1       1.907   2.784   2.540  0.00  0.00    +0.210 HD
ENDBRANCH  31  37
ENDBRANCH  30  31
ENDBRANCH  27  30
ENDBRANCH  23  27
ENDBRANCH  13  23
BRANCH  19  39
ATOM     39  O   LIG A   1      -2.091  -6.517   2.645  0.00  0.00    -0.389 OA
ATOM     40  H   LIG A   1      -2.490  -7.024   1.906  0.00  0.00    +0.210 HD
ENDBRANCH  19  39
BRANCH  18  41
ATOM     41  O   LIG A   1      -2.075  -6.839   0.141  0.00  0.00    -0.389 OA
ATOM     42  H   LIG A   1      -2.026  -6.956  -0.825  0.00  0.00    +0.210 HD
ENDBRANCH  18  41
TORSDOF 12
