REMARK  Name = NuBBE_238
REMARK  19 active torsions:
REMARK  status: ('A' for Active; 'I' for Inactive)
REMARK    1  A    between atoms: C_1  and  C_2
REMARK    2  A    between atoms: C_7  and  O_9
REMARK    3  A    between atoms: C_12  and  O_14
REMARK    4  A    between atoms: O_14  and  C_15
REMARK    5  A    between atoms: C_15  and  C_16
REMARK    6  A    between atoms: C_19  and  O_21
REMARK    7  A    between atoms: O_21  and  C_22
REMARK    8  A    between atoms: C_22  and  C_23
REMARK    9  A    between atoms: C_26  and  O_28
REMARK   10  A    between atoms: O_28  and  C_29
REMARK   11  A    between atoms: C_29  and  C_30
REMARK   12  A    between atoms: C_30  and  C_31
REMARK   13  A    between atoms: C_30  and  C_32
REMARK   14  A    between atoms: C_32  and  C_33
REMARK   15  A    between atoms: C_38  and  C_39
REMARK   16  A    between atoms: C_38  and  C_40
REMARK   17  A    between atoms: C_40  and  C_41
REMARK   18  A    between atoms: C_42  and  C_43
REMARK   19  A    between atoms: C_42  and  C_45
REMARK                            x       y       z     vdW  Elec       q    Type
REMARK                         _______ _______ _______ _____ _____    ______ ____
ROOT
ATOM      1  C   LIG A   1       2.606   3.005   1.752  0.00  0.00    +0.008 C 
ATOM      2  C   LIG A   1       1.381   2.239   2.273  0.00  0.00    -0.005 C 
ATOM      3  C   LIG A   1       1.800   0.839   2.718  0.00  0.00    +0.036 C 
ATOM      4  C   LIG A   1       2.202  -0.057   1.546  0.00  0.00    +0.131 C 
ATOM      5  C   LIG A   1       1.303   0.083   0.269  0.00  0.00    +0.089 C 
ATOM      6  C   LIG A   1       1.141  -1.343  -0.209  0.00  0.00    +0.012 C 
ATOM      7  C   LIG A   1       2.333  -1.684  -1.055  0.00  0.00    +0.343 C 
ATOM      8  O   LIG A   1       2.858  -0.440  -1.524  0.00  0.00    -0.297 OA
ATOM      9  C   LIG A   1       1.993   0.612  -1.046  0.00  0.00    +0.327 C 
ATOM     10  C   LIG A   1       0.029  -2.068  -0.076  0.00  0.00    +0.023 C 
ATOM     11  C   LIG A   1      -1.230  -1.574   0.547  0.00  0.00    +0.200 C 
ATOM     12  C   LIG A   1      -1.037  -0.238   1.293  0.00  0.00    +0.054 C 
ATOM     13  C   LIG A   1      -0.070   0.771   0.595  0.00  0.00    +0.018 C 
ATOM     14  C   LIG A   1       0.086   2.182   1.352  0.00  0.00    -0.022 C 
ATOM     15  C   LIG A   1      -1.115   2.423   2.317  0.00  0.00    +0.012 C 
ENDROOT
BRANCH   4  16
ATOM     16  O   LIG A   1       3.581   0.140   1.245  0.00  0.00    -0.391 OA
ATOM     17  H   LIG A   1       4.096  -0.081   2.041  0.00  0.00    +0.210 HD
ENDBRANCH   4  16
BRANCH   7  18
ATOM     18  O   LIG A   1       2.116  -2.584  -2.144  0.00  0.00    -0.431 OA
BRANCH  18  19
ATOM     19  C   LIG A   1       1.197  -2.221  -3.061  0.00  0.00    +0.306 C 
ATOM     20  C   LIG A   1       1.486  -2.794  -4.391  0.00  0.00    +0.136 C 
ATOM     21  O   LIG A   1       0.204  -1.500  -2.870  0.00  0.00    -0.251 OA
ENDBRANCH  18  19
ENDBRANCH   7  18
BRANCH   9  22
ATOM     22  O   LIG A   1       0.990   0.891  -2.059  0.00  0.00    -0.434 OA
BRANCH  22  23
ATOM     23  C   LIG A   1       1.381   1.466  -3.225  0.00  0.00    +0.306 C 
ATOM     24  C   LIG A   1       0.378   1.184  -4.325  0.00  0.00    +0.136 C 
ATOM     25  O   LIG A   1       2.402   2.104  -3.399  0.00  0.00    -0.251 OA
ENDBRANCH  22  23
ENDBRANCH   9  22
BRANCH  11  26
ATOM     26  O   LIG A   1      -1.756  -2.522   1.497  0.00  0.00    -0.457 OA
BRANCH  26  27
ATOM     27  C   LIG A   1      -2.078  -3.759   1.023  0.00  0.00    +0.310 C 
ATOM     28  O   LIG A   1      -1.780  -4.215  -0.072  0.00  0.00    -0.251 OA
BRANCH  27  29
ATOM     29  C   LIG A   1      -2.952  -4.490   2.012  0.00  0.00    +0.094 C 
ATOM     30  C   LIG A   1      -3.439  -5.797   1.386  0.00  0.00    +0.019 C 
BRANCH  29  31
ATOM     31  C   LIG A   1      -2.238  -4.702   3.350  0.00  0.00    +0.011 C 
ATOM     32  C   LIG A   1      -0.990  -5.574   3.269  0.00  0.00    +0.004 C 
ENDBRANCH  29  31
ENDBRANCH  27  29
ENDBRANCH  26  27
ENDBRANCH  11  26
BRANCH  14  33
ATOM     33  C   LIG A   1       0.088   3.372   0.316  0.00  0.00    +0.034 C 
BRANCH  33  34
ATOM     34  C   LIG A   1      -1.151   3.549  -0.545  0.00  0.00    -0.023 C 
ATOM     35  C   LIG A   1      -1.355   4.502  -1.480  0.00  0.00    -0.055 C 
ATOM     36  C   LIG A   1      -2.633   4.565  -2.280  0.00  0.00    +0.043 C 
BRANCH  35  37
ATOM     37  C   LIG A   1      -0.391   5.540  -1.795  0.00  0.00    -0.005 C 
ATOM     38  C   LIG A   1       0.829   5.302  -2.290  0.00  0.00    +0.008 C 
ENDBRANCH  35  37
ENDBRANCH  33  34
ENDBRANCH  14  33
TORSDOF 12
