REMARK  Name = NuBBE_972
REMARK  5 active torsions:
REMARK  status: ('A' for Active; 'I' for Inactive)
REMARK    1  A    between atoms: C_2  and  C_14
REMARK    2  A    between atoms: N_3  and  C_4
REMARK    3  A    between atoms: C_4  and  C_5
REMARK    4  A    between atoms: C_5  and  C_6
REMARK    5  A    between atoms: C_9  and  O_10
REMARK                            x       y       z     vdW  Elec       q    Type
REMARK                         _______ _______ _______ _____ _____    ______ ____
ROOT
ATOM      1  O   LIG A   1       1.125   2.872   0.939  0.00  0.00    -0.270 OA
ATOM      2  C   LIG A   1       0.271   2.184   0.382  0.00  0.00    +0.244 C 
ATOM      3  N   LIG A   1       0.545   1.291  -0.632  0.00  0.00    -0.311 N 
ATOM      4  H   LIG A   1      -0.205   0.759  -1.057  0.00  0.00    +0.149 HD
ENDROOT
BRANCH   2   5
ATOM      5  C   LIG A   1      -1.164   2.295   0.767  0.00  0.00    +0.037 A 
ATOM      6  C   LIG A   1      -2.021   1.186   0.679  0.00  0.00    +0.013 A 
ATOM      7  C   LIG A   1      -3.364   1.308   1.034  0.00  0.00    +0.001 A 
ATOM      8  C   LIG A   1      -3.857   2.528   1.490  0.00  0.00    +0.000 A 
ATOM      9  C   LIG A   1      -3.010   3.633   1.587  0.00  0.00    +0.001 A 
ATOM     10  C   LIG A   1      -1.664   3.519   1.230  0.00  0.00    +0.013 A 
ENDBRANCH   2   5
BRANCH   3  11
ATOM     11  C   LIG A   1       1.882   1.050  -1.133  0.00  0.00    +0.109 C 
BRANCH  11  12
ATOM     12  C   LIG A   1       2.609  -0.079  -0.394  0.00  0.00    +0.054 C 
BRANCH  12  13
ATOM     13  C   LIG A   1       1.927  -1.429  -0.487  0.00  0.00    -0.046 A 
ATOM     14  C   LIG A   1       1.696  -2.042  -1.728  0.00  0.00    +0.007 A 
ATOM     15  C   LIG A   1       1.075  -3.292  -1.802  0.00  0.00    +0.045 A 
ATOM     16  C   LIG A   1       0.696  -3.938  -0.630  0.00  0.00    +0.117 A 
ATOM     17  C   LIG A   1       0.927  -3.355   0.609  0.00  0.00    +0.045 A 
ATOM     18  C   LIG A   1       1.542  -2.104   0.681  0.00  0.00    +0.007 A 
BRANCH  16  19
ATOM     19  O   LIG A   1       0.091  -5.160  -0.658  0.00  0.00    -0.507 OA
ATOM     20  H   LIG A   1       0.028  -5.454  -1.582  0.00  0.00    +0.292 HD
ENDBRANCH  16  19
ENDBRANCH  12  13
ENDBRANCH  11  12
ENDBRANCH   3  11
TORSDOF 5
