@<TRIPOS>MOLECULE
NuBBE_1784
 35 37 0 0 0
SMALL
GASTEIGER

@<TRIPOS>ATOM
      1 O           0.1796   -0.5606    2.3152 O.2     1  LIG1       -0.2875
      2 C           0.8346   -1.2218    1.5177 C.2     1  LIG1        0.1862
      3 C           1.0370   -0.7896    0.1110 C.2     1  LIG1        0.0097
      4 C           1.8478   -1.5144   -0.6754 C.2     1  LIG1       -0.0041
      5 C           2.5389   -2.7353   -0.2187 C.2     1  LIG1        0.2207
      6 O           3.3236   -3.2829   -0.9867 O.2     1  LIG1       -0.2840
      7 C           2.2366   -3.2297    1.1565 C.2     1  LIG1        0.1702
      8 C           1.4437   -2.4951    1.9452 C.2     1  LIG1        0.0309
      9 O           2.7897   -4.3922    1.6810 O.2     1  LIG1       -0.4912
     10 C           2.9694   -5.4696    0.7653 C.3     1  LIG1        0.0790
     11 C           0.3335    0.4490   -0.4055 C.3     1  LIG1        0.0261
     12 H           0.5791    0.5646   -1.4731 H       1  LIG1        0.0386
     13 C          -1.1961    0.3479   -0.3341 C.3     1  LIG1       -0.0142
     14 C          -1.8463    1.6826   -0.5713 C.ar    1  LIG1       -0.0048
     15 C          -1.0965    2.8654   -0.5805 C.ar    1  LIG1        0.1272
     16 O           0.2639    2.8941   -0.4132 O.3     1  LIG1       -0.4910
     17 C           0.7812    1.7457    0.2748 C.3     1  LIG1        0.0968
     18 C          -1.7168    4.0975   -0.7895 C.ar    1  LIG1        0.0218
     19 C          -3.0980    4.1475   -0.9471 C.ar    1  LIG1        0.1203
     20 C          -3.8607    2.9864   -0.9255 C.ar    1  LIG1       -0.0197
     21 C          -3.2362    1.7533   -0.7408 C.ar    1  LIG1       -0.0516
     22 O          -3.7521    5.3324   -1.1159 O.3     1  LIG1       -0.5066
     23 H           2.0516   -1.2355   -1.7030 H       1  LIG1        0.0661
     24 H           1.2236   -2.8045    2.9601 H       1  LIG1        0.0694
     25 H           3.2592   -6.3521    1.3442 H       1  LIG1        0.0660
     26 H           3.7856   -5.2743    0.0665 H       1  LIG1        0.0660
     27 H           2.0383   -5.7003    0.2374 H       1  LIG1        0.0660
     28 H          -1.5333   -0.0106    0.6442 H       1  LIG1        0.0321
     29 H          -1.5448   -0.3735   -1.0840 H       1  LIG1        0.0321
     30 H           0.4858    1.8042    1.3289 H       1  LIG1        0.0703
     31 H           1.8739    1.8291    0.2407 H       1  LIG1        0.0703
     32 H          -1.1140    4.9991   -0.8058 H       1  LIG1        0.0691
     33 H          -4.9390    3.0414   -1.0446 H       1  LIG1        0.0654
     34 H          -3.8399    0.8490   -0.7185 H       1  LIG1        0.0623
     35 H          -3.1029    6.0526   -1.0556 H       1  LIG1        0.2921
@<TRIPOS>BOND
     1     1     2    2
     2     2     3    1
     3     3     4    2
     4     4     5    1
     5     5     6    2
     6     5     7    1
     7     7     8    2
     8     2     8    1
     9     7     9    1
    10     9    10    1
    11     3    11    1
    12    11    12    1
    13    11    13    1
    14    13    14    1
    15    14    15   ar
    16    15    16    1
    17    16    17    1
    18    11    17    1
    19    15    18   ar
    20    18    19   ar
    21    19    20   ar
    22    20    21   ar
    23    14    21   ar
    24    19    22    1
    25     4    23    1
    26     8    24    1
    27    10    25    1
    28    10    26    1
    29    10    27    1
    30    13    28    1
    31    13    29    1
    32    17    30    1
    33    17    31    1
    34    18    32    1
    35    20    33    1
    36    21    34    1
    37    22    35    1
