@<TRIPOS>MOLECULE
NuBBE_2256
 33 35 0 0 0
SMALL
GASTEIGER

@<TRIPOS>ATOM
      1 O          -2.6679   -3.8999    0.1579 O.3     1  LIG1       -0.5059
      2 C          -1.3004   -3.8416    0.1199 C.ar    1  LIG1        0.1312
      3 C          -0.5948   -2.6400    0.0785 C.ar    1  LIG1        0.1058
      4 C          -1.2859   -1.3476    0.0629 C.ar    1  LIG1        0.2039
      5 C          -0.4548   -0.1413    0.0718 C.ar    1  LIG1        0.0720
      6 C          -1.0601    1.1183    0.0881 C.ar    1  LIG1       -0.0017
      7 C          -0.2835    2.2844    0.1257 C.ar    1  LIG1        0.1661
      8 O          -0.8626    3.5245    0.1555 O.3     1  LIG1       -0.4913
      9 C          -2.1449    3.6344   -0.4598 C.3     1  LIG1        0.0790
     10 C           1.1136    2.1664    0.2121 C.ar    1  LIG1        0.2071
     11 O           2.0334    3.1757    0.3792 O.3     1  LIG1       -0.4884
     12 C           1.7278    4.4531   -0.1660 C.3     1  LIG1        0.0791
     13 C           1.6961    0.8819    0.1949 C.ar    1  LIG1        0.2061
     14 O           3.0636    0.7683    0.2845 O.3     1  LIG1       -0.5008
     15 C           0.9246   -0.2772    0.0995 C.ar    1  LIG1        0.1843
     16 O           1.5647   -1.4914    0.0532 O.2     1  LIG1       -0.4507
     17 O          -2.5114   -1.2927    0.0521 O.2     1  LIG1       -0.2863
     18 C           0.7995   -2.6337    0.0563 C.ar    1  LIG1        0.1430
     19 C           1.4887   -3.8482    0.0464 C.ar    1  LIG1       -0.0184
     20 C           0.7834   -5.0545    0.0850 C.ar    1  LIG1       -0.0548
     21 C          -0.6137   -5.0527    0.1288 C.ar    1  LIG1       -0.0192
     22 H          -3.0106   -2.9810    0.1386 H       1  LIG1        0.2922
     23 H          -2.1454    1.1605    0.1016 H       1  LIG1        0.0664
     24 H          -2.9237    3.2056    0.1789 H       1  LIG1        0.0660
     25 H          -2.1526    3.1728   -1.4541 H       1  LIG1        0.0660
     26 H          -2.3680    4.6980   -0.5835 H       1  LIG1        0.0660
     27 H           2.6026    5.0919   -0.0036 H       1  LIG1        0.0660
     28 H           0.8994    4.9421    0.3488 H       1  LIG1        0.0660
     29 H           1.5582    4.3880   -1.2453 H       1  LIG1        0.0660
     30 H           3.3899    1.6783    0.4248 H       1  LIG1        0.2924
     31 H           2.5759   -3.8563    0.0149 H       1  LIG1        0.0654
     32 H           1.3220   -5.9998    0.0849 H       1  LIG1        0.0620
     33 H          -1.1633   -5.9863    0.1675 H       1  LIG1        0.0654
@<TRIPOS>BOND
     1     1     2    1
     2     2     3   ar
     3     3     4   ar
     4     4     5   ar
     5     5     6   ar
     6     6     7   ar
     7     7     8    1
     8     8     9    1
     9     7    10   ar
    10    10    11    1
    11    11    12    1
    12    10    13   ar
    13    13    14    1
    14     5    15   ar
    15    13    15   ar
    16    15    16   ar
    17     4    17    2
    18     3    18   ar
    19    16    18   ar
    20    18    19   ar
    21    19    20   ar
    22    20    21   ar
    23     2    21   ar
    24     1    22    1
    25     6    23    1
    26     9    24    1
    27     9    25    1
    28     9    26    1
    29    12    27    1
    30    12    28    1
    31    12    29    1
    32    14    30    1
    33    19    31    1
    34    20    32    1
    35    21    33    1
