REMARK  Name = NuBBE_597
REMARK  4 active torsions:
REMARK  status: ('A' for Active; 'I' for Inactive)
REMARK    1  A    between atoms: C_4  and  C_5
REMARK    2  A    between atoms: C_5  and  C_6
REMARK    3  A    between atoms: C_6  and  C_7
REMARK    4  A    between atoms: N_8  and  C_9
REMARK                            x       y       z     vdW  Elec       q    Type
REMARK                         _______ _______ _______ _____ _____    ______ ____
ROOT
ATOM      1  O   LIG A   1      -3.580  -0.105   0.453  0.00  0.00    -0.287 OA
ATOM      2  C   LIG A   1      -2.367   0.081   0.416  0.00  0.00    +0.190 A 
ATOM      3  C   LIG A   1      -1.444  -1.062   0.425  0.00  0.00    +0.072 A 
ATOM      4  C   LIG A   1      -0.116  -0.864   0.346  0.00  0.00    +0.022 A 
ATOM      5  N   LIG A   1       0.460   0.416   0.275  0.00  0.00    -0.347 N 
ATOM      6  C   LIG A   1       1.904   0.666   0.203  0.00  0.00    +0.149 C 
ATOM      7  C   LIG A   1      -0.375   1.573   0.320  0.00  0.00    +0.053 A 
ATOM      8  C   LIG A   1       0.119   2.891   0.314  0.00  0.00    +0.026 A 
ATOM      9  C   LIG A   1      -0.738   4.001   0.333  0.00  0.00    +0.002 A 
ATOM     10  C   LIG A   1      -2.116   3.826   0.363  0.00  0.00    +0.001 A 
ATOM     11  C   LIG A   1      -2.639   2.539   0.386  0.00  0.00    +0.013 A 
ATOM     12  C   LIG A   1      -1.776   1.431   0.370  0.00  0.00    +0.045 A 
ENDROOT
BRANCH   4  13
ATOM     13  C   LIG A   1       0.752  -2.113   0.340  0.00  0.00    +0.053 C 
BRANCH  13  14
ATOM     14  C   LIG A   1       0.994  -2.621  -1.085  0.00  0.00    +0.003 C 
ATOM     15  C   LIG A   1       1.857  -3.873  -1.096  0.00  0.00    +0.004 C 
ENDBRANCH  13  14
ENDBRANCH   4  13
TORSDOF 2
