REMARK  Name = NuBBE_2062
REMARK  6 active torsions:
REMARK  status: ('A' for Active; 'I' for Inactive)
REMARK    1  A    between atoms: C_1  and  O_2
REMARK    2  A    between atoms: O_2  and  C_3
REMARK    3  A    between atoms: C_16  and  O_17
REMARK    4  A    between atoms: O_17  and  C_18
REMARK    5  A    between atoms: C_19  and  O_20
REMARK    6  A    between atoms: O_20  and  C_21
REMARK                            x       y       z     vdW  Elec       q    Type
REMARK                         _______ _______ _______ _____ _____    ______ ____
ROOT
ATOM      1  C   LIG A   1      -1.712  -1.303  -1.732  0.00  0.00    +0.147 C 
ATOM      2  C   LIG A   1      -2.522  -1.525  -0.480  0.00  0.00    +0.005 C 
ATOM      3  C   LIG A   1      -1.989  -1.755   0.729  0.00  0.00    +0.008 C 
ATOM      4  C   LIG A   1      -0.567  -1.764   0.892  0.00  0.00    +0.009 C 
ATOM      5  C   LIG A   1       0.105  -2.362   1.886  0.00  0.00    +0.033 C 
ATOM      6  C   LIG A   1       1.564  -2.413   1.561  0.00  0.00    +0.160 C 
ATOM      7  N   LIG A   1       1.665  -2.048   0.085  0.00  0.00    +0.231 N 
ATOM      8  O   LIG A   1       1.664  -3.253  -0.628  0.00  0.00    -0.774 OA
ATOM      9  C   LIG A   1       2.921  -1.338  -0.306  0.00  0.00    +0.136 C 
ATOM     10  C   LIG A   1       3.127  -0.010   0.380  0.00  0.00    +0.086 C 
ATOM     11  C   LIG A   1       1.897   0.850   0.364  0.00  0.00    -0.029 A 
ATOM     12  C   LIG A   1       2.058   2.215   0.666  0.00  0.00    +0.053 A 
ATOM     13  C   LIG A   1       0.974   3.096   0.716  0.00  0.00    +0.162 A 
ATOM     14  C   LIG A   1      -0.312   2.597   0.499  0.00  0.00    +0.162 A 
ATOM     15  C   LIG A   1      -0.468   1.239   0.176  0.00  0.00    +0.059 A 
ATOM     16  C   LIG A   1       0.615   0.332   0.119  0.00  0.00    +0.015 A 
ATOM     17  C   LIG A   1       0.370  -1.184  -0.177  0.00  0.00    +0.044 C 
ATOM     18  C   LIG A   1      -0.173  -1.379  -1.613  0.00  0.00    +0.103 C 
ENDROOT
BRANCH   1  20
ATOM     19  C   LIG A   1      -2.159  -3.542  -2.536  0.00  0.00    +0.194 C 
ATOM     20  O   LIG A   1      -2.206  -2.139  -2.790  0.00  0.00    -0.376 OA
ENDBRANCH   1  20
BRANCH  13  21
ATOM     21  O   LIG A   1       1.326   4.374   1.058  0.00  0.00    -0.491 OA
ATOM     22  C   LIG A   1       0.523   5.421   0.526  0.00  0.00    +0.277 C 
ENDBRANCH  13  21
BRANCH  14  23
ATOM     23  O   LIG A   1      -1.379   3.450   0.601  0.00  0.00    -0.491 OA
ATOM     24  C   LIG A   1      -2.610   2.874   1.030  0.00  0.00    +0.277 C 
ENDBRANCH  14  23
TORSDOF 3
