@<TRIPOS>MOLECULE
NuBBE_2071
 43 47 0 0 0
SMALL
GASTEIGER

@<TRIPOS>ATOM
      1 O          -4.2042   -1.3787    0.5786 O.2     1  LIG1       -0.2500
      2 C          -2.9678   -1.2298    0.6266 C.2     1  LIG1        0.3189
      3 C          -2.2056    0.0187    0.9328 C.3     1  LIG1        0.1249
      4 C          -2.3036   -0.0767    2.5064 C.3     1  LIG1       -0.0440
      5 C          -2.3444    1.5083    0.5219 C.3     1  LIG1        0.1832
      6 O          -3.7043    1.8692    0.4989 O.3     1  LIG1       -0.3636
      7 C          -1.7169    2.1856   -0.7338 C.3     1  LIG1        0.0029
      8 C          -0.2916    1.7051   -0.9830 C.3     1  LIG1       -0.0394
      9 C           0.0966    0.7065    0.1482 C.3     1  LIG1        0.0084
     10 C          -0.1072    1.5936    1.4348 C.3     1  LIG1        0.0575
     11 O          -1.4748    2.1687    1.5050 O.3     1  LIG1       -0.3471
     12 C           1.5335    0.0915    0.0109 C.3     1  LIG1       -0.0074
     13 C           2.3114    0.8152   -1.1136 C.3     1  LIG1       -0.0387
     14 C           3.6587    0.2336   -1.4609 C.3     1  LIG1        0.0141
     15 C           3.5457   -1.2405   -1.7040 C.2     1  LIG1        0.1971
     16 C           2.5051   -2.0244   -0.9634 C.2     1  LIG1        0.1588
     17 O           2.5758   -3.3956   -1.1183 O.2     1  LIG1       -0.5034
     18 C           1.5807   -1.4358   -0.1754 C.2     1  LIG1       -0.0175
     19 C           0.5184   -2.2561    0.5744 C.3     1  LIG1        0.0100
     20 C          -0.8492   -1.8267    0.0742 C.3     1  LIG1        0.1114
     21 H          -0.9082   -2.2073   -0.9617 H       1  LIG1        0.0740
     22 O          -2.0610   -2.2928    0.6603 O.3     1  LIG1       -0.4602
     23 C          -1.0192   -0.3446    0.0681 C.3     1  LIG1        0.0252
     24 O           4.3173   -1.8505   -2.4457 O.2     1  LIG1       -0.2888
     25 H          -3.3619    0.0425    2.7939 H       1  LIG1        0.0242
     26 H          -1.8010    0.6942    3.0972 H       1  LIG1        0.0242
     27 H          -1.9639   -1.0335    2.9117 H       1  LIG1        0.0242
     28 H          -4.0423    1.5165   -0.3515 H       1  LIG1        0.2128
     29 H          -1.6301    3.2658   -0.5110 H       1  LIG1        0.0317
     30 H          -2.3226    2.1486   -1.6416 H       1  LIG1        0.0317
     31 H           0.3863    2.5669   -1.0140 H       1  LIG1        0.0273
     32 H          -0.2645    1.2308   -1.9705 H       1  LIG1        0.0273
     33 H           0.5850    2.4405    1.4653 H       1  LIG1        0.0567
     34 H           0.0762    1.0081    2.3427 H       1  LIG1        0.0567
     35 H           2.0655    0.2729    0.9555 H       1  LIG1        0.0353
     36 H           2.4459    1.8702   -0.8490 H       1  LIG1        0.0275
     37 H           1.7316    0.7762   -2.0440 H       1  LIG1        0.0275
     38 H           4.0030    0.7108   -2.3877 H       1  LIG1        0.0346
     39 H           4.3937    0.4206   -0.6758 H       1  LIG1        0.0346
     40 H           3.3726   -3.5443   -1.6767 H       1  LIG1        0.2923
     41 H           0.6217   -2.1328    1.6561 H       1  LIG1        0.0347
     42 H           0.6264   -3.3325    0.3841 H       1  LIG1        0.0347
     43 H          -1.4068   -0.2581   -0.9659 H       1  LIG1        0.0355
@<TRIPOS>BOND
     1     1     2    2
     2     2     3    1
     3     3     4    1
     4     3     5    1
     5     5     6    1
     6     5     7    1
     7     7     8    1
     8     8     9    1
     9     9    10    1
    10    10    11    1
    11     5    11    1
    12     9    12    1
    13    12    13    1
    14    13    14    1
    15    14    15    1
    16    15    16    1
    17    16    17    1
    18    16    18    2
    19    12    18    1
    20    18    19    1
    21    19    20    1
    22    20    21    1
    23    20    22    1
    24     2    22    1
    25    20    23    1
    26     9    23    1
    27     3    23    1
    28    15    24    2
    29     4    25    1
    30     4    26    1
    31     4    27    1
    32     6    28    1
    33     7    29    1
    34     7    30    1
    35     8    31    1
    36     8    32    1
    37    10    33    1
    38    10    34    1
    39    12    35    1
    40    13    36    1
    41    13    37    1
    42    14    38    1
    43    14    39    1
    44    17    40    1
    45    19    41    1
    46    19    42    1
    47    23    43    1
