REMARK  Name = NuBBE_1466
REMARK  9 active torsions:
REMARK  status: ('A' for Active; 'I' for Inactive)
REMARK    1  A    between atoms: C_1  and  C_2
REMARK    2  A    between atoms: C_10  and  C_11
REMARK    3  A    between atoms: C_16  and  C_17
REMARK    4  A    between atoms: C_16  and  C_18
REMARK    5  A    between atoms: C_19  and  C_21
REMARK    6  A    between atoms: C_21  and  C_22
REMARK    7  A    between atoms: C_22  and  O_23
REMARK    8  A    between atoms: O_23  and  C_24
REMARK    9  A    between atoms: C_29  and  C_31
REMARK                            x       y       z     vdW  Elec       q    Type
REMARK                         _______ _______ _______ _____ _____    ______ ____
ROOT
ATOM      1  C   LIG A   1      -2.007   2.102  -2.406  0.00  0.00    +0.020 C 
ATOM      2  C   LIG A   1      -1.928   1.359  -1.048  0.00  0.00    +0.032 C 
ATOM      3  C   LIG A   1      -0.535   1.066  -0.508  0.00  0.00    -0.039 C 
ATOM      4  C   LIG A   1      -0.176   1.413   0.739  0.00  0.00    +0.092 C 
ATOM      5  C   LIG A   1      -2.313  -0.109  -1.309  0.00  0.00    +0.016 C 
ATOM      6  C   LIG A   1      -1.032  -0.770  -1.909  0.00  0.00    +0.021 C 
ATOM      7  C   LIG A   1       0.194   0.029  -1.379  0.00  0.00    +0.063 C 
ATOM      8  C   LIG A   1       1.405  -0.832  -0.746  0.00  0.00    +0.046 C 
ATOM      9  C   LIG A   1       1.841  -1.927  -1.781  0.00  0.00    +0.021 C 
ATOM     10  C   LIG A   1       2.456   0.263  -0.821  0.00  0.00    +0.116 C 
ATOM     11  O   LIG A   1       2.275   1.041  -1.950  0.00  0.00    -0.464 OA
ATOM     12  C   LIG A   1       3.332   0.655   0.093  0.00  0.00    +0.089 C 
ATOM     13  C   LIG A   1       3.387   0.016   1.401  0.00  0.00    +0.165 C 
ATOM     14  C   LIG A   1       2.550  -1.238   1.703  0.00  0.00    +0.032 C 
ATOM     15  C   LIG A   1       3.613  -2.370   1.657  0.00  0.00    +0.019 C 
ATOM     16  C   LIG A   1       2.092  -1.096   3.170  0.00  0.00    +0.019 C 
ATOM     17  C   LIG A   1       1.371  -1.610   0.672  0.00  0.00    +0.027 C 
ATOM     18  O   LIG A   1       4.181   0.501   2.209  0.00  0.00    -0.292 OA
ATOM     19  C   LIG A   1       1.008   0.795  -2.451  0.00  0.00    +0.109 C 
ATOM     20  C   LIG A   1       0.764   1.111  -3.728  0.00  0.00    +0.054 C 
ATOM     21  C   LIG A   1      -2.778   2.151   0.006  0.00  0.00    +0.220 C 
ATOM     22  O   LIG A   1      -2.449   1.802   1.365  0.00  0.00    -0.453 OA
ATOM     23  C   LIG A   1      -1.154   1.872   1.754  0.00  0.00    +0.333 C 
ATOM     24  O   LIG A   1      -0.809   2.118   2.899  0.00  0.00    -0.246 OA
ENDROOT
BRANCH  21  25
ATOM     25  C   LIG A   1      -2.754   3.666  -0.168  0.00  0.00    +0.031 A 
ATOM     26  C   LIG A   1      -3.719   4.439  -0.793  0.00  0.00    +0.202 A 
ATOM     27  O   LIG A   1      -3.347   5.742  -0.849  0.00  0.00    -0.471 OA
ATOM     28  C   LIG A   1      -2.146   5.836  -0.230  0.00  0.00    +0.195 A 
ATOM     29  C   LIG A   1      -1.744   4.600   0.220  0.00  0.00    +0.048 A 
ENDBRANCH  21  25
BRANCH  17  30
ATOM     30  C   LIG A   1      -0.039  -1.922   1.248  0.00  0.00    +0.126 C 
BRANCH  30  31
ATOM     31  C   LIG A   1      -0.222  -3.230   2.028  0.00  0.00    +0.307 C 
ATOM     32  O   LIG A   1      -0.075  -3.353   3.240  0.00  0.00    -0.251 OA
BRANCH  31  33
ATOM     33  O   LIG A   1      -0.676  -4.223   1.210  0.00  0.00    -0.468 OA
ATOM     34  C   LIG A   1      -1.279  -5.351   1.867  0.00  0.00    +0.280 C 
ENDBRANCH  31  33
ENDBRANCH  30  31
ENDBRANCH  17  30
TORSDOF 4
