REMARK  Name = NuBBE_1346
REMARK  7 active torsions:
REMARK  status: ('A' for Active; 'I' for Inactive)
REMARK    1  A    between atoms: C_2  and  O_3
REMARK    2  A    between atoms: C_2  and  C_17
REMARK    3  A    between atoms: O_3  and  C_4
REMARK    4  A    between atoms: C_7  and  C_9
REMARK    5  A    between atoms: C_9  and  C_11
REMARK    6  A    between atoms: C_9  and  C_12
REMARK    7  A    between atoms: C_17  and  C_18
REMARK                            x       y       z     vdW  Elec       q    Type
REMARK                         _______ _______ _______ _____ _____    ______ ____
ROOT
ATOM      1  O   LIG A   1       0.964  -0.410   1.399  0.00  0.00    -0.456 OA
ENDROOT
BRANCH   1   2
ATOM      2  C   LIG A   1      -0.164   0.137   2.109  0.00  0.00    +0.207 C 
ATOM      3  C   LIG A   1      -1.252   0.605   1.137  0.00  0.00    +0.057 C 
ATOM      4  C   LIG A   1      -1.827  -0.554   0.292  0.00  0.00    +0.018 C 
ATOM      5  C   LIG A   1      -2.090  -1.772   1.156  0.00  0.00    -0.023 C 
ATOM      6  C   LIG A   1      -1.603  -1.927   2.397  0.00  0.00    +0.003 C 
ATOM      7  C   LIG A   1      -0.716  -0.955   3.010  0.00  0.00    -0.015 C 
ATOM      8  C   LIG A   1      -0.426  -1.020   4.320  0.00  0.00    +0.016 C 
BRANCH   4   9
ATOM      9  C   LIG A   1      -3.090  -0.129  -0.515  0.00  0.00    -0.010 C 
ATOM     10  C   LIG A   1      -4.253   0.338   0.369  0.00  0.00    +0.008 C 
ATOM     11  C   LIG A   1      -2.767   0.956  -1.550  0.00  0.00    +0.008 C 
ENDBRANCH   4   9
ENDBRANCH   1   2
BRANCH   1  13
ATOM     12  O   LIG A   1       1.729   1.712   0.961  0.00  0.00    -0.251 OA
ATOM     13  C   LIG A   1       1.848   0.490   0.890  0.00  0.00    +0.312 C 
BRANCH  13  14
ATOM     14  C   LIG A   1       3.021  -0.226   0.263  0.00  0.00    +0.155 C 
BRANCH  14  15
ATOM     15  C   LIG A   1       3.220   0.087  -1.200  0.00  0.00    -0.037 A 
ATOM     16  C   LIG A   1       2.246  -0.245  -2.153  0.00  0.00    +0.004 A 
ATOM     17  C   LIG A   1       2.441   0.064  -3.502  0.00  0.00    +0.000 A 
ATOM     18  C   LIG A   1       3.613   0.696  -3.914  0.00  0.00    +0.000 A 
ATOM     19  C   LIG A   1       4.596   1.013  -2.979  0.00  0.00    +0.000 A 
ATOM     20  C   LIG A   1       4.403   0.706  -1.631  0.00  0.00    +0.004 A 
ENDBRANCH  14  15
ENDBRANCH  13  14
ENDBRANCH   1  13
TORSDOF 5
