@<TRIPOS>MOLECULE
NuBBE_219
 39 40 0 0 0
SMALL
GASTEIGER

@<TRIPOS>ATOM
      1 O           2.7995    3.1717    1.6116 O.3     1  LIG1       -0.5065
      2 C           1.9310    2.1600    1.3075 C.ar    1  LIG1        0.1200
      3 C           0.7614    2.4291    0.5937 C.ar    1  LIG1       -0.0162
      4 C          -0.1345    1.3949    0.2633 C.ar    1  LIG1       -0.0376
      5 C           0.1785    0.0825    0.6585 C.ar    1  LIG1       -0.0400
      6 C          -0.7351   -1.0845    0.3143 C.3     1  LIG1       -0.0109
      7 H          -0.6174   -1.8530    1.0907 H       1  LIG1        0.0352
      8 C          -0.3832   -1.7175   -1.0729 C.3     1  LIG1       -0.0138
      9 H          -0.4835   -0.9587   -1.8591 H       1  LIG1        0.0326
     10 C          -1.3144   -2.8858   -1.4383 C.3     1  LIG1        0.0473
     11 O          -1.2586   -3.8993   -0.4439 O.3     1  LIG1       -0.3947
     12 C           1.0722   -2.2127   -1.1347 C.3     1  LIG1       -0.0598
     13 C          -2.1838   -0.5710    0.4201 C.3     1  LIG1       -0.0453
     14 C          -2.4402    0.5631   -0.5660 C.3     1  LIG1       -0.0459
     15 C          -1.4527    1.7398   -0.4141 C.3     1  LIG1       -0.0183
     16 H          -1.9441    2.4724    0.2423 H       1  LIG1        0.0346
     17 C          -1.2421    2.4025   -1.7813 C.3     1  LIG1       -0.0584
     18 C           1.3490   -0.1630    1.4030 C.ar    1  LIG1       -0.0517
     19 C           2.2308    0.8707    1.7373 C.ar    1  LIG1       -0.0087
     20 C           3.4693    0.5840    2.5342 C.3     1  LIG1       -0.0362
     21 H           2.4807    3.9882    1.1963 H       1  LIG1        0.2921
     22 H           0.5258    3.4503    0.3108 H       1  LIG1        0.0657
     23 H          -1.0150   -3.3271   -2.3957 H       1  LIG1        0.0560
     24 H          -2.3516   -2.5556   -1.5429 H       1  LIG1        0.0560
     25 H          -1.7915   -4.6468   -0.7650 H       1  LIG1        0.2094
     26 H           1.2601   -2.7548   -2.0681 H       1  LIG1        0.0233
     27 H           1.3057   -2.8838   -0.3019 H       1  LIG1        0.0233
     28 H           1.7771   -1.3757   -1.1144 H       1  LIG1        0.0233
     29 H          -2.3747   -0.2090    1.4399 H       1  LIG1        0.0271
     30 H          -2.9020   -1.3800    0.2516 H       1  LIG1        0.0271
     31 H          -3.4633    0.9377   -0.4312 H       1  LIG1        0.0271
     32 H          -2.4132    0.1648   -1.5874 H       1  LIG1        0.0271
     33 H          -0.7050    1.7350   -2.4649 H       1  LIG1        0.0236
     34 H          -0.6639    3.3287   -1.7025 H       1  LIG1        0.0236
     35 H          -2.2039    2.6569   -2.2402 H       1  LIG1        0.0236
     36 H           1.5715   -1.1789    1.7243 H       1  LIG1        0.0624
     37 H           3.5029   -0.4605    2.8618 H       1  LIG1        0.0279
     38 H           3.4962    1.2091    3.4328 H       1  LIG1        0.0279
     39 H           4.3619    0.7764    1.9307 H       1  LIG1        0.0279
@<TRIPOS>BOND
     1     1     2    1
     2     2     3   ar
     3     3     4   ar
     4     4     5   ar
     5     5     6    1
     6     6     7    1
     7     8    10    1
     8    10    11    1
     9     8    12    1
    10     6    13    1
    11    13    14    1
    12    14    15    1
    13     4    15    1
    14     5    18   ar
    15    18    19   ar
    16     2    19   ar
    17    19    20    1
    18     8     9    1
    19     8     6    1
    20    15    17    1
    21    15    16    1
    22     1    21    1
    23     3    22    1
    24    10    23    1
    25    10    24    1
    26    11    25    1
    27    12    26    1
    28    12    27    1
    29    12    28    1
    30    13    29    1
    31    13    30    1
    32    14    31    1
    33    14    32    1
    34    17    33    1
    35    17    34    1
    36    17    35    1
    37    18    36    1
    38    20    37    1
    39    20    38    1
    40    20    39    1
