REMARK  Name = NuBBE_1689
REMARK  17 active torsions:
REMARK  status: ('A' for Active; 'I' for Inactive)
REMARK    1  A    between atoms: C_1  and  C_2
REMARK    2  A    between atoms: C_2  and  C_3
REMARK    3  A    between atoms: C_3  and  C_4
REMARK    4  A    between atoms: C_4  and  C_5
REMARK    5  A    between atoms: C_5  and  C_6
REMARK    6  A    between atoms: C_6  and  C_7
REMARK    7  A    between atoms: C_8  and  C_9
REMARK    8  A    between atoms: C_9  and  C_10
REMARK    9  A    between atoms: C_10  and  C_11
REMARK   10  A    between atoms: C_11  and  C_12
REMARK   11  A    between atoms: C_12  and  C_13
REMARK   12  A    between atoms: C_13  and  C_14
REMARK   13  A    between atoms: C_14  and  C_15
REMARK   14  A    between atoms: C_15  and  C_16
REMARK   15  A    between atoms: C_17  and  C_18
REMARK   16  A    between atoms: C_18  and  O_19
REMARK   17  A    between atoms: C_21  and  O_22
REMARK                            x       y       z     vdW  Elec       q    Type
REMARK                         _______ _______ _______ _____ _____    ______ ____
ROOT
ATOM      1  C   LIG A   1      -0.345  -1.712   2.900  0.00  0.00    +0.005 C 
ENDROOT
BRANCH   1   2
ATOM      2  C   LIG A   1       0.510  -1.727   1.635  0.00  0.00    +0.036 C 
BRANCH   2   3
ATOM      3  C   LIG A   1       1.671  -2.690   1.566  0.00  0.00    -0.030 A 
ATOM      4  C   LIG A   1       1.709  -3.983   2.120  0.00  0.00    +0.103 A 
ATOM      5  C   LIG A   1       2.760  -4.844   1.774  0.00  0.00    +0.131 A 
ATOM      6  C   LIG A   1       3.810  -4.414   0.963  0.00  0.00    +0.046 A 
ATOM      7  C   LIG A   1       3.825  -3.116   0.473  0.00  0.00    +0.004 A 
ATOM      8  C   LIG A   1       2.757  -2.268   0.751  0.00  0.00    +0.005 A 
BRANCH   5   9
ATOM      9  O   LIG A   1       2.845  -6.136   2.226  0.00  0.00    -0.506 OA
ATOM     10  H   LIG A   1       2.020  -6.362   2.703  0.00  0.00    +0.292 HD
ENDBRANCH   5   9
BRANCH   4  11
ATOM     11  C   LIG A   1       0.717  -4.552   3.082  0.00  0.00    +0.341 C 
ATOM     12  O   LIG A   1       0.251  -5.640   3.036  0.00  0.00    -0.245 OA
BRANCH  11  13
ATOM     13  O   LIG A   1       0.510  -3.746   4.147  0.00  0.00    -0.477 OA
ATOM     14  H   LIG A   1      -0.371  -4.007   4.488  0.00  0.00    +0.295 HD
ENDBRANCH  11  13
ENDBRANCH   4  11
ENDBRANCH   2   3
ENDBRANCH   1   2
BRANCH   1  15
ATOM     15  C   LIG A   1      -1.462  -0.698   2.911  0.00  0.00    +0.000 C 
BRANCH  15  16
ATOM     16  C   LIG A   1      -0.801   0.642   2.668  0.00  0.00    +0.000 C 
BRANCH  16  17
ATOM     17  C   LIG A   1      -1.644   1.886   2.685  0.00  0.00    +0.000 C 
BRANCH  17  18
ATOM     18  C   LIG A   1      -2.852   1.759   1.732  0.00  0.00    +0.004 C 
BRANCH  18  19
ATOM     19  C   LIG A   1      -2.444   1.391   0.261  0.00  0.00    +0.027 C 
BRANCH  19  21
ATOM     20  C   LIG A   1      -3.546   1.264  -2.078  0.00  0.00    -0.031 C 
ATOM     21  C   LIG A   1      -3.546   1.141  -0.734  0.00  0.00    -0.031 C 
BRANCH  20  22
ATOM     22  C   LIG A   1      -2.578   1.773  -3.127  0.00  0.00    +0.027 C 
BRANCH  22  23
ATOM     23  C   LIG A   1      -1.058   1.837  -2.968  0.00  0.00    +0.004 C 
BRANCH  23  24
ATOM     24  C   LIG A   1      -0.363   2.142  -4.323  0.00  0.00    +0.000 C 
BRANCH  24  25
ATOM     25  C   LIG A   1       1.144   2.385  -4.181  0.00  0.00    -0.000 C 
BRANCH  25  27
ATOM     26  C   LIG A   1       2.963   3.803  -3.173  0.00  0.00    +0.004 C 
ATOM     27  C   LIG A   1       1.466   3.592  -3.297  0.00  0.00    -0.003 C 
ENDBRANCH  25  27
ENDBRANCH  24  25
ENDBRANCH  23  24
ENDBRANCH  22  23
ENDBRANCH  20  22
ENDBRANCH  19  21
ENDBRANCH  18  19
ENDBRANCH  17  18
ENDBRANCH  16  17
ENDBRANCH  15  16
ENDBRANCH   1  15
TORSDOF 16
