REMARK  Name = NuBBE_1431
REMARK  9 active torsions:
REMARK  status: ('A' for Active; 'I' for Inactive)
REMARK    1  A    between atoms: O_1  and  C_2
REMARK    2  A    between atoms: C_6  and  C_7
REMARK    3  A    between atoms: C_15  and  C_16
REMARK    4  A    between atoms: C_17  and  C_18
REMARK    5  A    between atoms: C_21  and  C_22
REMARK    6  A    between atoms: C_25  and  C_26
REMARK    7  A    between atoms: C_25  and  C_27
REMARK    8  A    between atoms: C_30  and  C_31
REMARK    9  A    between atoms: C_30  and  C_32
REMARK                            x       y       z     vdW  Elec       q    Type
REMARK                         _______ _______ _______ _____ _____    ______ ____
ROOT
ATOM      1  C   LIG A   1       2.909  -0.128  -4.131  0.00  0.00    +0.121 C 
ATOM      2  C   LIG A   1       2.905   1.384  -3.760  0.00  0.00    +0.032 C 
ATOM      3  C   LIG A   1       2.129   1.674  -2.496  0.00  0.00    +0.013 C 
ATOM      4  C   LIG A   1       2.582   0.802  -1.288  0.00  0.00    -0.007 C 
ATOM      5  C   LIG A   1       3.758   1.486  -0.567  0.00  0.00    +0.016 C 
ATOM      6  C   LIG A   1       2.904  -0.641  -1.799  0.00  0.00    +0.007 C 
ATOM      7  C   LIG A   1       3.002  -1.626  -0.600  0.00  0.00    +0.009 C 
ATOM      8  C   LIG A   1       1.662  -1.713   0.052  0.00  0.00    +0.031 C 
ATOM      9  C   LIG A   1       0.980  -0.424   0.333  0.00  0.00    -0.063 C 
ATOM     10  C   LIG A   1       1.420   0.788  -0.261  0.00  0.00    -0.064 C 
ATOM     11  C   LIG A   1       0.781   2.099   0.020  0.00  0.00    +0.032 C 
ATOM     12  C   LIG A   1      -0.723   2.088   0.311  0.00  0.00    +0.012 C 
ATOM     13  C   LIG A   1      -0.985   1.178   1.550  0.00  0.00    -0.019 C 
ATOM     14  C   LIG A   1      -0.300   2.202   2.654  0.00  0.00    +0.012 C 
ATOM     15  C   LIG A   1      -0.363  -0.531   0.990  0.00  0.00    -0.005 C 
ATOM     16  C   LIG A   1      -1.046  -1.484  -0.306  0.00  0.00    +0.016 C 
ATOM     17  C   LIG A   1      -0.607  -1.766   2.005  0.00  0.00    +0.012 C 
ATOM     18  C   LIG A   1      -2.071  -1.762   2.446  0.00  0.00    +0.008 C 
ATOM     19  C   LIG A   1      -2.634  -0.352   2.445  0.00  0.00    -0.029 C 
ATOM     20  C   LIG A   1      -1.410  -0.119   3.759  0.00  0.00    +0.011 C 
ATOM     21  C   LIG A   1      -2.582   1.117   2.376  0.00  0.00    +0.002 C 
ATOM     22  C   LIG A   1      -4.216   1.361   1.975  0.00  0.00    +0.011 C 
ATOM     23  C   LIG A   1      -5.216  -0.010   1.286  0.00  0.00    -0.035 C 
ATOM     24  C   LIG A   1      -5.620  -0.401   2.728  0.00  0.00    +0.011 C 
ATOM     25  C   LIG A   1      -5.088  -1.648   0.913  0.00  0.00    +0.011 C 
ATOM     26  C   LIG A   1      -4.307   0.132   0.085  0.00  0.00    +0.007 C 
ATOM     27  C   LIG A   1      -2.912   0.087   0.633  0.00  0.00    +0.007 C 
ATOM     28  C   LIG A   1       3.829  -0.977  -3.119  0.00  0.00    -0.005 C 
ATOM     29  C   LIG A   1       5.044  -1.598  -2.318  0.00  0.00    +0.014 C 
ATOM     30  C   LIG A   1       5.104  -0.303  -3.983  0.00  0.00    +0.014 C 
ENDROOT
BRANCH   1  31
ATOM     31  O   LIG A   1       1.564  -0.640  -4.239  0.00  0.00    -0.391 OA
ATOM     32  H   LIG A   1       0.948  -0.117  -3.700  0.00  0.00    +0.210 HD
ENDBRANCH   1  31
TORSDOF 1
