REMARK  Name = NuBBE_2260
REMARK  7 active torsions:
REMARK  status: ('A' for Active; 'I' for Inactive)
REMARK    1  A    between atoms: C_1  and  C_2
REMARK    2  A    between atoms: C_6  and  O_13
REMARK    3  A    between atoms: C_7  and  C_9
REMARK    4  A    between atoms: C_9  and  C_10
REMARK    5  A    between atoms: C_9  and  C_11
REMARK    6  A    between atoms: C_9  and  O_12
REMARK    7  A    between atoms: C_14  and  C_17
REMARK                            x       y       z     vdW  Elec       q    Type
REMARK                         _______ _______ _______ _____ _____    ______ ____
ROOT
ATOM      1  C   LIG A   1      -2.471  -2.337  -0.014  0.00  0.00    +0.044 C 
ATOM      2  C   LIG A   1      -0.965  -2.305  -0.069  0.00  0.00    -0.043 A 
ATOM      3  C   LIG A   1      -0.232  -1.089   0.005  0.00  0.00    -0.014 A 
ATOM      4  C   LIG A   1       1.185  -1.128  -0.054  0.00  0.00    -0.011 A 
ATOM      5  C   LIG A   1       1.888   0.094   0.011  0.00  0.00    +0.054 A 
ATOM      6  C   LIG A   1       1.223   1.316   0.137  0.00  0.00    +0.123 A 
ATOM      7  C   LIG A   1      -0.170   1.392   0.218  0.00  0.00    +0.025 A 
ATOM      8  C   LIG A   1      -0.869   0.172   0.136  0.00  0.00    +0.018 A 
ATOM      9  C   LIG A   1       1.849  -2.379  -0.181  0.00  0.00    -0.043 A 
ATOM     10  C   LIG A   1       1.101  -3.560  -0.250  0.00  0.00    +0.004 A 
ATOM     11  C   LIG A   1      -0.286  -3.524  -0.196  0.00  0.00    +0.004 A 
ATOM     12  C   LIG A   1       3.351  -2.486  -0.245  0.00  0.00    +0.044 C 
ENDROOT
BRANCH   7  13
ATOM     13  C   LIG A   1      -0.912   2.730   0.327  0.00  0.00    +0.089 C 
ATOM     14  C   LIG A   1      -1.032   3.364  -1.065  0.00  0.00    +0.046 C 
ATOM     15  C   LIG A   1      -2.307   2.640   0.964  0.00  0.00    +0.046 C 
BRANCH  13  16
ATOM     16  O   LIG A   1      -0.197   3.656   1.158  0.00  0.00    -0.384 OA
ATOM     17  H   LIG A   1       0.751   3.518   0.964  0.00  0.00    +0.211 HD
ENDBRANCH  13  16
ENDBRANCH   7  13
BRANCH   6  18
ATOM     18  O   LIG A   1       1.956   2.474   0.185  0.00  0.00    -0.506 OA
ATOM     19  H   LIG A   1       2.897   2.252   0.076  0.00  0.00    +0.292 HD
ENDBRANCH   6  18
TORSDOF 3
