@<TRIPOS>MOLECULE
NuBBE_2332
 60 59 0 0 0
SMALL
GASTEIGER

@<TRIPOS>ATOM
      1 C          -2.8911   -3.1771   -0.9031 C.3     1  LIG1        0.0820
      2 O          -1.5285   -3.5276   -1.1255 O.3     1  LIG1       -0.4647
      3 C          -1.1662   -3.7879   -2.4027 C.2     1  LIG1        0.3343
      4 C           0.3036   -4.0377   -2.4436 C.2     1  LIG1        0.0296
      5 C           0.9752   -4.3806   -1.1445 C.3     1  LIG1       -0.0332
      6 C           0.9458   -3.8792   -3.6225 C.2     1  LIG1       -0.0740
      7 C           2.4360   -3.9961   -3.8562 C.3     1  LIG1       -0.0303
      8 C           3.1132   -2.6926   -4.3475 C.3     1  LIG1       -0.0286
      9 C           3.0258   -1.4509   -3.4643 C.2     1  LIG1       -0.0762
     10 C           3.0418   -0.1452   -4.2159 C.3     1  LIG1       -0.0438
     11 C           2.9350   -1.5339   -2.1239 C.2     1  LIG1       -0.0847
     12 C           2.7167   -0.4380   -1.1172 C.3     1  LIG1       -0.0308
     13 C           1.2229   -0.2485   -0.7666 C.3     1  LIG1       -0.0286
     14 C           0.9115    0.8418    0.2627 C.2     1  LIG1       -0.0762
     15 C           1.9253    1.0180    1.3629 C.3     1  LIG1       -0.0438
     16 C          -0.2416    1.5476    0.1920 C.2     1  LIG1       -0.0847
     17 C          -0.7626    2.5869    1.1671 C.3     1  LIG1       -0.0308
     18 C          -2.1591    2.2360    1.7204 C.3     1  LIG1       -0.0281
     19 C          -2.7014    3.2440    2.7055 C.2     1  LIG1       -0.0656
     20 C          -3.4820    4.3997    2.1117 C.3     1  LIG1       -0.0433
     21 C          -2.4722    3.1296    4.0376 C.2     1  LIG1        0.0215
     22 C          -2.9066    4.0781    5.1073 C.2     1  LIG1        0.3316
     23 O          -2.3414    3.6098    6.2510 O.3     1  LIG1       -0.4649
     24 C          -2.2590    4.5564    7.3254 C.3     1  LIG1        0.0820
     25 O          -3.5877    5.0845    4.9864 O.2     1  LIG1       -0.2456
     26 O          -1.9160   -3.7894   -3.3819 O.2     1  LIG1       -0.2453
     27 H          -3.2818   -2.5422   -1.7027 H       1  LIG1        0.0661
     28 H          -2.9365   -2.6151    0.0344 H       1  LIG1        0.0661
     29 H          -3.4899   -4.0850   -0.7930 H       1  LIG1        0.0661
     30 H           0.2821   -4.7724   -0.3932 H       1  LIG1        0.0280
     31 H           1.4241   -3.4818   -0.7147 H       1  LIG1        0.0280
     32 H           1.7436   -5.1487   -1.2688 H       1  LIG1        0.0280
     33 H           0.3630   -3.6160   -4.5075 H       1  LIG1        0.0577
     34 H           2.5892   -4.7649   -4.6252 H       1  LIG1        0.0311
     35 H           2.9574   -4.3673   -2.9684 H       1  LIG1        0.0311
     36 H           2.6835   -2.4523   -5.3288 H       1  LIG1        0.0313
     37 H           4.1768   -2.9019   -4.5244 H       1  LIG1        0.0313
     38 H           2.1335   -0.0386   -4.8164 H       1  LIG1        0.0274
     39 H           3.9081   -0.1089   -4.8861 H       1  LIG1        0.0274
     40 H           3.1138    0.7281   -3.5630 H       1  LIG1        0.0274
     41 H           3.0385   -2.5135   -1.6679 H       1  LIG1        0.0572
     42 H           3.1640    0.5072   -1.4374 H       1  LIG1        0.0310
     43 H           3.2661   -0.7465   -0.2185 H       1  LIG1        0.0310
     44 H           0.8342   -1.1946   -0.3668 H       1  LIG1        0.0313
     45 H           0.6654   -0.0538   -1.6932 H       1  LIG1        0.0313
     46 H           2.9426    1.0508    0.9622 H       1  LIG1        0.0274
     47 H           1.8547    0.1863    2.0698 H       1  LIG1        0.0274
     48 H           1.8134    1.9556    1.9105 H       1  LIG1        0.0274
     49 H          -0.9131    1.3530   -0.6457 H       1  LIG1        0.0572
     50 H          -0.8007    3.5540    0.6514 H       1  LIG1        0.0310
     51 H          -0.0843    2.7126    2.0156 H       1  LIG1        0.0310
     52 H          -2.1197    1.2510    2.2056 H       1  LIG1        0.0313
     53 H          -2.8765    2.1280    0.8966 H       1  LIG1        0.0313
     54 H          -3.3021    4.4827    1.0345 H       1  LIG1        0.0274
     55 H          -3.2113    5.3656    2.5477 H       1  LIG1        0.0274
     56 H          -4.5532    4.2241    2.2562 H       1  LIG1        0.0274
     57 H          -1.8834    2.2825    4.3875 H       1  LIG1        0.0688
     58 H          -2.1739    5.5840    6.9531 H       1  LIG1        0.0661
     59 H          -1.3488    4.3308    7.8854 H       1  LIG1        0.0661
     60 H          -3.1164    4.4594    7.9965 H       1  LIG1        0.0661
@<TRIPOS>BOND
     1     1     2    1
     2     2     3    1
     3     3     4    1
     4     4     5    1
     5     4     6    2
     6     6     7    1
     7     7     8    1
     8     8     9    1
     9     9    10    1
    10     9    11    2
    11    11    12    1
    12    12    13    1
    13    13    14    1
    14    14    15    1
    15    14    16    2
    16    16    17    1
    17    17    18    1
    18    18    19    1
    19    19    20    1
    20    19    21    2
    21    21    22    1
    22    22    23    1
    23    23    24    1
    24    22    25    2
    25     3    26    2
    26     1    27    1
    27     1    28    1
    28     1    29    1
    29     5    30    1
    30     5    31    1
    31     5    32    1
    32     6    33    1
    33     7    34    1
    34     7    35    1
    35     8    36    1
    36     8    37    1
    37    10    38    1
    38    10    39    1
    39    10    40    1
    40    11    41    1
    41    12    42    1
    42    12    43    1
    43    13    44    1
    44    13    45    1
    45    15    46    1
    46    15    47    1
    47    15    48    1
    48    16    49    1
    49    17    50    1
    50    17    51    1
    51    18    52    1
    52    18    53    1
    53    20    54    1
    54    20    55    1
    55    20    56    1
    56    21    57    1
    57    24    58    1
    58    24    59    1
    59    24    60    1
