REMARK  Name = NuBBE_949
REMARK  4 active torsions:
REMARK  status: ('A' for Active; 'I' for Inactive)
REMARK    1  A    between atoms: O_1  and  C_2
REMARK    2  A    between atoms: C_2  and  C_3
REMARK    3  A    between atoms: C_3  and  C_4
REMARK    4  A    between atoms: C_4  and  C_5
REMARK                            x       y       z     vdW  Elec       q    Type
REMARK                         _______ _______ _______ _____ _____    ______ ____
ROOT
ATOM      1  C   LIG A   1      -0.910   0.560   0.416  0.00  0.00    +0.046 C 
ENDROOT
BRANCH   1   2
ATOM      2  C   LIG A   1      -0.201  -0.310  -0.592  0.00  0.00    -0.047 A 
ATOM      3  C   LIG A   1       0.484   0.262  -1.673  0.00  0.00    +0.003 A 
ATOM      4  C   LIG A   1       1.119  -0.548  -2.617  0.00  0.00    +0.000 A 
ATOM      5  C   LIG A   1       1.080  -1.935  -2.487  0.00  0.00    +0.000 A 
ATOM      6  C   LIG A   1       0.411  -2.514  -1.410  0.00  0.00    +0.000 A 
ATOM      7  C   LIG A   1      -0.223  -1.706  -0.465  0.00  0.00    +0.003 A 
ENDBRANCH   1   2
BRANCH   1   8
ATOM      8  C   LIG A   1      -0.007   0.978   1.575  0.00  0.00    +0.125 C 
BRANCH   8   9
ATOM      9  C   LIG A   1      -0.748   1.871   2.531  0.00  0.00    +0.305 C 
ATOM     10  O   LIG A   1      -1.896   2.275   2.431  0.00  0.00    -0.251 OA
BRANCH   9  11
ATOM     11  O   LIG A   1       0.009   2.235   3.583  0.00  0.00    -0.481 OA
ATOM     12  H   LIG A   1      -0.577   2.820   4.109  0.00  0.00    +0.295 HD
ENDBRANCH   9  11
ENDBRANCH   8   9
ENDBRANCH   1   8
TORSDOF 4
