@<TRIPOS>MOLECULE
NuBBE_1887
 57 59 0 0 0
SMALL
GASTEIGER

@<TRIPOS>ATOM
      1 O           1.9319   -1.4642   -2.4338 O.2     1  LIG1       -0.2830
      2 C           1.2472   -1.4365   -1.3879 C.ar    1  LIG1        0.2381
      3 C           0.8969   -2.6153   -0.6604 C.ar    1  LIG1        0.1101
      4 C           0.3373   -3.7172   -1.2884 C.ar    1  LIG1        0.1495
      5 C          -0.1626   -4.7234   -0.4940 C.ar    1  LIG1        0.0234
      6 C          -0.0249   -4.6997    0.8952 C.ar    1  LIG1        0.1271
      7 C           0.4794   -3.5513    1.5234 C.ar    1  LIG1        0.0233
      8 C           0.8982   -2.4829    0.7299 C.ar    1  LIG1        0.1466
      9 O           1.2289   -1.2526    1.2760 O.2     1  LIG1       -0.4505
     10 C           0.7963   -0.1168    0.5232 C.ar    1  LIG1        0.1845
     11 C           0.4473    1.0801    1.3580 C.ar    1  LIG1        0.0673
     12 C           0.4202    0.8895    2.7603 C.ar    1  LIG1       -0.0437
     13 C          -0.0564    1.8584    3.6542 C.ar    1  LIG1       -0.0154
     14 C          -0.4986    3.0885    3.1910 C.ar    1  LIG1        0.1660
     15 C          -0.3895    3.3685    1.8146 C.ar    1  LIG1        0.2157
     16 O          -0.8273    4.6687    1.3990 O.3     1  LIG1       -0.4185
     17 C          -0.0332    5.4870    0.5009 C.2     1  LIG1        0.3094
     18 C          -0.7228    6.8114    0.4009 C.3     1  LIG1        0.0336
     19 O           0.8935    5.1629   -0.2041 O.2     1  LIG1       -0.2507
     20 C           0.1255    2.3825    0.9012 C.ar    1  LIG1        0.1881
     21 O           0.2217    2.7862   -0.4688 O.3     1  LIG1       -0.4214
     22 C           1.3905    2.6951   -1.2660 C.2     1  LIG1        0.3093
     23 C           1.2456    3.5630   -2.4998 C.3     1  LIG1        0.0336
     24 O           2.3932    2.0300   -1.0160 O.2     1  LIG1       -0.2507
     25 O          -1.0636    4.0356    4.0242 O.3     1  LIG1       -0.4913
     26 C          -0.7672    3.9076    5.4216 C.3     1  LIG1        0.0790
     27 C           0.6183   -0.2380   -0.8226 C.ar    1  LIG1        0.2108
     28 O          -0.1909    0.5711   -1.5864 O.3     1  LIG1       -0.4883
     29 C          -0.1457    0.3446   -2.9923 C.3     1  LIG1        0.0791
     30 O          -0.4100   -5.7615    1.6753 O.3     1  LIG1       -0.4949
     31 C          -0.7595   -6.9430    0.9347 C.3     1  LIG1        0.0788
     32 O           0.0630   -3.6656   -2.6695 O.3     1  LIG1       -0.4251
     33 C          -0.3466   -4.8206   -3.3373 C.2     1  LIG1        0.3092
     34 C          -1.2391   -4.4383   -4.4725 C.3     1  LIG1        0.0336
     35 O          -0.0848   -5.9790   -3.0397 O.2     1  LIG1       -0.2507
     36 H          -0.7055   -5.5292   -0.9650 H       1  LIG1        0.0691
     37 H           0.4930   -3.4847    2.6076 H       1  LIG1        0.0691
     38 H           0.7527   -0.0446    3.2128 H       1  LIG1        0.0627
     39 H          -0.0936    1.5801    4.7030 H       1  LIG1        0.0655
     40 H           0.1119    7.4844    0.1413 H       1  LIG1        0.0342
     41 H          -1.0813    7.1481    1.3928 H       1  LIG1        0.0342
     42 H          -1.5116    6.9454   -0.3574 H       1  LIG1        0.0342
     43 H           1.8239    3.1424   -3.3332 H       1  LIG1        0.0342
     44 H           1.6479    4.5561   -2.2883 H       1  LIG1        0.0342
     45 H           0.2031    3.6376   -2.8210 H       1  LIG1        0.0342
     46 H          -1.2976    4.6907    5.9757 H       1  LIG1        0.0660
     47 H           0.3074    4.0412    5.5899 H       1  LIG1        0.0660
     48 H          -1.1092    2.9554    5.8462 H       1  LIG1        0.0660
     49 H           0.8329    0.6271   -3.3975 H       1  LIG1        0.0660
     50 H          -0.8992    0.9885   -3.4524 H       1  LIG1        0.0660
     51 H          -0.3979   -0.6899   -3.2446 H       1  LIG1        0.0660
     52 H          -0.9104   -7.7696    1.6297 H       1  LIG1        0.0660
     53 H           0.0385   -7.2385    0.2379 H       1  LIG1        0.0660
     54 H          -1.7030   -6.7888    0.3942 H       1  LIG1        0.0660
     55 H          -0.6401   -4.1463   -5.3337 H       1  LIG1        0.0342
     56 H          -1.9081   -3.6298   -4.1617 H       1  LIG1        0.0342
     57 H          -1.8660   -5.3002   -4.7208 H       1  LIG1        0.0342
@<TRIPOS>BOND
     1     1     2    2
     2     2     3   ar
     3     3     4   ar
     4     4     5   ar
     5     5     6   ar
     6     6     7   ar
     7     7     8   ar
     8     3     8   ar
     9     8     9   ar
    10     9    10   ar
    11    10    11    1
    12    11    12   ar
    13    12    13   ar
    14    13    14   ar
    15    14    15   ar
    16    15    16    1
    17    16    17    1
    18    17    18    1
    19    17    19    2
    20    15    20   ar
    21    11    20   ar
    22    20    21    1
    23    21    22    1
    24    22    23    1
    25    22    24    2
    26    14    25    1
    27    25    26    1
    28    10    27   ar
    29     2    27   ar
    30    27    28    1
    31    28    29    1
    32     6    30    1
    33    30    31    1
    34     4    32    1
    35    32    33    1
    36    33    34    1
    37    33    35    2
    38     5    36    1
    39     7    37    1
    40    12    38    1
    41    13    39    1
    42    18    40    1
    43    18    41    1
    44    18    42    1
    45    23    43    1
    46    23    44    1
    47    23    45    1
    48    26    46    1
    49    26    47    1
    50    26    48    1
    51    29    49    1
    52    29    50    1
    53    29    51    1
    54    31    52    1
    55    31    53    1
    56    31    54    1
    57    34    55    1
    58    34    56    1
    59    34    57    1
