@<TRIPOS>MOLECULE
NuBBE_347
 69 72 0 0 0
SMALL
GASTEIGER

@<TRIPOS>ATOM
      1 O           1.2829    7.0798   -0.9231 O.2     1  LIG1       -0.2927
      2 C           0.5997    6.0783   -1.1168 C.2     1  LIG1        0.1564
      3 C           1.0887    4.9153   -1.9372 C.3     1  LIG1        0.0107
      4 C          -0.0637    4.2820   -2.7063 C.3     1  LIG1       -0.0361
      5 C          -1.2943    3.8974   -1.8345 C.3     1  LIG1        0.0002
      6 C          -1.5001    4.8916   -0.6956 C.2     1  LIG1       -0.0376
      7 C          -2.6361    4.6067    0.1537 C.2     1  LIG1       -0.0577
      8 C          -2.9770    3.3351    0.4216 C.2     1  LIG1       -0.0580
      9 C          -2.1987    2.2055   -0.0608 C.2     1  LIG1       -0.0437
     10 C          -2.1291    1.0402    0.6187 C.2     1  LIG1       -0.0599
     11 C          -1.1774   -0.1025    0.2363 C.3     1  LIG1       -0.0071
     12 C           0.0784    0.4033   -0.5185 C.3     1  LIG1       -0.0431
     13 C           0.1125    1.9052   -0.8376 C.3     1  LIG1       -0.0446
     14 C          -1.2671    2.4255   -1.2637 C.3     1  LIG1       -0.0065
     15 C          -1.9607   -1.0519   -0.7090 C.3     1  LIG1       -0.0556
     16 C          -2.7335    0.7468    1.9643 C.3     1  LIG1       -0.0304
     17 C          -1.5552    0.0943    2.6656 C.3     1  LIG1       -0.0452
     18 C          -0.9632   -0.8534    1.6081 C.3     1  LIG1       -0.0256
     19 H          -1.6490   -1.7174    1.5962 H       1  LIG1        0.0315
     20 C           0.3958   -1.4719    2.0422 C.3     1  LIG1       -0.0221
     21 H           0.1555   -2.0941    2.9186 H       1  LIG1        0.0343
     22 C           0.9798   -2.4027    0.9999 C.2     1  LIG1       -0.0845
     23 C           1.0276   -3.7402    1.1230 C.2     1  LIG1       -0.0846
     24 C           1.6046   -4.6643    0.0694 C.3     1  LIG1       -0.0234
     25 H           1.9082   -4.0759   -0.8076 H       1  LIG1        0.0343
     26 C           0.4820   -5.6057   -0.3812 C.3     1  LIG1       -0.0587
     27 C           2.8478   -5.4364    0.5931 C.3     1  LIG1       -0.0407
     28 C           3.4520   -6.3453   -0.4849 C.3     1  LIG1       -0.0621
     29 C           3.9456   -4.4881    1.0948 C.3     1  LIG1       -0.0621
     30 C           1.4491   -0.4877    2.5710 C.3     1  LIG1       -0.0587
     31 C          -0.6967    5.9281   -0.4164 C.2     1  LIG1       -0.0155
     32 C          -2.5160    3.9943   -2.8051 C.3     1  LIG1       -0.0550
     33 H           1.5870    4.2024   -1.2695 H       1  LIG1        0.0345
     34 H           1.8364    5.2821   -2.6492 H       1  LIG1        0.0345
     35 H           0.2902    3.4192   -3.2833 H       1  LIG1        0.0278
     36 H          -0.3721    5.0232   -3.4580 H       1  LIG1        0.0278
     37 H          -3.1740    5.4262    0.6195 H       1  LIG1        0.0621
     38 H          -3.8098    3.1487    1.0927 H       1  LIG1        0.0620
     39 H           0.1654   -0.1328   -1.4743 H       1  LIG1        0.0274
     40 H           1.0057    0.1728   -0.0026 H       1  LIG1        0.0274
     41 H           0.8550    2.0433   -1.6292 H       1  LIG1        0.0272
     42 H           0.4737    2.4547    0.0413 H       1  LIG1        0.0272
     43 H          -1.6193    1.7701   -2.0744 H       1  LIG1        0.0357
     44 H          -2.2077   -0.5632   -1.6585 H       1  LIG1        0.0238
     45 H          -2.9087   -1.3806   -0.2651 H       1  LIG1        0.0238
     46 H          -1.3748   -1.9491   -0.9376 H       1  LIG1        0.0238
     47 H          -3.5730    0.0507    1.8618 H       1  LIG1        0.0310
     48 H          -3.0681    1.6238    2.5228 H       1  LIG1        0.0310
     49 H          -1.8690   -0.4432    3.5663 H       1  LIG1        0.0271
     50 H          -0.8390    0.8686    2.9643 H       1  LIG1        0.0271
     51 H           1.4014   -1.9563    0.1037 H       1  LIG1        0.0572
     52 H           0.6290   -4.2178    2.0166 H       1  LIG1        0.0572
     53 H           0.7908   -6.2222   -1.2301 H       1  LIG1        0.0235
     54 H          -0.3971   -5.0353   -0.7034 H       1  LIG1        0.0235
     55 H           0.1711   -6.2739    0.4302 H       1  LIG1        0.0235
     56 H           2.5446   -6.0707    1.4369 H       1  LIG1        0.0301
     57 H           3.7293   -5.7698   -1.3750 H       1  LIG1        0.0233
     58 H           2.7555   -7.1320   -0.7880 H       1  LIG1        0.0233
     59 H           4.3534   -6.8442   -0.1125 H       1  LIG1        0.0233
     60 H           4.2747   -3.8088    0.3009 H       1  LIG1        0.0233
     61 H           4.8187   -5.0549    1.4364 H       1  LIG1        0.0233
     62 H           3.6028   -3.8865    1.9419 H       1  LIG1        0.0233
     63 H           2.3865   -1.0078    2.8007 H       1  LIG1        0.0235
     64 H           1.1148   -0.0247    3.5057 H       1  LIG1        0.0235
     65 H           1.6842    0.3209    1.8774 H       1  LIG1        0.0235
     66 H          -0.8723    6.6197    0.4028 H       1  LIG1        0.0655
     67 H          -2.6810    5.0274   -3.1349 H       1  LIG1        0.0238
     68 H          -3.4499    3.6436   -2.3536 H       1  LIG1        0.0238
     69 H          -2.3467    3.3844   -3.7011 H       1  LIG1        0.0238
@<TRIPOS>BOND
     1     2     3    1
     2     3     4    1
     3     4     5    1
     4     5     6    1
     5     6     7    1
     6     7     8    2
     7     8     9    1
     8     9    10    2
     9    10    11    1
    10    11    12    1
    11    12    13    1
    12    13    14    1
    13     9    14    1
    14    10    16    1
    15    16    17    1
    16    17    18    1
    17    11    18    1
    18    20    21    1
    19    20    22    1
    20    22    23    2
    21    24    26    1
    22    24    27    1
    23    27    28    1
    24    27    29    1
    25    20    30    1
    26     6    31    2
    27     2    31    1
    28    14     5    1
    29     1     2    2
    30     5    32    1
    31    11    15    1
    32    18    20    1
    33    18    19    1
    34    24    25    1
    35    24    23    1
    36     3    33    1
    37     3    34    1
    38     4    35    1
    39     4    36    1
    40     7    37    1
    41     8    38    1
    42    12    39    1
    43    12    40    1
    44    13    41    1
    45    13    42    1
    46    14    43    1
    47    15    44    1
    48    15    45    1
    49    15    46    1
    50    16    47    1
    51    16    48    1
    52    17    49    1
    53    17    50    1
    54    22    51    1
    55    23    52    1
    56    26    53    1
    57    26    54    1
    58    26    55    1
    59    27    56    1
    60    28    57    1
    61    28    58    1
    62    28    59    1
    63    29    60    1
    64    29    61    1
    65    29    62    1
    66    30    63    1
    67    30    64    1
    68    30    65    1
    69    31    66    1
    70    32    67    1
    71    32    68    1
    72    32    69    1
