REMARK  Name = NuBBE_1265
REMARK  9 active torsions:
REMARK  status: ('A' for Active; 'I' for Inactive)
REMARK    1  A    between atoms: C_1  and  C_2
REMARK    2  A    between atoms: C_2  and  C_4
REMARK    3  A    between atoms: C_9  and  C_10
REMARK    4  A    between atoms: C_10  and  C_11
REMARK    5  A    between atoms: C_12  and  C_13
REMARK    6  A    between atoms: C_12  and  C_14
REMARK    7  A    between atoms: C_15  and  O_16
REMARK    8  A    between atoms: C_20  and  C_22
REMARK    9  A    between atoms: C_25  and  O_26
REMARK                            x       y       z     vdW  Elec       q    Type
REMARK                         _______ _______ _______ _____ _____    ______ ____
ROOT
ATOM      1  C   LIG A   1      -1.504   3.618   0.047  0.00  0.00    +0.060 C 
ATOM      2  C   LIG A   1      -0.030   3.274  -0.190  0.00  0.00    +0.123 C 
ATOM      3  O   LIG A   1       0.033   2.379  -1.317  0.00  0.00    -0.481 OA
ATOM      4  C   LIG A   1       0.733   4.534  -0.617  0.00  0.00    +0.060 C 
ATOM      5  C   LIG A   1       0.582   2.733   1.077  0.00  0.00    +0.020 C 
ATOM      6  C   LIG A   1       0.875   1.440   1.239  0.00  0.00    +0.015 C 
ATOM      7  C   LIG A   1       0.568   0.517   0.149  0.00  0.00    +0.059 A 
ATOM      8  C   LIG A   1       0.151   1.032  -1.088  0.00  0.00    +0.139 A 
ATOM      9  C   LIG A   1      -0.119   0.178  -2.176  0.00  0.00    +0.041 A 
ATOM     10  C   LIG A   1       0.008  -1.208  -1.990  0.00  0.00    +0.138 A 
ATOM     11  C   LIG A   1       0.419  -1.730  -0.754  0.00  0.00    +0.102 A 
ATOM     12  C   LIG A   1       0.691  -0.872   0.313  0.00  0.00    +0.146 A 
ATOM     13  O   LIG A   1       1.125  -1.321   1.532  0.00  0.00    -0.482 OA
ATOM     14  C   LIG A   1       0.798  -2.682   1.835  0.00  0.00    +0.211 C 
ATOM     15  C   LIG A   1       1.262  -3.615   0.729  0.00  0.00    +0.129 C 
ATOM     16  C   LIG A   1       0.626  -3.179  -0.558  0.00  0.00    +0.174 C 
ATOM     17  O   LIG A   1       0.344  -3.968  -1.462  0.00  0.00    -0.292 OA
ENDROOT
BRANCH  14  18
ATOM     18  C   LIG A   1       1.466  -3.035   3.155  0.00  0.00    -0.007 A 
ATOM     19  C   LIG A   1       0.893  -3.991   4.010  0.00  0.00    +0.011 A 
ATOM     20  C   LIG A   1       1.508  -4.323   5.222  0.00  0.00    +0.046 A 
ATOM     21  C   LIG A   1       2.699  -3.700   5.582  0.00  0.00    +0.117 A 
ATOM     22  C   LIG A   1       3.285  -2.756   4.752  0.00  0.00    +0.046 A 
ATOM     23  C   LIG A   1       2.675  -2.430   3.541  0.00  0.00    +0.011 A 
BRANCH  21  24
ATOM     24  O   LIG A   1       3.331  -3.991   6.754  0.00  0.00    -0.507 OA
ATOM     25  H   LIG A   1       2.819  -4.668   7.225  0.00  0.00    +0.292 HD
ENDBRANCH  21  24
ENDBRANCH  14  18
BRANCH  10  26
ATOM     26  O   LIG A   1      -0.266  -2.025  -3.059  0.00  0.00    -0.505 OA
ATOM     27  H   LIG A   1      -0.128  -2.960  -2.787  0.00  0.00    +0.292 HD
ENDBRANCH  10  26
BRANCH   9  28
ATOM     28  C   LIG A   1      -0.561   0.749  -3.510  0.00  0.00    +0.069 C 
BRANCH  28  29
ATOM     29  C   LIG A   1      -2.061   0.847  -3.624  0.00  0.00    -0.023 C 
ATOM     30  C   LIG A   1      -2.813   1.947  -3.830  0.00  0.00    -0.079 C 
ATOM     31  C   LIG A   1      -2.285   3.345  -3.987  0.00  0.00    +0.038 C 
ATOM     32  C   LIG A   1      -4.313   1.843  -3.924  0.00  0.00    +0.038 C 
ENDBRANCH  28  29
ENDBRANCH   9  28
TORSDOF 5
