@<TRIPOS>MOLECULE
NuBBE_2145
 54 53 0 0 0
SMALL
GASTEIGER

@<TRIPOS>ATOM
      1 O          -0.7291    6.4642    1.2491 O.3     1  LIG1       -0.4806
      2 C          -1.2138    5.8404    2.3443 C.2     1  LIG1        0.3047
      3 C          -1.4331    4.3699    2.1176 C.3     1  LIG1        0.0448
      4 C          -0.1743    3.5910    2.4851 C.3     1  LIG1       -0.0430
      5 C           1.0109    3.8268    1.5405 C.3     1  LIG1       -0.0526
      6 C           0.7584    3.6344    0.0349 C.3     1  LIG1       -0.0530
      7 C           0.3941    2.2044   -0.4035 C.3     1  LIG1       -0.0528
      8 C          -0.9455    1.6863    0.1315 C.3     1  LIG1       -0.0496
      9 C          -1.2879    0.2606   -0.2735 C.3     1  LIG1       -0.0348
     10 C          -2.5441   -0.2101    0.4186 C.2     1  LIG1       -0.0879
     11 C          -2.8986   -1.4767    0.6973 C.2     1  LIG1       -0.0879
     12 C          -2.2319   -2.7665    0.2920 C.3     1  LIG1       -0.0348
     13 C          -0.7843   -3.0100    0.7300 C.3     1  LIG1       -0.0496
     14 C          -0.2190   -4.3547    0.2439 C.3     1  LIG1       -0.0528
     15 C          -0.1692   -4.5718   -1.2802 C.3     1  LIG1       -0.0530
     16 C           0.7257   -3.6051   -2.0793 C.3     1  LIG1       -0.0531
     17 C           2.2061   -3.7359   -1.6992 C.3     1  LIG1       -0.0533
     18 C           3.1855   -2.8392   -2.4617 C.3     1  LIG1       -0.0559
     19 C           2.9458   -1.3533   -2.2560 C.3     1  LIG1       -0.0653
     20 O          -1.3794    6.4298    3.3738 O.2     1  LIG1       -0.2510
     21 H          -0.5860    7.3856    1.5472 H       1  LIG1        0.2951
     22 H          -1.7648    4.2231    1.0882 H       1  LIG1        0.0377
     23 H          -2.2742    4.0549    2.7435 H       1  LIG1        0.0377
     24 H          -0.3913    2.5297    2.5605 H       1  LIG1        0.0270
     25 H           0.1267    3.8134    3.5134 H       1  LIG1        0.0270
     26 H           1.8384    3.1755    1.8450 H       1  LIG1        0.0265
     27 H           1.3684    4.8525    1.7011 H       1  LIG1        0.0265
     28 H           1.6840    3.9206   -0.4878 H       1  LIG1        0.0265
     29 H           0.0020    4.3393   -0.3278 H       1  LIG1        0.0265
     30 H           1.2067    1.5309   -0.1063 H       1  LIG1        0.0265
     31 H           0.3570    2.1883   -1.4997 H       1  LIG1        0.0265
     32 H          -1.7512    2.3829   -0.1212 H       1  LIG1        0.0268
     33 H          -0.9074    1.6021    1.2048 H       1  LIG1        0.0268
     34 H          -0.4449   -0.3440    0.0565 H       1  LIG1        0.0307
     35 H          -1.3902    0.1921   -1.3560 H       1  LIG1        0.0307
     36 H          -3.2451    0.5697    0.7266 H       1  LIG1        0.0569
     37 H          -3.8593   -1.6130    1.1986 H       1  LIG1        0.0569
     38 H          -2.3304   -2.8555   -0.7938 H       1  LIG1        0.0307
     39 H          -2.8383   -3.5781    0.7177 H       1  LIG1        0.0307
     40 H          -0.7438   -2.9932    1.8273 H       1  LIG1        0.0268
     41 H          -0.1140   -2.2238    0.3876 H       1  LIG1        0.0268
     42 H          -0.8184   -5.1609    0.6838 H       1  LIG1        0.0265
     43 H           0.7882   -4.4755    0.6594 H       1  LIG1        0.0265
     44 H          -1.1860   -4.5339   -1.6873 H       1  LIG1        0.0265
     45 H           0.1798   -5.5970   -1.4617 H       1  LIG1        0.0265
     46 H           0.3728   -2.5791   -1.9368 H       1  LIG1        0.0265
     47 H           0.6070   -3.8302   -3.1482 H       1  LIG1        0.0265
     48 H           2.5221   -4.7742   -1.8589 H       1  LIG1        0.0265
     49 H           2.3224   -3.5261   -0.6319 H       1  LIG1        0.0265
     50 H           3.1773   -3.0748   -3.5319 H       1  LIG1        0.0263
     51 H           4.1960   -3.0707   -2.0995 H       1  LIG1        0.0263
     52 H           1.9984   -1.0368   -2.7002 H       1  LIG1        0.0230
     53 H           3.7476   -0.7748   -2.7275 H       1  LIG1        0.0230
     54 H           2.9341   -1.1036   -1.1903 H       1  LIG1        0.0230
@<TRIPOS>BOND
     1     1     2    1
     2     2     3    1
     3     3     4    1
     4     4     5    1
     5     5     6    1
     6     6     7    1
     7     7     8    1
     8     8     9    1
     9     9    10    1
    10    10    11    2
    11    11    12    1
    12    12    13    1
    13    13    14    1
    14    14    15    1
    15    15    16    1
    16    16    17    1
    17    17    18    1
    18    18    19    1
    19     2    20    2
    20     1    21    1
    21     3    22    1
    22     3    23    1
    23     4    24    1
    24     4    25    1
    25     5    26    1
    26     5    27    1
    27     6    28    1
    28     6    29    1
    29     7    30    1
    30     7    31    1
    31     8    32    1
    32     8    33    1
    33     9    34    1
    34     9    35    1
    35    10    36    1
    36    11    37    1
    37    12    38    1
    38    12    39    1
    39    13    40    1
    40    13    41    1
    41    14    42    1
    42    14    43    1
    43    15    44    1
    44    15    45    1
    45    16    46    1
    46    16    47    1
    47    17    48    1
    48    17    49    1
    49    18    50    1
    50    18    51    1
    51    19    52    1
    52    19    53    1
    53    19    54    1
