@<TRIPOS>MOLECULE
NuBBE_1975
 18 17 0 0 0
SMALL
GASTEIGER

@<TRIPOS>ATOM
      1 S          -1.8248    0.2548   -0.9921 S.3     1  LIG1       -0.0887
      2 S          -0.7479    1.8968   -0.3558 S.3     1  LIG1       -0.0887
      3 C           0.9689    1.3981   -0.7131 C.3     1  LIG1        0.0218
      4 C           1.8992    2.4974   -0.2932 C.2     1  LIG1       -0.0805
      5 C           2.8423    2.3764    0.6553 C.2     1  LIG1       -0.1018
      6 C          -1.5069   -0.9323    0.3465 C.3     1  LIG1        0.0218
      7 C          -2.2291   -2.2232    0.0951 C.2     1  LIG1       -0.0805
      8 C          -1.6277   -3.4162    0.0854 C.2     1  LIG1       -0.1018
      9 H           1.0875    1.2051   -1.7840 H       1  LIG1        0.0427
     10 H           1.1928    0.4785   -0.1640 H       1  LIG1        0.0427
     11 H           1.8017    3.4486   -0.8125 H       1  LIG1        0.0575
     12 H           2.9924    1.4509    1.2002 H       1  LIG1        0.0532
     13 H           3.4785    3.2171    0.9116 H       1  LIG1        0.0532
     14 H          -1.8390   -0.5163    1.3015 H       1  LIG1        0.0427
     15 H          -0.4287   -1.1110    0.3932 H       1  LIG1        0.0427
     16 H          -3.3099   -2.1753   -0.0488 H       1  LIG1        0.0575
     17 H          -0.5559   -3.5171    0.2443 H       1  LIG1        0.0532
     18 H          -2.1934   -4.3321   -0.0697 H       1  LIG1        0.0532
@<TRIPOS>BOND
     1     1     2    1
     2     2     3    1
     3     3     4    1
     4     4     5    2
     5     1     6    1
     6     6     7    1
     7     7     8    2
     8     3     9    1
     9     3    10    1
    10     4    11    1
    11     5    12    1
    12     5    13    1
    13     6    14    1
    14     6    15    1
    15     7    16    1
    16     8    17    1
    17     8    18    1
