@<TRIPOS>MOLECULE
NuBBE_1827
 79 83 0 0 0
SMALL
GASTEIGER

@<TRIPOS>ATOM
      1 C           2.6712   -0.8574    0.1004 C.3     1  LIG1       -0.0619
      2 C           2.9500   -0.4198   -1.3409 C.3     1  LIG1       -0.0369
      3 H           3.3309    0.6075   -1.2480 H       1  LIG1        0.0304
      4 C           4.1418   -1.2541   -1.8604 C.3     1  LIG1       -0.0410
      5 H           4.8829   -1.3511   -1.0547 H       1  LIG1        0.0301
      6 C           3.6734   -2.6598   -2.2150 C.3     1  LIG1       -0.0492
      7 C           2.6662   -2.6524   -3.3440 C.3     1  LIG1       -0.0367
      8 C           1.4650   -1.6638   -3.2115 C.3     1  LIG1        0.0712
      9 C           0.1954   -2.3957   -2.6973 C.3     1  LIG1       -0.0362
     10 C          -0.2043   -2.0629   -1.2679 C.3     1  LIG1       -0.0424
     11 C          -0.5958   -0.5702   -1.0270 C.3     1  LIG1       -0.0051
     12 C          -0.6637   -0.2426    0.4926 C.2     1  LIG1       -0.0634
     13 C          -0.8733   -1.1706    1.4524 C.2     1  LIG1       -0.0836
     14 C          -1.1106   -0.7912    2.8870 C.3     1  LIG1       -0.0302
     15 C          -2.0218    0.4449    2.9047 C.3     1  LIG1       -0.0198
     16 H          -2.8658    0.1730    2.2450 H       1  LIG1        0.0318
     17 C          -2.6870    0.7708    4.2754 C.3     1  LIG1        0.0270
     18 C          -1.7387    0.6049    5.4770 C.3     1  LIG1       -0.0528
     19 C          -3.2439    2.2022    4.2339 C.2     1  LIG1        0.1392
     20 C          -3.5880    2.7916    2.8769 C.3     1  LIG1        0.0069
     21 C          -2.5079    2.6171    1.8003 C.3     1  LIG1       -0.0401
     22 C          -1.3476    1.6703    2.1948 C.3     1  LIG1       -0.0212
     23 C          -0.4669    1.1973    0.9625 C.3     1  LIG1       -0.0136
     24 H           0.5584    1.1654    1.3638 H       1  LIG1        0.0351
     25 C          -0.3683    2.1961   -0.1933 C.3     1  LIG1       -0.0455
     26 C           0.7228    1.7301   -1.1516 C.3     1  LIG1       -0.0460
     27 C           0.3818    0.3907   -1.8824 C.3     1  LIG1       -0.0189
     28 C           1.7438   -0.3444   -2.3650 C.3     1  LIG1       -0.0163
     29 H           2.1580    0.3740   -3.0886 H       1  LIG1        0.0320
     30 C          -0.3518    0.8848   -3.1820 C.3     1  LIG1       -0.0585
     31 C          -0.3760    2.4631    3.1143 C.3     1  LIG1       -0.0587
     32 O          -3.5068    2.8257    5.2645 O.2     1  LIG1       -0.2968
     33 C          -3.8964   -0.1594    4.5092 C.3     1  LIG1       -0.0528
     34 C          -2.0970   -0.4543   -1.4556 C.3     1  LIG1       -0.0553
     35 C           1.2402   -1.2848   -4.6977 C.2     1  LIG1        0.3112
     36 O           0.5655   -2.2193   -5.4008 O.3     1  LIG1       -0.4802
     37 O           1.6916   -0.3175   -5.2885 O.2     1  LIG1       -0.2504
     38 C           4.8771   -0.5636   -3.0145 C.3     1  LIG1       -0.0622
     39 H           3.5774   -0.7403    0.7080 H       1  LIG1        0.0233
     40 H           2.3779   -1.9024    0.1919 H       1  LIG1        0.0233
     41 H           1.9247   -0.2385    0.5801 H       1  LIG1        0.0233
     42 H           3.2393   -3.1614   -1.3438 H       1  LIG1        0.0268
     43 H           4.5364   -3.2709   -2.5082 H       1  LIG1        0.0268
     44 H           2.3064   -3.6787   -3.4942 H       1  LIG1        0.0276
     45 H           3.2304   -2.4410   -4.2642 H       1  LIG1        0.0276
     46 H           0.3272   -3.4830   -2.7633 H       1  LIG1        0.0276
     47 H          -0.6693   -2.1862   -3.3377 H       1  LIG1        0.0276
     48 H           0.6024   -2.3794   -0.6073 H       1  LIG1        0.0274
     49 H          -1.0495   -2.7163   -1.0087 H       1  LIG1        0.0274
     50 H          -0.9892   -2.2241    1.2175 H       1  LIG1        0.0572
     51 H          -0.1567   -0.6221    3.3972 H       1  LIG1        0.0311
     52 H          -1.6078   -1.6316    3.3836 H       1  LIG1        0.0311
     53 H          -0.8630    1.2539    5.4166 H       1  LIG1        0.0239
     54 H          -1.3844   -0.4271    5.5724 H       1  LIG1        0.0239
     55 H          -2.2443    0.8545    6.4176 H       1  LIG1        0.0239
     56 H          -3.7972    3.8599    3.0067 H       1  LIG1        0.0342
     57 H          -4.5225    2.3228    2.5475 H       1  LIG1        0.0342
     58 H          -2.1178    3.6060    1.5274 H       1  LIG1        0.0275
     59 H          -3.0057    2.2372    0.8985 H       1  LIG1        0.0275
     60 H          -0.0889    3.1848    0.1891 H       1  LIG1        0.0271
     61 H          -1.3198    2.3218   -0.7168 H       1  LIG1        0.0271
     62 H           1.6471    1.6578   -0.5757 H       1  LIG1        0.0271
     63 H           0.9194    2.5277   -1.8803 H       1  LIG1        0.0271
     64 H           0.3237    1.4671   -3.8200 H       1  LIG1        0.0235
     65 H          -1.1907    1.5499   -2.9499 H       1  LIG1        0.0235
     66 H          -0.7472    0.0697   -3.7900 H       1  LIG1        0.0235
     67 H           0.1476    3.2425    2.5478 H       1  LIG1        0.0235
     68 H           0.3889    1.8058    3.5418 H       1  LIG1        0.0235
     69 H          -0.8742    2.9808    3.9365 H       1  LIG1        0.0235
     70 H          -3.5947   -1.2109    4.5537 H       1  LIG1        0.0239
     71 H          -4.6430   -0.0549    3.7136 H       1  LIG1        0.0239
     72 H          -4.4029    0.0811    5.4518 H       1  LIG1        0.0239
     73 H          -2.7399   -1.0908   -0.8326 H       1  LIG1        0.0238
     74 H          -2.2675   -0.7820   -2.4854 H       1  LIG1        0.0238
     75 H          -2.4854    0.5638   -1.3571 H       1  LIG1        0.0238
     76 H           0.5751   -1.8709   -6.3172 H       1  LIG1        0.2951
     77 H           4.2333   -0.3747   -3.8771 H       1  LIG1        0.0233
     78 H           5.7207   -1.1752   -3.3518 H       1  LIG1        0.0233
     79 H           5.2793    0.4010   -2.6860 H       1  LIG1        0.0233
@<TRIPOS>BOND
     1     1     2    1
     2     2     3    1
     3     2     4    1
     4     4     6    1
     5     6     7    1
     6     7     8    1
     7     8     9    1
     8     9    10    1
     9    10    11    1
    10    11    12    1
    11    12    13    2
    12    13    14    1
    13    14    15    1
    14    15    16    1
    15    15    17    1
    16    17    18    1
    17    17    19    1
    18    19    20    1
    19    20    21    1
    20    21    22    1
    21    22    23    1
    22    23    24    1
    23    12    23    1
    24    23    25    1
    25    25    26    1
    26    26    27    1
    27    27    28    1
    28     2    28    1
    29    28    29    1
    30    27    30    1
    31    15    22    1
    32    22    31    1
    33    19    32    2
    34    17    33    1
    35    27    11    1
    36    11    34    1
    37    28     8    1
    38     8    35    1
    39    35    36    1
    40    35    37    2
    41     4    38    1
    42     4     5    1
    43     1    39    1
    44     1    40    1
    45     1    41    1
    46     6    42    1
    47     6    43    1
    48     7    44    1
    49     7    45    1
    50     9    46    1
    51     9    47    1
    52    10    48    1
    53    10    49    1
    54    13    50    1
    55    14    51    1
    56    14    52    1
    57    18    53    1
    58    18    54    1
    59    18    55    1
    60    20    56    1
    61    20    57    1
    62    21    58    1
    63    21    59    1
    64    25    60    1
    65    25    61    1
    66    26    62    1
    67    26    63    1
    68    30    64    1
    69    30    65    1
    70    30    66    1
    71    31    67    1
    72    31    68    1
    73    31    69    1
    74    33    70    1
    75    33    71    1
    76    33    72    1
    77    34    73    1
    78    34    74    1
    79    34    75    1
    80    36    76    1
    81    38    77    1
    82    38    78    1
    83    38    79    1
