REMARK  Name = NuBBE_2419
REMARK  5 active torsions:
REMARK  status: ('A' for Active; 'I' for Inactive)
REMARK    1  A    between atoms: O_1  and  C_2
REMARK    2  A    between atoms: O_1  and  C_3
REMARK    3  A    between atoms: N_17  and  C_18
REMARK    4  A    between atoms: C_23  and  O_24
REMARK    5  A    between atoms: O_24  and  C_25
REMARK                            x       y       z     vdW  Elec       q    Type
REMARK                         _______ _______ _______ _____ _____    ______ ____
ROOT
ATOM      1  C   LIG A   1      -1.203   1.421   0.457  0.00  0.00    +0.170 A 
ATOM      2  C   LIG A   1      -0.368   0.260   0.263  0.00  0.00    +0.037 A 
ATOM      3  C   LIG A   1       1.024   0.520   0.051  0.00  0.00    +0.011 A 
ATOM      4  C   LIG A   1       1.951  -0.536  -0.194  0.00  0.00    +0.038 A 
ATOM      5  C   LIG A   1       1.450  -1.830  -0.348  0.00  0.00    +0.032 A 
ATOM      6  C   LIG A   1       0.112  -2.146  -0.144  0.00  0.00    -0.012 A 
ATOM      7  C   LIG A   1      -0.820  -1.128   0.227  0.00  0.00    -0.003 A 
ATOM      8  C   LIG A   1      -2.140  -1.585   0.503  0.00  0.00    +0.058 A 
ATOM      9  C   LIG A   1      -2.487  -2.912   0.336  0.00  0.00    +0.167 A 
ATOM     10  C   LIG A   1      -1.576  -3.840  -0.074  0.00  0.00    +0.167 A 
ATOM     11  C   LIG A   1      -0.273  -3.490  -0.308  0.00  0.00    +0.058 A 
ATOM     12  O   LIG A   1      -2.107  -5.084  -0.192  0.00  0.00    -0.453 OA
ATOM     13  C   LIG A   1      -3.474  -4.826   0.187  0.00  0.00    +0.466 C 
ATOM     14  O   LIG A   1      -3.719  -3.449   0.540  0.00  0.00    -0.453 OA
ATOM     15  N   LIG A   1       3.338  -0.274  -0.340  0.00  0.00    -0.332 N 
ATOM     16  C   LIG A   1       4.284  -1.386  -0.338  0.00  0.00    +0.129 C 
ATOM     17  C   LIG A   1       3.769   0.915   0.402  0.00  0.00    +0.109 C 
ATOM     18  C   LIG A   1       2.979   2.127  -0.067  0.00  0.00    +0.055 C 
ATOM     19  C   LIG A   1       1.501   1.855   0.076  0.00  0.00    -0.033 A 
ATOM     20  C   LIG A   1       0.639   2.948   0.192  0.00  0.00    +0.053 A 
ATOM     21  C   LIG A   1      -0.718   2.742   0.365  0.00  0.00    +0.162 A 
ENDROOT
BRANCH   1  22
ATOM     22  O   LIG A   1      -2.521   1.254   0.832  0.00  0.00    -0.491 OA
ATOM     23  C   LIG A   1      -3.426   1.489  -0.246  0.00  0.00    +0.277 C 
ENDBRANCH   1  22
BRANCH  21  24
ATOM     24  O   LIG A   1      -1.612   3.776   0.505  0.00  0.00    -0.491 OA
ATOM     25  C   LIG A   1      -1.290   4.961  -0.223  0.00  0.00    +0.277 C 
ENDBRANCH  21  24
TORSDOF 2
