@<TRIPOS>MOLECULE
NuBBE_2373
 50 52 0 0 0
SMALL
GASTEIGER

@<TRIPOS>ATOM
      1 O          -2.9117    2.0918    0.0903 O.3     1  LIG1       -0.5031
      2 C          -1.5624    2.0720   -0.1623 C.ar    1  LIG1        0.1623
      3 C          -0.9168    0.9841   -0.7578 C.ar    1  LIG1        0.0049
      4 C           0.4841    1.0388   -0.8862 C.ar    1  LIG1       -0.0399
      5 C           1.1867    2.1914   -0.4789 C.ar    1  LIG1       -0.0512
      6 C           0.5303    3.3004    0.0799 C.ar    1  LIG1        0.0005
      7 C          -0.8530    3.2141    0.2287 C.ar    1  LIG1        0.1620
      8 O          -1.5582    4.2553    0.7743 O.3     1  LIG1       -0.5031
      9 C           1.2970    4.5429    0.4983 C.3     1  LIG1       -0.0179
     10 C           1.8360    5.2888   -0.7250 C.3     1  LIG1       -0.0585
     11 C           2.4277    4.2232    1.4816 C.3     1  LIG1       -0.0585
     12 C           1.2521   -0.1505   -1.4147 C.3     1  LIG1       -0.0267
     13 C           1.1242   -1.3569   -0.4778 C.3     1  LIG1       -0.0420
     14 C          -0.1471   -2.2350   -0.6647 C.3     1  LIG1       -0.0141
     15 H          -0.1472   -2.5637   -1.7155 H       1  LIG1        0.0351
     16 C          -1.4711   -1.4750   -0.4958 C.2     1  LIG1       -0.0654
     17 C          -2.5098   -1.9729    0.2040 C.2     1  LIG1       -0.0842
     18 C          -2.5286   -3.3275    0.8368 C.3     1  LIG1       -0.0340
     19 C          -1.4463   -4.2357    0.2630 C.3     1  LIG1       -0.0439
     20 C          -0.0618   -3.5473    0.2208 C.3     1  LIG1       -0.0281
     21 C           0.9350   -4.5496   -0.4036 C.3     1  LIG1       -0.0593
     22 C           0.4019   -3.2623    1.6682 C.3     1  LIG1       -0.0593
     23 C          -1.6606   -0.2083   -1.3017 C.3     1  LIG1       -0.0024
     24 H          -3.1886    1.1712    0.2371 H       1  LIG1        0.2923
     25 H           2.2683    2.2196   -0.5994 H       1  LIG1        0.0624
     26 H          -2.4896    3.9591    0.7400 H       1  LIG1        0.2923
     27 H           0.6205    5.2294    1.0216 H       1  LIG1        0.0345
     28 H           2.5640    4.6883   -1.2815 H       1  LIG1        0.0235
     29 H           2.3308    6.2183   -0.4232 H       1  LIG1        0.0235
     30 H           1.0240    5.5500   -1.4130 H       1  LIG1        0.0235
     31 H           3.2170    3.6188    1.0223 H       1  LIG1        0.0235
     32 H           2.0475    3.6750    2.3507 H       1  LIG1        0.0235
     33 H           2.8914    5.1470    1.8448 H       1  LIG1        0.0235
     34 H           2.3152    0.1134   -1.4868 H       1  LIG1        0.0313
     35 H           0.9384   -0.3933   -2.4362 H       1  LIG1        0.0313
     36 H           1.1991   -1.0099    0.5604 H       1  LIG1        0.0274
     37 H           2.0035   -1.9851   -0.6610 H       1  LIG1        0.0274
     38 H          -3.4414   -1.4165    0.2767 H       1  LIG1        0.0572
     39 H          -3.5051   -3.7926    0.6571 H       1  LIG1        0.0308
     40 H          -2.4244   -3.2236    1.9223 H       1  LIG1        0.0308
     41 H          -1.7347   -4.5371   -0.7539 H       1  LIG1        0.0274
     42 H          -1.4047   -5.1592    0.8545 H       1  LIG1        0.0274
     43 H           0.6625   -4.7864   -1.4381 H       1  LIG1        0.0235
     44 H           0.9477   -5.4913    0.1576 H       1  LIG1        0.0235
     45 H           1.9589   -4.1637   -0.4075 H       1  LIG1        0.0235
     46 H          -0.1676   -2.4492    2.1297 H       1  LIG1        0.0235
     47 H           1.4616   -2.9874    1.7066 H       1  LIG1        0.0235
     48 H           0.2846   -4.1509    2.2995 H       1  LIG1        0.0235
     49 H          -2.7277    0.0263   -1.4023 H       1  LIG1        0.0360
     50 H          -1.3517   -0.3883   -2.3402 H       1  LIG1        0.0360
@<TRIPOS>BOND
     1     2     3   ar
     2     3     4   ar
     3     4     5   ar
     4     5     6   ar
     5     6     7   ar
     6     2     7   ar
     7     9    10    1
     8     9    11    1
     9     4    12    1
    10    12    13    1
    11    13    14    1
    12    14    16    1
    13    16    17    2
    14    17    18    1
    15    18    19    1
    16    19    20    1
    17    14    20    1
    18    16    23    1
    19     3    23    1
    20     1     2    1
    21     6     9    1
    22     7     8    1
    23    14    15    1
    24    20    21    1
    25    20    22    1
    26     1    24    1
    27     5    25    1
    28     8    26    1
    29     9    27    1
    30    10    28    1
    31    10    29    1
    32    10    30    1
    33    11    31    1
    34    11    32    1
    35    11    33    1
    36    12    34    1
    37    12    35    1
    38    13    36    1
    39    13    37    1
    40    17    38    1
    41    18    39    1
    42    18    40    1
    43    19    41    1
    44    19    42    1
    45    21    43    1
    46    21    44    1
    47    21    45    1
    48    22    46    1
    49    22    47    1
    50    22    48    1
    51    23    49    1
    52    23    50    1
