REMARK  Name = NuBBE_404
REMARK  10 active torsions:
REMARK  status: ('A' for Active; 'I' for Inactive)
REMARK    1  A    between atoms: C_1  and  C_2
REMARK    2  A    between atoms: C_2  and  S_3
REMARK    3  A    between atoms: S_3  and  S_4
REMARK    4  A    between atoms: S_4  and  S_5
REMARK    5  A    between atoms: S_5  and  C_6
REMARK    6  A    between atoms: C_6  and  S_7
REMARK    7  A    between atoms: S_7  and  S_8
REMARK    8  A    between atoms: S_8  and  S_9
REMARK    9  A    between atoms: S_9  and  C_10
REMARK   10  A    between atoms: C_10  and  C_11
REMARK                            x       y       z     vdW  Elec       q    Type
REMARK                         _______ _______ _______ _____ _____    ______ ____
ROOT
ATOM      1  C   LIG A   1      -1.001   2.441   2.522  0.00  0.00    +0.163 C 
ENDROOT
BRANCH   1   2
ATOM      2  S   LIG A   1      -1.362   0.948   1.571  0.00  0.00    -0.070 S 
BRANCH   2   3
ATOM      3  S   LIG A   1      -2.173  -0.293   2.994  0.00  0.00    -0.023 S 
BRANCH   3   4
ATOM      4  S   LIG A   1      -0.743  -0.502   4.457  0.00  0.00    -0.077 S 
BRANCH   4   5
ATOM      5  C   LIG A   1       0.705  -1.196   3.612  0.00  0.00    +0.116 C 
BRANCH   5   6
ATOM      6  C   LIG A   1       0.530  -2.575   3.042  0.00  0.00    -0.037 A 
ATOM      7  C   LIG A   1       0.952  -3.703   3.759  0.00  0.00    +0.004 A 
ATOM      8  C   LIG A   1       0.881  -4.971   3.183  0.00  0.00    +0.000 A 
ATOM      9  C   LIG A   1       0.356  -5.130   1.901  0.00  0.00    +0.000 A 
ATOM     10  C   LIG A   1      -0.100  -4.019   1.193  0.00  0.00    +0.000 A 
ATOM     11  C   LIG A   1       0.001  -2.751   1.753  0.00  0.00    +0.004 A 
ENDBRANCH   5   6
ENDBRANCH   4   5
ENDBRANCH   3   4
ENDBRANCH   2   3
ENDBRANCH   1   2
BRANCH   1  12
ATOM     12  S   LIG A   1      -0.511   3.849   1.488  0.00  0.00    -0.070 S 
BRANCH  12  13
ATOM     13  S   LIG A   1       1.400   3.400   0.873  0.00  0.00    -0.023 S 
BRANCH  13  14
ATOM     14  S   LIG A   1       1.172   2.187  -0.768  0.00  0.00    -0.077 S 
BRANCH  14  15
ATOM     15  C   LIG A   1       0.342   3.300  -1.952  0.00  0.00    +0.116 C 
BRANCH  15  16
ATOM     16  C   LIG A   1       0.022   2.585  -3.233  0.00  0.00    -0.037 A 
ATOM     17  C   LIG A   1       0.961   2.549  -4.277  0.00  0.00    +0.004 A 
ATOM     18  C   LIG A   1       0.679   1.859  -5.457  0.00  0.00    +0.000 A 
ATOM     19  C   LIG A   1      -0.542   1.200  -5.604  0.00  0.00    +0.000 A 
ATOM     20  C   LIG A   1      -1.478   1.225  -4.573  0.00  0.00    +0.000 A 
ATOM     21  C   LIG A   1      -1.198   1.916  -3.393  0.00  0.00    +0.004 A 
ENDBRANCH  15  16
ENDBRANCH  14  15
ENDBRANCH  13  14
ENDBRANCH  12  13
ENDBRANCH   1  12
TORSDOF 10
