@<TRIPOS>MOLECULE
NuBBE_1221
 47 49 0 0 0
SMALL
GASTEIGER

@<TRIPOS>ATOM
      1 O          -3.6086    0.7520    1.1186 O.2     1  LIG1       -0.2870
      2 C          -2.4987    0.5544    0.7670 C.ar    1  LIG1        0.1933
      3 C          -1.9959   -0.8082    0.5296 C.ar    1  LIG1        0.0287
      4 C          -0.7362   -0.9868    0.1281 C.ar    1  LIG1        0.1395
      5 O           0.1852    0.0427   -0.1087 O.2     1  LIG1       -0.4508
      6 C          -0.2200    1.3543    0.0776 C.ar    1  LIG1        0.1845
      7 C          -1.5033    1.6227    0.5303 C.ar    1  LIG1        0.0713
      8 C          -1.8989    2.9143    0.7913 C.ar    1  LIG1       -0.0017
      9 C          -1.0030    3.9805    0.6607 C.ar    1  LIG1        0.1661
     10 O          -1.6349    5.0959    1.1954 O.3     1  LIG1       -0.4913
     11 C          -0.8733    6.2386    1.0188 C.3     1  LIG1        0.0790
     12 C           0.3090    3.7912    0.1098 C.ar    1  LIG1        0.2073
     13 O           1.3201    4.7492    0.0215 O.3     1  LIG1       -0.4884
     14 C           1.2977    6.0089   -0.6959 C.3     1  LIG1        0.0791
     15 C           0.6877    2.4301   -0.1674 C.ar    1  LIG1        0.2086
     16 O           1.8974    2.0356   -0.7142 O.3     1  LIG1       -0.4884
     17 C           3.0037    2.9018   -0.4899 C.3     1  LIG1        0.0791
     18 C          -0.2140   -2.3511   -0.0882 C.ar    1  LIG1        0.0211
     19 C           1.1302   -2.6560    0.1107 C.ar    1  LIG1       -0.0474
     20 C           1.6053   -3.9526   -0.1098 C.ar    1  LIG1       -0.0156
     21 C           0.7326   -4.9774   -0.5054 C.ar    1  LIG1        0.1615
     22 C          -0.6319   -4.6916   -0.6799 C.ar    1  LIG1        0.1622
     23 O          -1.5028   -5.6981   -1.0317 O.3     1  LIG1       -0.4914
     24 C          -2.8572   -5.5082   -0.6004 C.3     1  LIG1        0.0790
     25 C          -1.0700   -3.3759   -0.5100 C.ar    1  LIG1       -0.0056
     26 O           1.1663   -6.2498   -0.7806 O.3     1  LIG1       -0.4915
     27 C           2.2669   -6.7036    0.0040 C.3     1  LIG1        0.0790
     28 H          -2.7236   -1.5897    0.7175 H       1  LIG1        0.0693
     29 H          -2.9115    3.1115    1.1393 H       1  LIG1        0.0664
     30 H          -0.5651    6.0597    0.0219 H       1  LIG1        0.0660
     31 H          -0.0796    6.3177    1.7746 H       1  LIG1        0.0660
     32 H          -1.3525    7.1933    0.7937 H       1  LIG1        0.0660
     33 H           0.6358    5.9961   -1.5724 H       1  LIG1        0.0660
     34 H           2.2993    6.3598   -0.9583 H       1  LIG1        0.0660
     35 H           1.0319    6.8366   -0.0217 H       1  LIG1        0.0660
     36 H           3.0302    3.2288    0.5551 H       1  LIG1        0.0660
     37 H           2.9882    3.7449   -1.1904 H       1  LIG1        0.0660
     38 H           3.9327    2.3606   -0.6804 H       1  LIG1        0.0660
     39 H           1.8263   -1.8816    0.4261 H       1  LIG1        0.0626
     40 H           2.6681   -4.1288    0.0215 H       1  LIG1        0.0655
     41 H          -3.4583   -6.3573   -0.9357 H       1  LIG1        0.0660
     42 H          -3.3246   -4.6232   -1.0462 H       1  LIG1        0.0660
     43 H          -2.9113   -5.4575    0.4936 H       1  LIG1        0.0660
     44 H          -2.0987   -3.1243   -0.7327 H       1  LIG1        0.0662
     45 H           3.2186   -6.2993   -0.3600 H       1  LIG1        0.0660
     46 H           2.3136   -7.7922   -0.0915 H       1  LIG1        0.0660
     47 H           2.1270   -6.4676    1.0647 H       1  LIG1        0.0660
@<TRIPOS>BOND
     1     1     2    2
     2     2     3   ar
     3     3     4   ar
     4     4     5   ar
     5     5     6   ar
     6     6     7   ar
     7     2     7   ar
     8     7     8   ar
     9     8     9   ar
    10     9    10    1
    11    10    11    1
    12     9    12   ar
    13    12    13    1
    14    13    14    1
    15    12    15   ar
    16     6    15   ar
    17    15    16    1
    18    16    17    1
    19     4    18    1
    20    18    19   ar
    21    19    20   ar
    22    20    21   ar
    23    21    22   ar
    24    22    23    1
    25    23    24    1
    26    22    25   ar
    27    18    25   ar
    28    21    26    1
    29    26    27    1
    30     3    28    1
    31     8    29    1
    32    11    30    1
    33    11    31    1
    34    11    32    1
    35    14    33    1
    36    14    34    1
    37    14    35    1
    38    17    36    1
    39    17    37    1
    40    17    38    1
    41    19    39    1
    42    20    40    1
    43    24    41    1
    44    24    42    1
    45    24    43    1
    46    25    44    1
    47    27    45    1
    48    27    46    1
    49    27    47    1
