REMARK  Name = NuBBE_1905
REMARK  16 active torsions:
REMARK  status: ('A' for Active; 'I' for Inactive)
REMARK    1  A    between atoms: C_2  and  C_3
REMARK    2  A    between atoms: C_2  and  O_4
REMARK    3  A    between atoms: O_4  and  C_5
REMARK    4  A    between atoms: C_5  and  C_6
REMARK    5  A    between atoms: C_9  and  C_10
REMARK    6  A    between atoms: C_10  and  O_11
REMARK    7  A    between atoms: O_11  and  C_12
REMARK    8  A    between atoms: C_16  and  C_18
REMARK    9  A    between atoms: C_18  and  C_19
REMARK   10  A    between atoms: C_18  and  C_20
REMARK   11  A    between atoms: C_18  and  O_21
REMARK   12  A    between atoms: O_21  and  C_22
REMARK   13  A    between atoms: C_22  and  C_23
REMARK   14  A    between atoms: C_25  and  O_27
REMARK   15  A    between atoms: O_27  and  C_28
REMARK   16  A    between atoms: C_28  and  C_29
REMARK                            x       y       z     vdW  Elec       q    Type
REMARK                         _______ _______ _______ _____ _____    ______ ____
ROOT
ATOM      1  C   LIG A   1      -0.577   0.984  -1.932  0.00  0.00    -0.006 A 
ATOM      2  C   LIG A   1      -1.039   2.300  -1.801  0.00  0.00    +0.007 A 
ATOM      3  C   LIG A   1      -0.786   3.038  -0.649  0.00  0.00    +0.007 A 
ATOM      4  C   LIG A   1      -0.052   2.497   0.423  0.00  0.00    -0.011 A 
ATOM      5  C   LIG A   1       0.406   1.164   0.309  0.00  0.00    +0.030 A 
ATOM      6  C   LIG A   1       0.105   0.386  -0.840  0.00  0.00    -0.029 A 
ATOM      7  C   LIG A   1       0.494  -1.080  -0.939  0.00  0.00    +0.047 C 
ATOM      8  C   LIG A   1       1.107  -1.747   0.316  0.00  0.00    +0.085 C 
ATOM      9  C   LIG A   1       2.014  -0.719   1.010  0.00  0.00    +0.254 C 
ATOM     10  C   LIG A   1       1.212   0.506   1.397  0.00  0.00    +0.204 C 
ATOM     11  O   LIG A   1       1.274   0.960   2.519  0.00  0.00    -0.288 OA
ENDROOT
BRANCH   8  12
ATOM     12  C   LIG A   1       0.035  -2.515   1.193  0.00  0.00    +0.115 C 
ATOM     13  C   LIG A   1      -0.589  -3.669   0.372  0.00  0.00    +0.056 C 
ATOM     14  C   LIG A   1       0.675  -3.237   2.408  0.00  0.00    +0.056 C 
BRANCH  12  15
ATOM     15  O   LIG A   1      -0.938  -1.572   1.749  0.00  0.00    -0.458 OA
BRANCH  15  16
ATOM     16  C   LIG A   1      -2.295  -1.652   1.501  0.00  0.00    +0.304 C 
ATOM     17  C   LIG A   1      -3.097  -0.717   2.319  0.00  0.00    +0.136 C 
ATOM     18  O   LIG A   1      -2.834  -2.388   0.682  0.00  0.00    -0.251 OA
ENDBRANCH  15  16
ENDBRANCH  12  15
ENDBRANCH   8  12
BRANCH   1  19
ATOM     19  C   LIG A   1      -0.840   0.286  -3.256  0.00  0.00    +0.268 C 
BRANCH  19  20
ATOM     20  O   LIG A   1      -2.113  -0.370  -3.241  0.00  0.00    -0.460 OA
BRANCH  20  22
ATOM     21  O   LIG A   1      -3.049   1.413  -4.352  0.00  0.00    -0.251 OA
ATOM     22  C   LIG A   1      -3.134   0.320  -3.829  0.00  0.00    +0.304 C 
ATOM     23  C   LIG A   1      -4.421  -0.462  -3.728  0.00  0.00    +0.136 C 
ENDBRANCH  20  22
ENDBRANCH  19  20
ENDBRANCH   1  19
BRANCH   4  24
ATOM     24  C   LIG A   1       0.180   3.405   1.613  0.00  0.00    +0.195 C 
BRANCH  24  25
ATOM     25  O   LIG A   1       1.421   4.102   1.499  0.00  0.00    -0.378 OA
ATOM     26  C   LIG A   1       1.635   4.934   2.639  0.00  0.00    +0.194 C 
ENDBRANCH  24  25
ENDBRANCH   4  24
BRANCH   9  27
ATOM     27  O   LIG A   1       3.039  -0.221   0.107  0.00  0.00    -0.453 OA
BRANCH  27  28
ATOM     28  C   LIG A   1       4.171  -0.931   0.011  0.00  0.00    +0.305 C 
ATOM     29  C   LIG A   1       5.189  -0.282  -0.898  0.00  0.00    +0.136 C 
ATOM     30  O   LIG A   1       4.372  -2.012   0.566  0.00  0.00    -0.251 OA
ENDBRANCH  27  28
ENDBRANCH   9  27
TORSDOF 10
