REMARK  Name = NuBBE_1100
REMARK  3 active torsions:
REMARK  status: ('A' for Active; 'I' for Inactive)
REMARK    1  A    between atoms: N_8  and  C_9
REMARK    2  A    between atoms: C_14  and  C_15
REMARK    3  A    between atoms: C_14  and  C_16
REMARK                            x       y       z     vdW  Elec       q    Type
REMARK                         _______ _______ _______ _____ _____    ______ ____
ROOT
ATOM      1  O   LIG A   1      -4.043  -1.956  -0.024  0.00  0.00    -0.286 OA
ATOM      2  C   LIG A   1      -2.817  -2.005  -0.026  0.00  0.00    +0.200 A 
ATOM      3  C   LIG A   1      -2.098  -3.241  -0.025  0.00  0.00    +0.085 A 
ATOM      4  C   LIG A   1      -0.731  -3.221  -0.025  0.00  0.00    +0.212 A 
ATOM      5  O   LIG A   1      -0.238  -4.486  -0.023  0.00  0.00    -0.447 OA
ATOM      6  C   LIG A   1      -1.312  -5.322  -0.022  0.00  0.00    +0.198 A 
ATOM      7  C   LIG A   1      -2.486  -4.601  -0.023  0.00  0.00    +0.055 A 
ATOM      8  N   LIG A   1       0.077  -2.131  -0.026  0.00  0.00    -0.313 N 
ATOM      9  C   LIG A   1       1.510  -2.380  -0.021  0.00  0.00    +0.152 C 
ATOM     10  C   LIG A   1      -0.521  -0.830  -0.034  0.00  0.00    +0.066 A 
ATOM     11  C   LIG A   1       0.172   0.427  -0.044  0.00  0.00    +0.041 A 
ATOM     12  C   LIG A   1      -0.578   1.634  -0.046  0.00  0.00    +0.131 A 
ATOM     13  O   LIG A   1      -0.051   2.901  -0.063  0.00  0.00    -0.482 OA
ATOM     14  C   LIG A   1       1.366   3.090   0.029  0.00  0.00    +0.123 C 
ATOM     15  C   LIG A   1       1.645   3.805   1.354  0.00  0.00    +0.060 C 
ATOM     16  C   LIG A   1       1.768   3.976  -1.155  0.00  0.00    +0.060 C 
ATOM     17  C   LIG A   1       2.169   1.832  -0.024  0.00  0.00    +0.020 C 
ATOM     18  C   LIG A   1       1.627   0.615  -0.064  0.00  0.00    +0.013 C 
ATOM     19  C   LIG A   1      -1.973   1.641  -0.044  0.00  0.00    +0.047 A 
ATOM     20  C   LIG A   1      -2.670   0.449  -0.036  0.00  0.00    +0.017 A 
ATOM     21  C   LIG A   1      -1.967  -0.763  -0.032  0.00  0.00    +0.047 A 
ENDROOT
TORSDOF 0
