REMARK  Name = NuBBE_2467
REMARK  9 active torsions:
REMARK  status: ('A' for Active; 'I' for Inactive)
REMARK    1  A    between atoms: C_1  and  O_2
REMARK    2  A    between atoms: O_2  and  C_3
REMARK    3  A    between atoms: C_5  and  C_6
REMARK    4  A    between atoms: C_14  and  C_18
REMARK    5  A    between atoms: C_20  and  O_21
REMARK    6  A    between atoms: O_21  and  C_22
REMARK    7  A    between atoms: C_23  and  O_24
REMARK    8  A    between atoms: O_24  and  C_25
REMARK    9  A    between atoms: C_30  and  O_31
REMARK                            x       y       z     vdW  Elec       q    Type
REMARK                         _______ _______ _______ _____ _____    ______ ____
ROOT
ATOM      1  C   LIG A   1       1.998   0.240   0.480  0.00  0.00    +0.154 C 
ATOM      2  C   LIG A   1       0.926   0.058  -0.603  0.00  0.00    +0.056 C 
ATOM      3  C   LIG A   1      -0.366   0.294   0.124  0.00  0.00    +0.056 C 
ATOM      4  C   LIG A   1       0.026   1.292   1.183  0.00  0.00    +0.167 C 
ATOM      5  O   LIG A   1       1.366   0.967   1.563  0.00  0.00    -0.371 OA
ATOM      6  C   LIG A   1      -0.712  -1.094   0.665  0.00  0.00    +0.154 C 
ATOM      7  O   LIG A   1       0.025  -2.061  -0.109  0.00  0.00    -0.371 OA
ATOM      8  C   LIG A   1       0.804  -1.367  -1.086  0.00  0.00    +0.167 C 
ENDROOT
BRANCH   1  11
ATOM      9  C   LIG A   1       4.830   1.543  -1.774  0.00  0.00    +0.162 A 
ATOM     10  C   LIG A   1       3.719   0.829  -1.308  0.00  0.00    +0.055 A 
ATOM     11  C   LIG A   1       3.238   0.981   0.006  0.00  0.00    -0.015 A 
ATOM     12  C   LIG A   1       3.963   1.794   0.880  0.00  0.00    +0.010 A 
ATOM     13  C   LIG A   1       5.090   2.493   0.437  0.00  0.00    +0.049 A 
ATOM     14  C   LIG A   1       5.511   2.377  -0.891  0.00  0.00    +0.159 A 
BRANCH   9  16
ATOM     15  C   LIG A   1       5.706   2.349  -3.822  0.00  0.00    +0.277 C 
ATOM     16  O   LIG A   1       5.139   1.279  -3.081  0.00  0.00    -0.491 OA
ENDBRANCH   9  16
BRANCH  14  17
ATOM     17  O   LIG A   1       6.621   3.071  -1.289  0.00  0.00    -0.503 OA
ATOM     18  H   LIG A   1       6.985   3.546  -0.523  0.00  0.00    +0.292 HD
ENDBRANCH  14  17
ENDBRANCH   1  11
BRANCH   6  19
ATOM     19  C   LIG A   1      -2.194  -1.372   0.573  0.00  0.00    -0.015 A 
ATOM     20  C   LIG A   1      -3.008  -1.014   1.654  0.00  0.00    +0.055 A 
ATOM     21  C   LIG A   1      -4.397  -1.217   1.615  0.00  0.00    +0.162 A 
ATOM     22  C   LIG A   1      -4.970  -1.816   0.484  0.00  0.00    +0.162 A 
ATOM     23  C   LIG A   1      -4.164  -2.146  -0.612  0.00  0.00    +0.050 A 
ATOM     24  C   LIG A   1      -2.785  -1.926  -0.560  0.00  0.00    +0.010 A 
BRANCH  21  25
ATOM     25  O   LIG A   1      -5.236  -0.872   2.652  0.00  0.00    -0.491 OA
ATOM     26  C   LIG A   1      -4.630  -0.281   3.796  0.00  0.00    +0.277 C 
ENDBRANCH  21  25
BRANCH  22  27
ATOM     27  O   LIG A   1      -6.335  -2.008   0.492  0.00  0.00    -0.491 OA
ATOM     28  C   LIG A   1      -6.816  -3.057  -0.341  0.00  0.00    +0.277 C 
ENDBRANCH  22  27
ENDBRANCH   6  19
TORSDOF 6
