@<TRIPOS>MOLECULE
NuBBE_2383
 60 62 0 0 0
SMALL
GASTEIGER

@<TRIPOS>ATOM
      1 C          -0.6447   -3.0971   -2.1271 C.3     1  LIG1       -0.0310
      2 C          -0.6411   -2.1995   -0.8240 C.3     1  LIG1       -0.0190
      3 C          -0.5654   -0.6161   -1.1025 C.3     1  LIG1        0.0755
      4 C          -2.0878   -0.1435   -1.2284 C.3     1  LIG1        0.2362
      5 O          -2.3268    1.1163   -1.8133 O.2     1  LIG1       -0.5067
      6 O          -2.7597   -0.1668    0.0206 O.2     1  LIG1       -0.5067
      7 C           0.0969    0.2064    0.0751 C.ar    1  LIG1        0.0146
      8 C           0.2067    1.6401    0.0493 C.ar    1  LIG1        0.1660
      9 C           0.5053    2.3622    1.2433 C.ar    1  LIG1        0.1652
     10 O           0.3410    3.7279    1.3682 O.3     1  LIG1       -0.4912
     11 C          -0.8267    4.3045    0.7693 C.3     1  LIG1        0.0790
     12 C           0.9813    1.6955    2.3818 C.ar    1  LIG1        0.0008
     13 C           0.9650    0.2878    2.3611 C.ar    1  LIG1       -0.0512
     14 C           0.4983   -0.4359    1.2441 C.ar    1  LIG1       -0.0394
     15 C           0.3896   -1.9199    1.4486 C.3     1  LIG1       -0.0270
     16 C           0.4727   -2.6598    0.1387 C.3     1  LIG1       -0.0447
     17 C           1.4650    2.4029    3.6513 C.3     1  LIG1       -0.0179
     18 C           2.5713    1.6477    4.4313 C.3     1  LIG1       -0.0585
     19 C           0.3161    2.6863    4.6245 C.3     1  LIG1       -0.0585
     20 O          -0.0798    2.2375   -1.1556 O.3     1  LIG1       -0.4911
     21 C           0.6857    3.3764   -1.5609 C.3     1  LIG1        0.0790
     22 C           0.2061   -0.3732   -2.4440 C.3     1  LIG1       -0.0361
     23 C           1.2143   -1.4527   -2.8382 C.3     1  LIG1       -0.0515
     24 C           0.6695   -2.8802   -2.9027 C.3     1  LIG1       -0.0476
     25 C          -0.7852   -4.6006   -1.7682 C.3     1  LIG1       -0.0595
     26 C          -1.8369   -2.8267   -3.0761 C.3     1  LIG1       -0.0595
     27 H          -1.5850   -2.4066   -0.2974 H       1  LIG1        0.0317
     28 H          -2.6312   -0.8399   -1.8610 H       1  LIG1        0.1202
     29 H          -1.6578    1.7111   -1.4325 H       1  LIG1        0.2872
     30 H          -3.7000   -0.0747   -0.2063 H       1  LIG1        0.2872
     31 H          -1.5505    4.5951    1.5322 H       1  LIG1        0.0660
     32 H          -1.3637    3.6697    0.0603 H       1  LIG1        0.0660
     33 H          -0.5042    5.2131    0.2473 H       1  LIG1        0.0660
     34 H           1.2655   -0.2719    3.2319 H       1  LIG1        0.0624
     35 H          -0.5541   -2.1385    1.9594 H       1  LIG1        0.0313
     36 H           1.2041   -2.2763    2.0924 H       1  LIG1        0.0313
     37 H           0.3761   -3.7227    0.3770 H       1  LIG1        0.0272
     38 H           1.4674   -2.5247   -0.2980 H       1  LIG1        0.0272
     39 H           1.9146    3.3613    3.3594 H       1  LIG1        0.0345
     40 H           2.2402    0.6666    4.7897 H       1  LIG1        0.0235
     41 H           2.8743    2.2058    5.3250 H       1  LIG1        0.0235
     42 H           3.4614    1.4978    3.8117 H       1  LIG1        0.0235
     43 H          -0.1593    1.7592    4.9641 H       1  LIG1        0.0235
     44 H          -0.4522    3.3146    4.1650 H       1  LIG1        0.0235
     45 H           0.6847    3.2116    5.5146 H       1  LIG1        0.0235
     46 H           1.0946    3.1946   -2.5581 H       1  LIG1        0.0660
     47 H           1.5042    3.6420   -0.8870 H       1  LIG1        0.0660
     48 H           0.0010    4.2239   -1.6758 H       1  LIG1        0.0660
     49 H           0.7776    0.5571   -2.4271 H       1  LIG1        0.0276
     50 H          -0.5023   -0.2448   -3.2690 H       1  LIG1        0.0276
     51 H           2.0584   -1.4182   -2.1387 H       1  LIG1        0.0266
     52 H           1.6431   -1.1992   -3.8160 H       1  LIG1        0.0266
     53 H           1.4515   -3.5504   -2.5206 H       1  LIG1        0.0271
     54 H           0.5379   -3.1720   -3.9527 H       1  LIG1        0.0271
     55 H           0.0839   -4.9946   -1.2349 H       1  LIG1        0.0235
     56 H          -0.8921   -5.2157   -2.6697 H       1  LIG1        0.0235
     57 H          -1.6732   -4.7691   -1.1473 H       1  LIG1        0.0235
     58 H          -1.8571   -3.5544   -3.8974 H       1  LIG1        0.0235
     59 H          -1.7967   -1.8499   -3.5591 H       1  LIG1        0.0235
     60 H          -2.7918   -2.9198   -2.5475 H       1  LIG1        0.0235
@<TRIPOS>BOND
     1     1     2    1
     2     2     3    1
     3     4     5    1
     4     4     6    1
     5     3     7    1
     6     7     8   ar
     7     8     9   ar
     8    10    11    1
     9     9    12   ar
    10    12    13   ar
    11    13    14   ar
    12     7    14   ar
    13    14    15    1
    14    15    16    1
    15     2    16    1
    16    17    18    1
    17    17    19    1
    18    20    21    1
    19     3    22    1
    20    22    23    1
    21    23    24    1
    22     1    24    1
    23     1    25    1
    24     1    26    1
    25     3     4    1
    26     8    20    1
    27     9    10    1
    28    12    17    1
    29     2    27    1
    30     4    28    1
    31     5    29    1
    32     6    30    1
    33    11    31    1
    34    11    32    1
    35    11    33    1
    36    13    34    1
    37    15    35    1
    38    15    36    1
    39    16    37    1
    40    16    38    1
    41    17    39    1
    42    18    40    1
    43    18    41    1
    44    18    42    1
    45    19    43    1
    46    19    44    1
    47    19    45    1
    48    21    46    1
    49    21    47    1
    50    21    48    1
    51    22    49    1
    52    22    50    1
    53    23    51    1
    54    23    52    1
    55    24    53    1
    56    24    54    1
    57    25    55    1
    58    25    56    1
    59    25    57    1
    60    26    58    1
    61    26    59    1
    62    26    60    1
