@<TRIPOS>MOLECULE
NuBBE_87
 74 78 0 0 0
SMALL
GASTEIGER

@<TRIPOS>ATOM
      1 O          -5.9290   -2.4693    1.5259 O.2     1  LIG1       -0.2840
      2 C          -4.8236   -2.0436    1.8523 C.2     1  LIG1        0.2206
      3 C          -4.0174   -2.7766    2.8642 C.2     1  LIG1        0.1671
      4 O          -4.5513   -3.9613    3.3424 O.2     1  LIG1       -0.5030
      5 C          -2.8256   -2.2987    3.2678 C.2     1  LIG1        0.0022
      6 C          -1.9693   -3.0785    4.2338 C.3     1  LIG1       -0.0356
      7 C          -2.3263   -1.0217    2.7090 C.2     1  LIG1       -0.0144
      8 C          -1.1890   -0.4666    3.1656 C.2     1  LIG1       -0.0539
      9 C          -0.5186    0.6334    2.5240 C.2     1  LIG1       -0.0606
     10 C          -1.0186    1.2713    1.4482 C.2     1  LIG1       -0.0529
     11 C          -0.1298    2.1490    0.4894 C.3     1  LIG1       -0.0043
     12 C           1.3517    2.2905    1.0268 C.3     1  LIG1       -0.0429
     13 C           2.3755    2.6504   -0.0458 C.3     1  LIG1       -0.0465
     14 C           2.5250    1.5259   -1.1010 C.3     1  LIG1       -0.0286
     15 C           2.9335    2.1993   -2.4379 C.3     1  LIG1       -0.0593
     16 C           1.2317    0.6408   -1.1405 C.3     1  LIG1       -0.0284
     17 H           1.2430    0.0166   -0.2330 H       1  LIG1        0.0312
     18 C           1.3237   -0.4033   -2.2746 C.3     1  LIG1       -0.0336
     19 C           2.5843   -1.3098   -2.1632 C.3     1  LIG1        0.0653
     20 C           2.8520   -1.9428   -3.5499 C.3     1  LIG1       -0.0494
     21 C           2.3484   -2.4370   -1.1304 C.2     1  LIG1        0.3128
     22 O           1.8933   -3.5700   -1.7352 O.3     1  LIG1       -0.4675
     23 C           2.0433   -4.7913   -1.0067 C.3     1  LIG1        0.0817
     24 O           2.5916   -2.3413    0.0606 O.2     1  LIG1       -0.2502
     25 C           3.8764   -0.5575   -1.7411 C.3     1  LIG1       -0.0370
     26 C           3.6753    0.5613   -0.7096 C.3     1  LIG1       -0.0464
     27 C          -0.6889    3.5969    0.4849 C.3     1  LIG1       -0.0553
     28 C          -0.1139    1.4620   -0.9861 C.3     1  LIG1       -0.0196
     29 C          -0.2624    2.4966   -2.1309 C.3     1  LIG1       -0.0585
     30 C          -1.3237    0.4832   -1.1469 C.3     1  LIG1       -0.0455
     31 C          -2.6001    1.0194   -0.5019 C.3     1  LIG1       -0.0393
     32 C          -2.4964    1.0028    1.0463 C.3     1  LIG1        0.0154
     33 C          -3.4046    2.1083    1.6473 C.3     1  LIG1       -0.0517
     34 C          -3.0527   -0.3352    1.6239 C.2     1  LIG1       -0.0262
     35 C          -4.2525   -0.8260    1.2507 C.2     1  LIG1       -0.0067
     36 H          -5.4168   -4.0458    2.8879 H       1  LIG1        0.2923
     37 H          -2.3975   -4.0525    4.4916 H       1  LIG1        0.0279
     38 H          -1.8378   -2.5271    5.1704 H       1  LIG1        0.0279
     39 H          -0.9844   -3.2807    3.7969 H       1  LIG1        0.0279
     40 H          -0.6191   -0.9131    3.9758 H       1  LIG1        0.0624
     41 H           0.4904    0.7834    2.8896 H       1  LIG1        0.0618
     42 H           1.7178    1.3611    1.4724 H       1  LIG1        0.0274
     43 H           1.3883    3.0402    1.8284 H       1  LIG1        0.0274
     44 H           3.3433    2.8483    0.4322 H       1  LIG1        0.0271
     45 H           2.0860    3.5975   -0.5137 H       1  LIG1        0.0271
     46 H           2.2532    2.9925   -2.7480 H       1  LIG1        0.0235
     47 H           2.9985    1.4994   -3.2744 H       1  LIG1        0.0235
     48 H           3.9203    2.6685   -2.3375 H       1  LIG1        0.0235
     49 H           1.3051    0.1064   -3.2443 H       1  LIG1        0.0279
     50 H           0.4409   -1.0525   -2.2673 H       1  LIG1        0.0279
     51 H           3.1367   -1.1846   -4.2867 H       1  LIG1        0.0240
     52 H           1.9619   -2.4523   -3.9382 H       1  LIG1        0.0240
     53 H           3.6605   -2.6818   -3.4965 H       1  LIG1        0.0240
     54 H           2.8438   -5.3627   -1.4873 H       1  LIG1        0.0661
     55 H           1.1160   -5.3636   -1.0857 H       1  LIG1        0.0661
     56 H           2.2913   -4.6532    0.0492 H       1  LIG1        0.0661
     57 H           4.3595   -0.1229   -2.6252 H       1  LIG1        0.0276
     58 H           4.6129   -1.2672   -1.3401 H       1  LIG1        0.0276
     59 H           4.6183    1.1136   -0.6061 H       1  LIG1        0.0271
     60 H           3.4806    0.1217    0.2765 H       1  LIG1        0.0271
     61 H          -0.8630    3.9528    1.5078 H       1  LIG1        0.0238
     62 H          -1.6275    3.6930   -0.0637 H       1  LIG1        0.0238
     63 H           0.0079    4.3066    0.0268 H       1  LIG1        0.0238
     64 H           0.3807    3.3672   -2.0015 H       1  LIG1        0.0235
     65 H          -1.2828    2.8864   -2.2051 H       1  LIG1        0.0235
     66 H          -0.0351    2.0481   -3.1038 H       1  LIG1        0.0235
     67 H          -1.0945   -0.4947   -0.7035 H       1  LIG1        0.0271
     68 H          -1.5177    0.2957   -2.2110 H       1  LIG1        0.0271
     69 H          -3.4390    0.4203   -0.8699 H       1  LIG1        0.0277
     70 H          -2.8133    2.0298   -0.8666 H       1  LIG1        0.0277
     71 H          -3.1345    3.1129    1.3176 H       1  LIG1        0.0241
     72 H          -3.3600    2.1103    2.7437 H       1  LIG1        0.0241
     73 H          -4.4541    1.9691    1.3613 H       1  LIG1        0.0241
     74 H          -4.8916   -0.3473    0.5194 H       1  LIG1        0.0660
@<TRIPOS>BOND
     1     2     3    1
     2     3     5    2
     3     5     7    1
     4     7     8    2
     5     8     9    1
     6     9    10    2
     7    10    11    1
     8    11    12    1
     9    12    13    1
    10    13    14    1
    11    14    16    1
    12    16    18    1
    13    18    19    1
    14    21    22    1
    15    22    23    1
    16    21    24    2
    17    19    25    1
    18    25    26    1
    19    14    26    1
    20    11    28    1
    21    16    28    1
    22    28    30    1
    23    30    31    1
    24    10    32    1
    25    31    32    1
    26    32    34    1
    27     7    34    1
    28    34    35    2
    29     2    35    1
    30     1     2    2
    31     3     4    1
    32     5     6    1
    33    11    27    1
    34    14    15    1
    35    16    17    1
    36    28    29    1
    37    32    33    1
    38    19    21    1
    39    19    20    1
    40     4    36    1
    41     6    37    1
    42     6    38    1
    43     6    39    1
    44     8    40    1
    45     9    41    1
    46    12    42    1
    47    12    43    1
    48    13    44    1
    49    13    45    1
    50    15    46    1
    51    15    47    1
    52    15    48    1
    53    18    49    1
    54    18    50    1
    55    20    51    1
    56    20    52    1
    57    20    53    1
    58    23    54    1
    59    23    55    1
    60    23    56    1
    61    25    57    1
    62    25    58    1
    63    26    59    1
    64    26    60    1
    65    27    61    1
    66    27    62    1
    67    27    63    1
    68    29    64    1
    69    29    65    1
    70    29    66    1
    71    30    67    1
    72    30    68    1
    73    31    69    1
    74    31    70    1
    75    33    71    1
    76    33    72    1
    77    33    73    1
    78    35    74    1
