REMARK  Name = NuBBE_379
REMARK  12 active torsions:
REMARK  status: ('A' for Active; 'I' for Inactive)
REMARK    1  A    between atoms: C_3  and  O_4
REMARK    2  A    between atoms: C_5  and  C_6
REMARK    3  A    between atoms: C_11  and  C_29
REMARK    4  A    between atoms: C_14  and  C_15
REMARK    5  A    between atoms: C_19  and  C_20
REMARK    6  A    between atoms: C_19  and  C_21
REMARK    7  A    between atoms: C_21  and  O_22
REMARK    8  A    between atoms: O_22  and  C_23
REMARK    9  A    between atoms: C_26  and  O_27
REMARK   10  A    between atoms: C_26  and  C_28
REMARK   11  A    between atoms: C_30  and  C_31
REMARK   12  A    between atoms: C_34  and  C_35
REMARK                            x       y       z     vdW  Elec       q    Type
REMARK                         _______ _______ _______ _____ _____    ______ ____
ROOT
ATOM      1  O   LIG A   1      -5.801  -2.660   2.146  0.00  0.00    -0.284 OA
ATOM      2  C   LIG A   1      -4.673  -2.211   2.336  0.00  0.00    +0.221 C 
ATOM      3  C   LIG A   1      -3.737  -2.917   3.249  0.00  0.00    +0.167 C 
ATOM      4  C   LIG A   1      -2.511  -2.419   3.496  0.00  0.00    +0.002 C 
ATOM      5  C   LIG A   1      -1.539  -3.168   4.373  0.00  0.00    +0.048 C 
ATOM      6  C   LIG A   1      -2.099  -1.145   2.862  0.00  0.00    -0.014 C 
ATOM      7  C   LIG A   1      -0.910  -0.580   3.146  0.00  0.00    +0.008 C 
ATOM      8  C   LIG A   1      -0.366   0.553   2.443  0.00  0.00    +0.001 C 
ATOM      9  C   LIG A   1      -1.047   1.231   1.501  0.00  0.00    -0.053 C 
ATOM     10  C   LIG A   1      -0.347   2.203   0.484  0.00  0.00    -0.004 C 
ATOM     11  C   LIG A   1       1.087   2.655   0.957  0.00  0.00    +0.012 C 
ATOM     12  C   LIG A   1       2.295   1.785   0.599  0.00  0.00    +0.010 C 
ATOM     13  C   LIG A   1       2.357   1.386  -0.895  0.00  0.00    -0.000 C 
ATOM     14  C   LIG A   1       2.503   2.679  -1.741  0.00  0.00    +0.014 C 
ATOM     15  C   LIG A   1       1.007   0.597  -1.122  0.00  0.00    +0.006 C 
ATOM     16  C   LIG A   1       1.095  -0.300  -2.382  0.00  0.00    +0.022 C 
ATOM     17  C   LIG A   1       2.170  -1.423  -2.242  0.00  0.00    +0.068 C 
ATOM     18  C   LIG A   1       2.773  -1.736  -3.632  0.00  0.00    +0.023 C 
ATOM     19  C   LIG A   1       3.279  -1.036  -1.229  0.00  0.00    +0.052 C 
ATOM     20  C   LIG A   1       3.625   0.461  -1.221  0.00  0.00    +0.070 C 
ATOM     21  C   LIG A   1       4.816   0.683  -0.274  0.00  0.00    +0.042 C 
ATOM     22  C   LIG A   1      -1.113   3.561   0.447  0.00  0.00    +0.016 C 
ATOM     23  C   LIG A   1      -0.334   1.447  -0.948  0.00  0.00    -0.019 C 
ATOM     24  C   LIG A   1      -0.561   2.415  -2.139  0.00  0.00    +0.012 C 
ATOM     25  C   LIG A   1      -1.545   0.429  -1.035  0.00  0.00    +0.009 C 
ATOM     26  C   LIG A   1      -2.794   0.878  -0.270  0.00  0.00    +0.016 C 
ATOM     27  C   LIG A   1      -2.546   0.893   1.265  0.00  0.00    +0.015 C 
ATOM     28  C   LIG A   1      -3.447   1.947   1.965  0.00  0.00    +0.021 C 
ATOM     29  C   LIG A   1      -2.980  -0.466   1.895  0.00  0.00    -0.026 C 
ATOM     30  C   LIG A   1      -4.207  -0.982   1.673  0.00  0.00    +0.059 C 
ENDROOT
BRANCH   3  31
ATOM     31  O   LIG A   1      -4.194  -4.099   3.808  0.00  0.00    -0.503 OA
ATOM     32  H   LIG A   1      -5.107  -4.202   3.463  0.00  0.00    +0.292 HD
ENDBRANCH   3  31
BRANCH  17  33
ATOM     33  C   LIG A   1       1.472  -2.695  -1.708  0.00  0.00    +0.313 C 
ATOM     34  O   LIG A   1       1.317  -2.960  -0.529  0.00  0.00    -0.250 OA
BRANCH  33  35
ATOM     35  O   LIG A   1       0.940  -3.424  -2.731  0.00  0.00    -0.468 OA
ATOM     36  C   LIG A   1      -0.009  -4.408  -2.327  0.00  0.00    +0.280 C 
ENDBRANCH  33  35
ENDBRANCH  17  33
BRANCH  20  37
ATOM     37  O   LIG A   1       4.177   0.765  -2.514  0.00  0.00    -0.388 OA
ATOM     38  H   LIG A   1       3.457   0.890  -3.151  0.00  0.00    +0.210 HD
ENDBRANCH  20  37
TORSDOF 4
