REMARK  Name = NuBBE_250
REMARK  7 active torsions:
REMARK  status: ('A' for Active; 'I' for Inactive)
REMARK    1  A    between atoms: C_1  and  O_2
REMARK    2  A    between atoms: O_2  and  C_3
REMARK    3  A    between atoms: C_5  and  O_6
REMARK    4  A    between atoms: O_6  and  C_7
REMARK    5  A    between atoms: C_11  and  C_12
REMARK    6  A    between atoms: C_12  and  C_13
REMARK    7  A    between atoms: C_13  and  C_14
REMARK                            x       y       z     vdW  Elec       q    Type
REMARK                         _______ _______ _______ _____ _____    ______ ____
ROOT
ATOM      1  C   LIG A   1      -0.513  -2.608   1.718  0.00  0.00    +0.124 A 
ATOM      2  C   LIG A   1       0.322  -3.200   0.767  0.00  0.00    +0.095 A 
ATOM      3  C   LIG A   1       0.959  -2.437  -0.217  0.00  0.00    +0.166 A 
ATOM      4  C   LIG A   1       0.732  -1.058  -0.239  0.00  0.00    +0.181 A 
ATOM      5  O   LIG A   1       1.297  -0.267  -1.259  0.00  0.00    -0.418 OA
ATOM      6  C   LIG A   1       1.098   1.105  -1.355  0.00  0.00    +0.341 A 
ATOM      7  C   LIG A   1       0.268   1.734  -0.303  0.00  0.00    +0.045 A 
ATOM      8  C   LIG A   1      -0.274   0.997   0.677  0.00  0.00    +0.022 A 
ATOM      9  O   LIG A   1       1.614   1.769  -2.245  0.00  0.00    -0.245 OA
ATOM     10  C   LIG A   1      -0.079  -0.446   0.721  0.00  0.00    +0.025 A 
ATOM     11  C   LIG A   1      -0.700  -1.226   1.704  0.00  0.00    +0.057 A 
ENDROOT
BRANCH   1  13
ATOM     12  C   LIG A   1      -2.273  -3.041   3.242  0.00  0.00    +0.277 C 
ATOM     13  O   LIG A   1      -1.065  -3.471   2.625  0.00  0.00    -0.495 OA
ENDBRANCH   1  13
BRANCH   3  14
ATOM     14  O   LIG A   1       1.703  -3.176  -1.095  0.00  0.00    -0.491 OA
ATOM     15  C   LIG A   1       2.824  -2.535  -1.692  0.00  0.00    +0.277 C 
ENDBRANCH   3  14
BRANCH   7  16
ATOM     16  C   LIG A   1       0.086   3.222  -0.405  0.00  0.00    +0.116 C 
BRANCH  16  17
ATOM     17  C   LIG A   1      -1.039   3.568  -1.369  0.00  0.00    +0.135 C 
ATOM     18  C   LIG A   1      -0.931   4.883  -2.096  0.00  0.00    +0.086 C 
ATOM     19  O   LIG A   1      -2.014   2.834  -1.539  0.00  0.00    -0.297 OA
ENDBRANCH  16  17
ENDBRANCH   7  16
TORSDOF 4
