REMARK  Name = NuBBE_2420
REMARK  5 active torsions:
REMARK  status: ('A' for Active; 'I' for Inactive)
REMARK    1  A    between atoms: O_1  and  C_2
REMARK    2  A    between atoms: O_1  and  C_3
REMARK    3  A    between atoms: N_18  and  C_19
REMARK    4  A    between atoms: C_24  and  O_25
REMARK    5  A    between atoms: O_25  and  C_26
REMARK                            x       y       z     vdW  Elec       q    Type
REMARK                         _______ _______ _______ _____ _____    ______ ____
ROOT
ATOM      1  C   LIG A   1      -1.011   1.748   0.022  0.00  0.00    +0.170 A 
ATOM      2  C   LIG A   1      -0.388   0.484  -0.107  0.00  0.00    +0.033 A 
ATOM      3  C   LIG A   1       1.030   0.441  -0.045  0.00  0.00    -0.015 A 
ATOM      4  C   LIG A   1       1.724  -0.929  -0.080  0.00  0.00    +0.092 C 
ATOM      5  C   LIG A   1       0.899  -1.890   0.817  0.00  0.00    +0.059 C 
ATOM      6  C   LIG A   1      -0.521  -1.980   0.300  0.00  0.00    -0.034 A 
ATOM      7  C   LIG A   1      -1.127  -0.800  -0.226  0.00  0.00    -0.007 A 
ATOM      8  C   LIG A   1      -2.384  -0.917  -0.839  0.00  0.00    +0.058 A 
ATOM      9  C   LIG A   1      -3.033  -2.135  -0.810  0.00  0.00    +0.167 A 
ATOM     10  C   LIG A   1      -2.466  -3.243  -0.223  0.00  0.00    +0.167 A 
ATOM     11  C   LIG A   1      -1.213  -3.203   0.330  0.00  0.00    +0.053 A 
ATOM     12  O   LIG A   1      -3.280  -4.332  -0.286  0.00  0.00    -0.453 OA
ATOM     13  C   LIG A   1      -4.432  -3.772  -0.951  0.00  0.00    +0.466 C 
ATOM     14  O   LIG A   1      -4.265  -2.389  -1.321  0.00  0.00    -0.453 OA
ATOM     15  N   LIG A   1       3.156  -0.884   0.328  0.00  0.00    -0.298 NA
ATOM     16  C   LIG A   1       3.845  -2.139   0.008  0.00  0.00    +0.105 C 
ATOM     17  C   LIG A   1       3.834   0.225  -0.367  0.00  0.00    +0.089 C 
ATOM     18  C   LIG A   1       3.284   1.571   0.107  0.00  0.00    +0.051 C 
ATOM     19  C   LIG A   1       1.782   1.629   0.031  0.00  0.00    -0.037 A 
ATOM     20  C   LIG A   1       1.132   2.867   0.112  0.00  0.00    +0.053 A 
ATOM     21  C   LIG A   1      -0.261   2.935   0.104  0.00  0.00    +0.162 A 
ENDROOT
BRANCH   1  22
ATOM     22  O   LIG A   1      -2.383   1.870   0.046  0.00  0.00    -0.491 OA
ATOM     23  C   LIG A   1      -2.908   1.553   1.336  0.00  0.00    +0.277 C 
ENDBRANCH   1  22
BRANCH  21  24
ATOM     24  O   LIG A   1      -0.966   4.104   0.248  0.00  0.00    -0.491 OA
ATOM     25  C   LIG A   1      -0.340   5.274  -0.264  0.00  0.00    +0.277 C 
ENDBRANCH  21  24
TORSDOF 2
