@<TRIPOS>MOLECULE
NuBBE_1076
 37 39 0 0 0
SMALL
GASTEIGER

@<TRIPOS>ATOM
      1 C          -1.9376    0.9027    1.2208 C.3     1  LIG1        0.0126
      2 N          -0.8157    0.9718    0.2550 N.ar    1  LIG1       -0.3369
      3 C          -0.0431   -0.2320    0.2163 C.ar    1  LIG1        0.1025
      4 C           1.3579   -0.1547    0.3369 C.ar    1  LIG1        0.0909
      5 C           1.9949    1.1680    0.5249 C.ar    1  LIG1        0.2008
      6 O           3.1967    1.2381    0.7676 O.2     1  LIG1       -0.2864
      7 C           2.1448   -1.3115    0.3042 C.ar    1  LIG1        0.1334
      8 O           3.5060   -1.2979    0.4625 O.3     1  LIG1       -0.5059
      9 C           1.5629   -2.5589    0.1138 C.ar    1  LIG1        0.0260
     10 C           0.1800   -2.6722   -0.0493 C.ar    1  LIG1        0.1671
     11 O          -0.4454   -3.8843   -0.1954 O.3     1  LIG1       -0.4913
     12 C           0.3270   -4.9221   -0.7934 C.3     1  LIG1        0.0790
     13 C          -0.6250   -1.5121    0.0068 C.ar    1  LIG1        0.1859
     14 O          -2.0010   -1.5671   -0.0686 O.3     1  LIG1       -0.4895
     15 C          -2.5081   -2.2432   -1.2156 C.3     1  LIG1        0.0791
     16 C          -0.2026    2.2513    0.1993 C.ar    1  LIG1        0.0950
     17 C           1.1796    2.3867    0.3731 C.ar    1  LIG1        0.0495
     18 C           1.7977    3.6456    0.3853 C.ar    1  LIG1       -0.0487
     19 C           1.0354    4.7951    0.1843 C.ar    1  LIG1       -0.0575
     20 C          -0.3315    4.6828   -0.0591 C.ar    1  LIG1       -0.0181
     21 C          -0.9291    3.4236   -0.0716 C.ar    1  LIG1        0.1409
     22 O          -2.2496    3.3653   -0.4315 O.3     1  LIG1       -0.5047
     23 H          -1.8074    0.1020    1.9596 H       1  LIG1        0.0456
     24 H          -2.8792    0.7381    0.6858 H       1  LIG1        0.0456
     25 H          -2.0483    1.8227    1.8085 H       1  LIG1        0.0456
     26 H           3.7784   -0.3679    0.6416 H       1  LIG1        0.2922
     27 H           2.2124   -3.4283    0.1234 H       1  LIG1        0.0692
     28 H           1.0272   -5.3506   -0.0698 H       1  LIG1        0.0660
     29 H           0.8510   -4.5716   -1.6899 H       1  LIG1        0.0660
     30 H          -0.3613   -5.7150   -1.1012 H       1  LIG1        0.0660
     31 H          -3.5222   -1.8706   -1.3926 H       1  LIG1        0.0660
     32 H          -2.5952   -3.3175   -1.0327 H       1  LIG1        0.0660
     33 H          -1.9139   -2.0415   -2.1130 H       1  LIG1        0.0660
     34 H           2.8713    3.7290    0.5413 H       1  LIG1        0.0625
     35 H           1.5109    5.7728    0.1883 H       1  LIG1        0.0619
     36 H          -0.9262    5.5689   -0.2642 H       1  LIG1        0.0655
     37 H          -2.3918    2.4546   -0.7514 H       1  LIG1        0.2922
@<TRIPOS>BOND
     1     1     2    1
     2     2     3   ar
     3     3     4   ar
     4     4     5   ar
     5     5     6    2
     6     4     7   ar
     7     7     8    1
     8     7     9   ar
     9     9    10   ar
    10    10    11    1
    11    11    12    1
    12    10    13   ar
    13     3    13   ar
    14    13    14    1
    15    14    15    1
    16     2    16   ar
    17    16    17   ar
    18     5    17   ar
    19    17    18   ar
    20    18    19   ar
    21    19    20   ar
    22    16    21   ar
    23    20    21   ar
    24    21    22    1
    25     1    23    1
    26     1    24    1
    27     1    25    1
    28     8    26    1
    29     9    27    1
    30    12    28    1
    31    12    29    1
    32    12    30    1
    33    15    31    1
    34    15    32    1
    35    15    33    1
    36    18    34    1
    37    19    35    1
    38    20    36    1
    39    22    37    1
