REMARK  Name = NuBBE_439
REMARK  11 active torsions:
REMARK  status: ('A' for Active; 'I' for Inactive)
REMARK    1  A    between atoms: C_1  and  C_2
REMARK    2  A    between atoms: C_2  and  O_3
REMARK    3  A    between atoms: O_3  and  C_4
REMARK    4  A    between atoms: C_7  and  C_8
REMARK    5  A    between atoms: C_13  and  C_14
REMARK    6  A    between atoms: C_19  and  C_20
REMARK    7  A    between atoms: C_23  and  C_24
REMARK    8  A    between atoms: C_26  and  C_28
REMARK    9  A    between atoms: C_28  and  C_29
REMARK   10  A    between atoms: C_36  and  C_37
REMARK   11  A    between atoms: C_36  and  C_38
REMARK                            x       y       z     vdW  Elec       q    Type
REMARK                         _______ _______ _______ _____ _____    ______ ____
ROOT
ATOM      1  C   LIG A   1      -4.786  -1.228   0.371  0.00  0.00    +0.182 C 
ATOM      2  C   LIG A   1      -4.120  -1.846  -0.858  0.00  0.00    +0.046 C 
ATOM      3  C   LIG A   1      -2.726  -1.270  -1.138  0.00  0.00    +0.011 C 
ATOM      4  C   LIG A   1      -1.743  -1.360   0.072  0.00  0.00    -0.025 C 
ATOM      5  C   LIG A   1      -1.438  -2.860   0.300  0.00  0.00    +0.012 C 
ATOM      6  C   LIG A   1      -2.462  -0.658   1.286  0.00  0.00    +0.004 C 
ATOM      7  C   LIG A   1      -1.521  -0.515   2.499  0.00  0.00    +0.005 C 
ATOM      8  C   LIG A   1      -0.291   0.320   2.156  0.00  0.00    +0.008 C 
ATOM      9  C   LIG A   1       0.553  -0.245   0.983  0.00  0.00    -0.023 C 
ATOM     10  C   LIG A   1       1.214  -1.562   1.495  0.00  0.00    +0.012 C 
ATOM     11  C   LIG A   1      -0.415  -0.524  -0.244  0.00  0.00    +0.002 C 
ATOM     12  C   LIG A   1       0.386  -1.012  -1.472  0.00  0.00    +0.005 C 
ATOM     13  C   LIG A   1       1.475  -0.013  -1.875  0.00  0.00    +0.005 C 
ATOM     14  C   LIG A   1       2.454   0.288  -0.735  0.00  0.00    -0.000 C 
ATOM     15  C   LIG A   1       1.714   0.821   0.544  0.00  0.00    -0.023 C 
ATOM     16  C   LIG A   1       1.088   2.221   0.280  0.00  0.00    +0.012 C 
ATOM     17  C   LIG A   1       2.764   1.007   1.680  0.00  0.00    +0.008 C 
ATOM     18  C   LIG A   1       3.980   1.828   1.268  0.00  0.00    +0.007 C 
ATOM     19  C   LIG A   1       4.726   1.249   0.046  0.00  0.00    -0.028 C 
ATOM     20  C   LIG A   1       5.457  -0.051   0.436  0.00  0.00    +0.011 C 
ATOM     21  C   LIG A   1       3.771   1.010  -1.172  0.00  0.00    +0.006 C 
ATOM     22  C   LIG A   1       3.821   2.368  -1.934  0.00  0.00    +0.018 C 
ATOM     23  C   LIG A   1       5.331   2.689  -1.840  0.00  0.00    +0.009 C 
ATOM     24  C   LIG A   1       5.755   2.298  -0.433  0.00  0.00    +0.007 C 
ATOM     25  C   LIG A   1      -3.888  -1.209   1.651  0.00  0.00    +0.005 C 
ATOM     26  C   LIG A   1      -4.585  -0.237   2.647  0.00  0.00    +0.015 C 
ATOM     27  C   LIG A   1      -3.838  -2.583   2.354  0.00  0.00    +0.015 C 
ENDROOT
BRANCH  22  28
ATOM     28  C   LIG A   1       3.283   2.444  -3.360  0.00  0.00    -0.076 C 
ATOM     29  C   LIG A   1       1.835   2.818  -3.543  0.00  0.00    +0.038 C 
ATOM     30  C   LIG A   1       4.028   2.330  -4.476  0.00  0.00    +0.007 C 
ENDBRANCH  22  28
BRANCH   1  31
ATOM     31  O   LIG A   1      -6.008  -1.947   0.669  0.00  0.00    -0.461 OA
BRANCH  31  33
ATOM     32  C   LIG A   1      -8.330  -2.279   0.567  0.00  0.00    +0.136 C 
ATOM     33  C   LIG A   1      -7.143  -1.521   0.046  0.00  0.00    +0.304 C 
ATOM     34  O   LIG A   1      -7.205  -0.648  -0.799  0.00  0.00    -0.251 OA
ENDBRANCH  31  33
ENDBRANCH   1  31
TORSDOF 3
