REMARK  Name = NuBBE_593
REMARK  5 active torsions:
REMARK  status: ('A' for Active; 'I' for Inactive)
REMARK    1  A    between atoms: C_1  and  C_2
REMARK    2  A    between atoms: C_5  and  O_7
REMARK    3  A    between atoms: C_9  and  C_10
REMARK    4  A    between atoms: C_10  and  O_11
REMARK    5  A    between atoms: C_13  and  O_14
REMARK                            x       y       z     vdW  Elec       q    Type
REMARK                         _______ _______ _______ _____ _____    ______ ____
ROOT
ATOM      1  C   LIG A   1      -1.434  -1.608  -2.059  0.00  0.00    +0.055 C 
ATOM      2  C   LIG A   1      -1.853  -1.400  -0.601  0.00  0.00    +0.207 C 
ATOM      3  O   LIG A   1      -1.334  -2.476   0.199  0.00  0.00    -0.455 OA
ATOM      4  C   LIG A   1      -1.492  -0.027  -0.004  0.00  0.00    +0.186 C 
ATOM      5  C   LIG A   1      -0.026   0.039   0.350  0.00  0.00    +0.016 A 
ATOM      6  C   LIG A   1       0.674   1.251   0.543  0.00  0.00    +0.107 A 
ATOM      7  C   LIG A   1       2.066   1.241   0.728  0.00  0.00    +0.131 A 
ATOM      8  C   LIG A   1       2.757   0.040   0.834  0.00  0.00    +0.047 A 
ATOM      9  C   LIG A   1       2.059  -1.163   0.765  0.00  0.00    +0.019 A 
ATOM     10  C   LIG A   1       0.675  -1.168   0.530  0.00  0.00    +0.066 A 
ATOM     11  C   LIG A   1      -0.025  -2.483   0.547  0.00  0.00    +0.340 C 
ATOM     12  O   LIG A   1       0.543  -3.504   0.907  0.00  0.00    -0.245 OA
ENDROOT
BRANCH   4  13
ATOM     13  O   LIG A   1      -1.868   0.989  -0.934  0.00  0.00    -0.384 OA
ATOM     14  H   LIG A   1      -1.177   1.065  -1.616  0.00  0.00    +0.210 HD
ENDBRANCH   4  13
BRANCH   6  15
ATOM     15  C   LIG A   1      -0.000   2.563   0.606  0.00  0.00    +0.341 C 
ATOM     16  O   LIG A   1       0.479   3.600   0.182  0.00  0.00    -0.245 OA
BRANCH  15  17
ATOM     17  O   LIG A   1      -1.122   2.526   1.340  0.00  0.00    -0.477 OA
ATOM     18  H   LIG A   1      -1.465   3.444   1.340  0.00  0.00    +0.295 HD
ENDBRANCH  15  17
ENDBRANCH   6  15
BRANCH   7  19
ATOM     19  O   LIG A   1       2.823   2.378   0.828  0.00  0.00    -0.506 OA
ATOM     20  H   LIG A   1       2.280   3.156   0.577  0.00  0.00    +0.292 HD
ENDBRANCH   7  19
TORSDOF 4
