@<TRIPOS>MOLECULE
NuBBE_2050
 26 27 0 0 0
SMALL
GASTEIGER

@<TRIPOS>ATOM
      1 C          -2.3543   -1.7363   -0.1175 C.3     1  LIG1       -0.0394
      2 C          -0.8565   -1.5902   -0.0678 C.ar    1  LIG1       -0.0461
      3 C          -0.1887   -0.3455   -0.0551 C.ar    1  LIG1       -0.0235
      4 C           1.2224   -0.3152   -0.0642 C.ar    1  LIG1        0.1038
      5 C           1.9566    0.9748   -0.1744 C.2     1  LIG1        0.3433
      6 O           3.1732    0.9916   -0.3013 O.2     1  LIG1       -0.2448
      7 O           1.2155    2.1097   -0.1898 O.3     1  LIG1       -0.4577
      8 C          -0.0736    2.0919    0.4393 C.3     1  LIG1        0.1046
      9 C          -0.9333    0.9619   -0.1139 C.3     1  LIG1        0.0105
     10 C          -0.7244    3.4453    0.1798 C.3     1  LIG1       -0.0274
     11 C           1.9507   -1.5143   -0.0350 C.ar    1  LIG1        0.1311
     12 C           1.2928   -2.7371   -0.0099 C.ar    1  LIG1       -0.0191
     13 C          -0.0992   -2.7741   -0.0321 C.ar    1  LIG1       -0.0551
     14 O           3.3195   -1.5740   -0.0436 O.3     1  LIG1       -0.5059
     15 H          -2.8755   -0.7912   -0.2826 H       1  LIG1        0.0278
     16 H          -2.7176   -2.1659    0.8218 H       1  LIG1        0.0278
     17 H          -2.6360   -2.3982   -0.9439 H       1  LIG1        0.0278
     18 H           0.0824    1.9742    1.5196 H       1  LIG1        0.0734
     19 H          -1.1983    1.1497   -1.1612 H       1  LIG1        0.0349
     20 H          -1.8521    0.9182    0.4804 H       1  LIG1        0.0349
     21 H          -0.8706    3.6092   -0.8941 H       1  LIG1        0.0265
     22 H          -0.0788    4.2563    0.5334 H       1  LIG1        0.0265
     23 H          -1.6940    3.5238    0.6804 H       1  LIG1        0.0265
     24 H           1.8648   -3.6613    0.0059 H       1  LIG1        0.0654
     25 H          -0.5972   -3.7427   -0.0346 H       1  LIG1        0.0621
     26 H           3.6724   -0.6608   -0.1394 H       1  LIG1        0.2922
@<TRIPOS>BOND
     1     1     2    1
     2     2     3   ar
     3     3     4   ar
     4     4     5    1
     5     5     6    2
     6     5     7    1
     7     7     8    1
     8     8     9    1
     9     3     9    1
    10     8    10    1
    11     4    11   ar
    12    11    12   ar
    13    12    13   ar
    14     2    13   ar
    15    11    14    1
    16     1    15    1
    17     1    16    1
    18     1    17    1
    19     8    18    1
    20     9    19    1
    21     9    20    1
    22    10    21    1
    23    10    22    1
    24    10    23    1
    25    12    24    1
    26    13    25    1
    27    14    26    1
