@<TRIPOS>MOLECULE
NuBBE_2521
 47 49 0 0 0
SMALL
GASTEIGER

@<TRIPOS>ATOM
      1 C          -3.2344    1.8961   -0.1420 C.3     1  LIG1       -0.0187
      2 C          -4.1992    1.3653   -1.1711 C.2     1  LIG1       -0.0899
      3 C          -5.4818    1.0758   -0.9112 C.2     1  LIG1       -0.1026
      4 C          -1.7654    1.4724   -0.3257 C.3     1  LIG1        0.0579
      5 C          -1.3840   -0.0437   -0.2464 C.3     1  LIG1       -0.0197
      6 H          -1.0960   -0.3659   -1.2553 H       1  LIG1        0.0317
      7 C          -2.4631   -1.0190    0.2305 C.3     1  LIG1       -0.0606
      8 C          -0.1460   -0.1095    0.7151 C.3     1  LIG1        0.0048
      9 H          -0.5585   -0.2929    1.7227 H       1  LIG1        0.0363
     10 C           0.4090    1.3201    0.7590 C.3     1  LIG1        0.0912
     11 H           1.0036    1.5493    1.6462 H       1  LIG1        0.0466
     12 C          -0.9004    2.0378    0.7837 C.2     1  LIG1        0.1550
     13 O          -1.1557    3.0105    1.4924 O.2     1  LIG1       -0.2957
     14 C           1.1358    1.7357   -0.5055 C.2     1  LIG1        0.2077
     15 O           2.3636    1.6881   -0.5498 O.2     1  LIG1       -0.2881
     16 C           0.2736    2.1927   -1.6803 C.2     1  LIG1        0.1601
     17 C          -1.0665    2.0790   -1.5494 C.2     1  LIG1       -0.0249
     18 O           0.7733    2.7014   -2.8672 O.2     1  LIG1       -0.4919
     19 C           2.1828    2.8699   -2.9647 C.3     1  LIG1        0.0789
     20 C           0.8359   -1.2534    0.5168 C.ar    1  LIG1       -0.0392
     21 C           1.9280   -1.3876    1.3994 C.ar    1  LIG1       -0.0128
     22 C           2.7175   -2.5437    1.3958 C.ar    1  LIG1        0.1615
     23 O           3.7575   -2.8187    2.2468 O.3     1  LIG1       -0.4915
     24 C           4.0725   -1.8190    3.2081 C.3     1  LIG1        0.0790
     25 C           2.4302   -3.5575    0.4783 C.ar    1  LIG1        0.1585
     26 C           1.4012   -3.4289   -0.4365 C.ar    1  LIG1       -0.0163
     27 C           0.6100   -2.2822   -0.4148 C.ar    1  LIG1       -0.0546
     28 O           3.1487   -4.7213    0.4767 O.3     1  LIG1       -0.5033
     29 H          -3.5720    1.6125    0.8648 H       1  LIG1        0.0320
     30 H          -3.2957    2.9928   -0.1748 H       1  LIG1        0.0320
     31 H          -3.8390    1.2271   -2.1878 H       1  LIG1        0.0567
     32 H          -5.9202    1.2207    0.0720 H       1  LIG1        0.0532
     33 H          -6.1366    0.7032   -1.6945 H       1  LIG1        0.0532
     34 H          -3.2308   -1.1531   -0.5355 H       1  LIG1        0.0233
     35 H          -2.9329   -0.6904    1.1608 H       1  LIG1        0.0233
     36 H          -2.0410   -2.0129    0.4183 H       1  LIG1        0.0233
     37 H          -1.6948    2.3983   -2.3793 H       1  LIG1        0.0619
     38 H           2.4148    3.1996   -3.9816 H       1  LIG1        0.0660
     39 H           2.7089    1.9227   -2.8171 H       1  LIG1        0.0660
     40 H           2.5290    3.6437   -2.2716 H       1  LIG1        0.0660
     41 H           2.1226   -0.5940    2.1139 H       1  LIG1        0.0658
     42 H           4.8933   -2.1960    3.8255 H       1  LIG1        0.0660
     43 H           3.2227   -1.6246    3.8711 H       1  LIG1        0.0660
     44 H           4.4134   -0.9009    2.7191 H       1  LIG1        0.0660
     45 H           1.1911   -4.2278   -1.1412 H       1  LIG1        0.0655
     46 H          -0.2135   -2.2508   -1.1214 H       1  LIG1        0.0622
     47 H           3.7886   -4.6210    1.2074 H       1  LIG1        0.2923
@<TRIPOS>BOND
     1     1     2    1
     2     2     3    2
     3     4     5    1
     4     5     8    1
     5     8    10    1
     6    10    12    1
     7     4    12    1
     8    10    14    1
     9    14    16    1
    10    16    17    2
    11     4    17    1
    12    18    19    1
    13    20    21   ar
    14    21    22   ar
    15    22    23    1
    16    23    24    1
    17    22    25   ar
    18    25    26   ar
    19    26    27   ar
    20    20    27   ar
    21    25    28    1
    22     1     4    1
    23     5     6    1
    24     5     7    1
    25    10    11    1
    26    12    13    2
    27    14    15    2
    28    16    18    1
    29     8    20    1
    30     8     9    1
    31     1    29    1
    32     1    30    1
    33     2    31    1
    34     3    32    1
    35     3    33    1
    36     7    34    1
    37     7    35    1
    38     7    36    1
    39    17    37    1
    40    19    38    1
    41    19    39    1
    42    19    40    1
    43    21    41    1
    44    24    42    1
    45    24    43    1
    46    24    44    1
    47    26    45    1
    48    27    46    1
    49    28    47    1
