@<TRIPOS>MOLECULE
NuBBE_2029
 25 25 0 0 0
SMALL
GASTEIGER

@<TRIPOS>ATOM
      1 C           0.1630    0.3667   -2.9511 C.3     1  LIG1       -0.0586
      2 C          -0.7676    0.7263   -1.7904 C.3     1  LIG1       -0.0214
      3 C          -2.1836    0.2024   -2.0440 C.3     1  LIG1       -0.0586
      4 C          -0.2130    0.2350   -0.4650 C.ar    1  LIG1       -0.0413
      5 C           0.1712    1.1600    0.5175 C.ar    1  LIG1       -0.0165
      6 C           0.6866    0.7199    1.7386 C.ar    1  LIG1        0.1200
      7 O           1.0592    1.6242    2.6940 O.3     1  LIG1       -0.5065
      8 C           0.8343   -0.6415    2.0135 C.ar    1  LIG1       -0.0090
      9 C           1.3854   -1.1087    3.3286 C.3     1  LIG1       -0.0363
     10 C           0.4520   -1.5651    1.0346 C.ar    1  LIG1       -0.0551
     11 C          -0.0639   -1.1323   -0.1907 C.ar    1  LIG1       -0.0579
     12 H          -0.2083    0.7935   -3.8891 H       1  LIG1        0.0235
     13 H           0.2462   -0.7170   -3.0882 H       1  LIG1        0.0235
     14 H           1.1716    0.7595   -2.7802 H       1  LIG1        0.0235
     15 H          -0.8340    1.8219   -1.7564 H       1  LIG1        0.0343
     16 H          -2.2040   -0.8865   -2.1612 H       1  LIG1        0.0235
     17 H          -2.5976    0.6414   -2.9582 H       1  LIG1        0.0235
     18 H          -2.8515    0.4619   -1.2151 H       1  LIG1        0.0235
     19 H           0.0657    2.2233    0.3226 H       1  LIG1        0.0657
     20 H           0.8994    2.5186    2.3526 H       1  LIG1        0.2921
     21 H           2.3898   -0.7026    3.4858 H       1  LIG1        0.0279
     22 H           1.4601   -2.2006    3.3672 H       1  LIG1        0.0279
     23 H           0.7325   -0.7899    4.1475 H       1  LIG1        0.0279
     24 H           0.5537   -2.6324    1.2175 H       1  LIG1        0.0621
     25 H          -0.3473   -1.8780   -0.9301 H       1  LIG1        0.0620
@<TRIPOS>BOND
     1     1     2    1
     2     2     3    1
     3     2     4    1
     4     4     5   ar
     5     5     6   ar
     6     6     7    1
     7     6     8   ar
     8     8     9    1
     9     8    10   ar
    10    10    11   ar
    11     4    11   ar
    12     1    12    1
    13     1    13    1
    14     1    14    1
    15     2    15    1
    16     3    16    1
    17     3    17    1
    18     3    18    1
    19     5    19    1
    20     7    20    1
    21     9    21    1
    22     9    22    1
    23     9    23    1
    24    10    24    1
    25    11    25    1
