@<TRIPOS>MOLECULE
NuBBE_1558
 33 35 0 0 0
SMALL
GASTEIGER

@<TRIPOS>ATOM
      1 O          -1.3709   -1.2092    0.3775 O.2     1  LIG1       -0.2863
      2 C          -0.1582   -1.1959    0.2155 C.ar    1  LIG1        0.2037
      3 C           0.6340   -2.4510    0.1311 C.ar    1  LIG1        0.1060
      4 C           2.0262   -2.3480    0.1059 C.ar    1  LIG1        0.1454
      5 O           2.6880   -1.1476    0.1051 O.2     1  LIG1       -0.4618
      6 C           1.9374   -0.0013    0.0683 C.ar    1  LIG1        0.1038
      7 C           0.5996    0.0983    0.1214 C.ar    1  LIG1        0.0644
      8 C          -0.0726    1.4255    0.0794 C.ar    1  LIG1       -0.0110
      9 C           0.5157    2.5737    0.6376 C.ar    1  LIG1       -0.0504
     10 C          -0.1356    3.8143    0.6000 C.ar    1  LIG1       -0.0194
     11 C          -1.3975    3.9406    0.0213 C.ar    1  LIG1        0.1201
     12 C          -1.9961    2.8142   -0.5339 C.ar    1  LIG1       -0.0194
     13 C          -1.3366    1.5769   -0.5099 C.ar    1  LIG1       -0.0504
     14 O          -1.9336    5.1976    0.0646 O.3     1  LIG1       -0.4951
     15 C          -3.2391    5.3518   -0.4805 C.3     1  LIG1        0.0788
     16 C           2.8341   -3.4897    0.0755 C.ar    1  LIG1        0.0231
     17 C           2.2378   -4.7435    0.0579 C.ar    1  LIG1        0.1239
     18 C           0.8545   -4.8728    0.0610 C.ar    1  LIG1        0.0223
     19 C           0.0526   -3.7280    0.0955 C.ar    1  LIG1        0.1347
     20 O          -1.3042   -3.8862    0.0775 O.3     1  LIG1       -0.5058
     21 O           2.9796   -5.8866    0.0321 O.3     1  LIG1       -0.5065
     22 H           2.6091    0.8448   -0.0126 H       1  LIG1        0.1037
     23 H           1.4854    2.5282    1.1270 H       1  LIG1        0.0625
     24 H           0.3435    4.6870    1.0380 H       1  LIG1        0.0654
     25 H          -2.9796    2.8514   -0.9901 H       1  LIG1        0.0654
     26 H          -1.8467    0.7250   -0.9567 H       1  LIG1        0.0625
     27 H          -3.5382    6.3959   -0.3480 H       1  LIG1        0.0660
     28 H          -3.9668    4.7283    0.0500 H       1  LIG1        0.0660
     29 H          -3.2436    5.1378   -1.5545 H       1  LIG1        0.0660
     30 H           3.9140   -3.3798    0.0648 H       1  LIG1        0.0691
     31 H           0.4185   -5.8671    0.0359 H       1  LIG1        0.0691
     32 H          -1.5347   -4.8286    0.0951 H       1  LIG1        0.2922
     33 H           3.9238   -5.6560    0.0480 H       1  LIG1        0.2921
@<TRIPOS>BOND
     1     1     2    2
     2     2     3   ar
     3     3     4   ar
     4     4     5   ar
     5     5     6   ar
     6     6     7   ar
     7     2     7   ar
     8     7     8    1
     9     8     9   ar
    10     9    10   ar
    11    10    11   ar
    12    11    12   ar
    13    12    13   ar
    14     8    13   ar
    15    11    14    1
    16    14    15    1
    17     4    16   ar
    18    16    17   ar
    19    17    18   ar
    20    18    19   ar
    21     3    19   ar
    22    19    20    1
    23    17    21    1
    24     6    22    1
    25     9    23    1
    26    10    24    1
    27    12    25    1
    28    13    26    1
    29    15    27    1
    30    15    28    1
    31    15    29    1
    32    16    30    1
    33    18    31    1
    34    20    32    1
    35    21    33    1
