REMARK  Name = NuBBE_870
REMARK  3 active torsions:
REMARK  status: ('A' for Active; 'I' for Inactive)
REMARK    1  A    between atoms: CG_7  and  OD_10
REMARK    2  A    between atoms: CA_11  and  CB_16
REMARK    3  A    between atoms: CB_16  and  CG_17
REMARK                            x       y       z     vdW  Elec       q    Type
REMARK                         _______ _______ _______ _____ _____    ______ ____
ROOT
ATOM      1  O   PHE A   2      -1.714  -0.953  -2.288  0.00  0.00    -0.274 OA
ATOM      2  C   PHE A   2      -1.380  -0.758  -1.123  0.00  0.00    +0.237 C 
ATOM      3  N   HYP A   1      -1.190  -1.780  -0.217  0.00  0.00    -0.286 N 
ATOM      4  CA  HYP A   1      -1.287  -1.554   1.211  0.00  0.00    +0.164 C 
ATOM      5  CB  HYP A   1      -0.737  -2.846   1.794  0.00  0.00    +0.064 C 
ATOM      6  CG  HYP A   1      -1.320  -3.895   0.841  0.00  0.00    +0.134 C 
ATOM      7  CD  HYP A   1      -1.371  -3.188  -0.525  0.00  0.00    +0.140 C 
ATOM      8  CA  PHE A   2      -0.788   0.593  -0.649  0.00  0.00    +0.163 C 
ATOM      9  N   PHE A   2      -0.823   0.787   0.809  0.00  0.00    -0.302 N 
ATOM     10  C   HYP A   1      -0.589  -0.274   1.660  0.00  0.00    +0.234 C 
ATOM     11  O   HYP A   1      -0.097  -0.107   2.769  0.00  0.00    -0.274 OA
ATOM     12  H   PHE A   2      -0.443   1.664   1.148  0.00  0.00    +0.149 HD
ENDROOT
BRANCH   6  13
ATOM     13  OD  HYP A   1      -2.640  -4.226   1.269  0.00  0.00    -0.390 OA
ATOM     14  HD  HYP A   1      -2.564  -4.717   2.106  0.00  0.00    +0.210 HD
ENDBRANCH   6  13
BRANCH   8  15
ATOM     15  CB  PHE A   2       0.655   0.649  -1.190  0.00  0.00    +0.067 C 
BRANCH  15  16
ATOM     16  CG  PHE A   2       1.322   1.988  -0.978  0.00  0.00    -0.045 A 
ATOM     17  CD1 PHE A   2       2.180   2.190   0.112  0.00  0.00    +0.003 A 
ATOM     18  CE1 PHE A   2       2.788   3.430   0.312  0.00  0.00    +0.000 A 
ATOM     19  CZ  PHE A   2       2.545   4.477  -0.574  0.00  0.00    +0.000 A 
ATOM     20  CE2 PHE A   2       1.691   4.287  -1.659  0.00  0.00    +0.000 A 
ATOM     21  CD2 PHE A   2       1.080   3.049  -1.860  0.00  0.00    +0.003 A 
ENDBRANCH  15  16
ENDBRANCH   8  15
TORSDOF 3
