REMARK  Name = NuBBE_2346
REMARK  11 active torsions:
REMARK  status: ('A' for Active; 'I' for Inactive)
REMARK    1  A    between atoms: C_1  and  O_2
REMARK    2  A    between atoms: O_2  and  C_3
REMARK    3  A    between atoms: C_4  and  O_5
REMARK    4  A    between atoms: O_5  and  C_6
REMARK    5  A    between atoms: C_7  and  O_8
REMARK    6  A    between atoms: O_8  and  C_9
REMARK    7  A    between atoms: C_11  and  C_12
REMARK    8  A    between atoms: C_17  and  O_18
REMARK    9  A    between atoms: C_19  and  C_20
REMARK   10  A    between atoms: C_20  and  C_21
REMARK   11  A    between atoms: C_25  and  C_27
REMARK                            x       y       z     vdW  Elec       q    Type
REMARK                         _______ _______ _______ _____ _____    ______ ____
ROOT
ATOM      1  C   LIG A   1      -0.672  -0.455   2.542  0.00  0.00    +0.211 C 
ATOM      2  O   LIG A   1      -1.735  -1.356   2.090  0.00  0.00    -0.483 OA
ATOM      3  C   LIG A   1      -1.085  -2.227   1.244  0.00  0.00    +0.128 A 
ATOM      4  C   LIG A   1      -1.705  -3.016   0.303  0.00  0.00    +0.091 A 
ATOM      5  C   LIG A   1      -0.893  -3.735  -0.579  0.00  0.00    +0.124 A 
ATOM      6  C   LIG A   1       0.516  -3.647  -0.532  0.00  0.00    -0.002 A 
ATOM      7  C   LIG A   1       1.109  -2.893   0.499  0.00  0.00    +0.015 A 
ATOM      8  C   LIG A   1       0.293  -2.201   1.387  0.00  0.00    +0.002 A 
ATOM      9  C   LIG A   1       0.641  -1.301   2.521  0.00  0.00    +0.065 C 
ATOM     10  C   LIG A   1       0.887  -2.075   3.812  0.00  0.00    +0.016 C 
ENDROOT
BRANCH   1  15
ATOM     11  C   LIG A   1      -1.833   2.708   0.618  0.00  0.00    +0.166 A 
ATOM     12  C   LIG A   1      -0.711   2.985  -0.214  0.00  0.00    +0.203 A 
ATOM     13  C   LIG A   1       0.441   2.205  -0.054  0.00  0.00    +0.166 A 
ATOM     14  C   LIG A   1       0.424   1.149   0.871  0.00  0.00    +0.057 A 
ATOM     15  C   LIG A   1      -0.677   0.809   1.664  0.00  0.00    +0.000 A 
ATOM     16  C   LIG A   1      -1.798   1.638   1.552  0.00  0.00    +0.057 A 
BRANCH  11  18
ATOM     17  C   LIG A   1      -3.448   4.055  -0.536  0.00  0.00    +0.277 C 
ATOM     18  O   LIG A   1      -3.042   3.372   0.643  0.00  0.00    -0.491 OA
ENDBRANCH  11  18
BRANCH  12  19
ATOM     19  O   LIG A   1      -0.889   3.768  -1.326  0.00  0.00    -0.488 OA
ATOM     20  C   LIG A   1      -0.184   5.006  -1.345  0.00  0.00    +0.277 C 
ENDBRANCH  12  19
BRANCH  13  21
ATOM     21  O   LIG A   1       1.604   2.130  -0.765  0.00  0.00    -0.491 OA
ATOM     22  C   LIG A   1       2.214   3.236  -1.388  0.00  0.00    +0.277 C 
ENDBRANCH  13  21
ENDBRANCH   1  15
BRANCH   5  23
ATOM     23  O   LIG A   1      -1.553  -4.510  -1.493  0.00  0.00    -0.506 OA
ATOM     24  H   LIG A   1      -1.039  -5.323  -1.624  0.00  0.00    +0.292 HD
ENDBRANCH   5  23
BRANCH   6  25
ATOM     25  C   LIG A   1       1.407  -4.275  -1.594  0.00  0.00    +0.065 C 
BRANCH  25  26
ATOM     26  C   LIG A   1       2.248  -3.289  -2.337  0.00  0.00    -0.030 C 
ATOM     27  C   LIG A   1       1.873  -2.681  -3.510  0.00  0.00    +0.004 C 
ENDBRANCH  25  26
ENDBRANCH   6  25
TORSDOF 7
