REMARK  Name = NuBBE_496
REMARK  8 active torsions:
REMARK  status: ('A' for Active; 'I' for Inactive)
REMARK    1  A    between atoms: C_1  and  C_2
REMARK    2  A    between atoms: C_3  and  C_4
REMARK    3  A    between atoms: C_6  and  C_8
REMARK    4  A    between atoms: C_8  and  C_9
REMARK    5  A    between atoms: C_25  and  C_27
REMARK    6  A    between atoms: C_29  and  C_32
REMARK    7  A    between atoms: C_33  and  O_35
REMARK    8  A    between atoms: C_39  and  O_40
REMARK                            x       y       z     vdW  Elec       q    Type
REMARK                         _______ _______ _______ _____ _____    ______ ____
ROOT
ATOM      1  C   LIG A   1       3.809   1.269  -2.148  0.00  0.00    +0.041 C 
ATOM      2  C   LIG A   1       2.458   0.738  -1.741  0.00  0.00    -0.045 C 
ATOM      3  C   LIG A   1       1.292   1.076  -2.344  0.00  0.00    -0.065 C 
ATOM      4  C   LIG A   1       1.139   2.116  -3.416  0.00  0.00    +0.039 C 
ATOM      5  C   LIG A   1       0.064   0.346  -1.856  0.00  0.00    +0.058 C 
ATOM      6  C   LIG A   1      -1.364   0.620  -2.349  0.00  0.00    +0.086 C 
ATOM      7  N   LIG A   1      -2.131  -0.053  -1.319  0.00  0.00    -0.311 N 
ATOM      8  C   LIG A   1      -0.046   0.419  -0.313  0.00  0.00    +0.122 C 
ATOM      9  C   LIG A   1       1.177  -0.300   0.297  0.00  0.00    +0.067 C 
ATOM     10  C   LIG A   1       0.968  -1.662   0.934  0.00  0.00    -0.023 C 
ATOM     11  C   LIG A   1       0.583  -1.750   2.217  0.00  0.00    -0.030 C 
ATOM     12  C   LIG A   1       0.744  -2.935   3.107  0.00  0.00    +0.034 C 
ATOM     13  C   LIG A   1       1.982  -2.804   4.029  0.00  0.00    +0.013 C 
ATOM     14  C   LIG A   1       3.309  -2.895   3.269  0.00  0.00    +0.012 C 
ATOM     15  C   LIG A   1       1.952  -1.696   5.076  0.00  0.00    -0.017 C 
ATOM     16  C   LIG A   1       2.062  -0.347   5.057  0.00  0.00    -0.009 C 
ATOM     17  C   LIG A   1       2.235   0.537   3.839  0.00  0.00    +0.187 C 
ATOM     18  O   LIG A   1       3.029   0.228   2.950  0.00  0.00    -0.290 OA
ATOM     19  C   LIG A   1       2.110   0.409   6.364  0.00  0.00    +0.047 C 
ATOM     20  C   LIG A   1       2.458  -0.300  -0.618  0.00  0.00    +0.148 C 
ATOM     21  C   LIG A   1      -0.090   1.863   0.277  0.00  0.00    +0.150 C 
ATOM     22  C   LIG A   1      -0.141   2.019   1.804  0.00  0.00    +0.078 C 
ATOM     23  C   LIG A   1       1.188   2.485   2.415  0.00  0.00    +0.047 C 
ATOM     24  C   LIG A   1       1.468   1.893   3.813  0.00  0.00    +0.185 C 
ATOM     25  O   LIG A   1      -0.123   2.871  -0.433  0.00  0.00    -0.296 OA
ATOM     26  C   LIG A   1      -1.447  -0.152  -0.120  0.00  0.00    +0.228 C 
ATOM     27  O   LIG A   1      -1.968  -0.501   0.927  0.00  0.00    -0.275 OA
ATOM     28  H   LIG A   1      -3.138  -0.176  -1.349  0.00  0.00    +0.149 HD
ENDROOT
BRANCH  20  29
ATOM     29  O   LIG A   1       3.631  -0.100   0.179  0.00  0.00    -0.387 OA
ATOM     30  H   LIG A   1       3.429  -0.262   1.124  0.00  0.00    +0.210 HD
ENDBRANCH  20  29
BRANCH  24  31
ATOM     31  O   LIG A   1       2.272   2.841   4.527  0.00  0.00    -0.384 OA
ATOM     32  H   LIG A   1       3.093   2.960   4.013  0.00  0.00    +0.210 HD
ENDBRANCH  24  31
BRANCH   6  33
ATOM     33  C   LIG A   1      -1.621   0.040  -3.749  0.00  0.00    +0.060 C 
BRANCH  33  34
ATOM     34  C   LIG A   1      -3.006   0.292  -4.260  0.00  0.00    -0.021 A 
ATOM     35  C   LIG A   1      -3.420   1.388  -4.990  0.00  0.00    +0.087 A 
ATOM     36  N   LIG A   1      -4.746   1.228  -5.292  0.00  0.00    -0.360 N 
ATOM     37  C   LIG A   1      -5.213   0.044  -4.772  0.00  0.00    +0.047 A 
ATOM     38  C   LIG A   1      -6.489  -0.528  -4.838  0.00  0.00    +0.026 A 
ATOM     39  C   LIG A   1      -6.679  -1.762  -4.209  0.00  0.00    +0.002 A 
ATOM     40  C   LIG A   1      -5.633  -2.398  -3.546  0.00  0.00    +0.001 A 
ATOM     41  C   LIG A   1      -4.362  -1.814  -3.495  0.00  0.00    +0.010 A 
ATOM     42  C   LIG A   1      -4.144  -0.567  -4.117  0.00  0.00    +0.003 A 
ATOM     43  H   LIG A   1      -5.304   1.877  -5.828  0.00  0.00    +0.165 HD
ENDBRANCH  33  34
ENDBRANCH   6  33
TORSDOF 4
