REMARK  Name = NuBBE_1267
REMARK  7 active torsions:
REMARK  status: ('A' for Active; 'I' for Inactive)
REMARK    1  A    between atoms: C_9  and  C_10
REMARK    2  A    between atoms: C_11  and  C_12
REMARK    3  A    between atoms: C_12  and  O_13
REMARK    4  A    between atoms: C_12  and  C_14
REMARK    5  A    between atoms: C_12  and  C_15
REMARK    6  A    between atoms: C_16  and  O_17
REMARK    7  A    between atoms: O_17  and  C_18
REMARK                            x       y       z     vdW  Elec       q    Type
REMARK                         _______ _______ _______ _____ _____    ______ ____
ROOT
ATOM      1  O   LIG A   1      -6.432   1.365  -0.284  0.00  0.00    -0.245 OA
ATOM      2  C   LIG A   1      -5.210   1.297  -0.194  0.00  0.00    +0.337 A 
ATOM      3  C   LIG A   1      -4.392   2.519  -0.122  0.00  0.00    +0.092 A 
ATOM      4  C   LIG A   1      -3.060   2.485  -0.019  0.00  0.00    +0.018 A 
ATOM      5  O   LIG A   1      -4.535   0.084  -0.158  0.00  0.00    -0.422 OA
ATOM      6  C   LIG A   1      -3.130   0.035  -0.051  0.00  0.00    +0.143 A 
ATOM      7  C   LIG A   1      -2.379   1.202   0.023  0.00  0.00    +0.018 A 
ATOM      8  C   LIG A   1      -0.993   1.105   0.152  0.00  0.00    +0.023 A 
ATOM      9  C   LIG A   1      -0.358  -0.151   0.191  0.00  0.00    +0.017 A 
ATOM     10  C   LIG A   1      -1.146  -1.325   0.108  0.00  0.00    +0.131 A 
ATOM     11  C   LIG A   1      -2.537  -1.224  -0.007  0.00  0.00    +0.093 A 
ENDROOT
BRANCH   9  12
ATOM     12  C   LIG A   1       1.105  -0.237   0.384  0.00  0.00    +0.010 C 
ATOM     13  C   LIG A   1       2.000   0.643  -0.099  0.00  0.00    +0.007 C 
BRANCH  13  14
ATOM     14  C   LIG A   1       3.499   0.577   0.068  0.00  0.00    +0.079 C 
ATOM     15  C   LIG A   1       3.982  -0.141   1.333  0.00  0.00    +0.045 C 
ATOM     16  C   LIG A   1       4.128  -0.052  -1.175  0.00  0.00    +0.045 C 
BRANCH  14  17
ATOM     17  O   LIG A   1       3.962   1.929   0.143  0.00  0.00    -0.385 OA
ATOM     18  H   LIG A   1       3.553   2.329   0.929  0.00  0.00    +0.211 HD
ENDBRANCH  14  17
ENDBRANCH  13  14
ENDBRANCH   9  12
BRANCH  10  19
ATOM     19  O   LIG A   1      -0.485  -2.527   0.186  0.00  0.00    -0.494 OA
ATOM     20  C   LIG A   1      -1.122  -3.639  -0.434  0.00  0.00    +0.277 C 
ENDBRANCH  10  19
TORSDOF 4
