@<TRIPOS>MOLECULE
NuBBE_2441
 48 49 0 0 0
SMALL
GASTEIGER

@<TRIPOS>ATOM
      1 O          -1.8336    0.6091   -0.7206 O.3     1  LIG1       -0.4810
      2 C          -2.5221    1.8450   -0.5144 C.3     1  LIG1        0.1084
      3 C          -3.9896    1.6180   -0.7486 C.2     1  LIG1       -0.0484
      4 C          -5.0110    1.8694    0.0938 C.2     1  LIG1       -0.0765
      5 C          -4.8565    2.3661    1.5042 C.3     1  LIG1       -0.0439
      6 C          -6.4384    1.6657   -0.3415 C.3     1  LIG1       -0.0439
      7 C          -0.4817    0.5494   -0.4686 C.ar    1  LIG1        0.2057
      8 C           0.4010    1.6339   -0.6069 C.ar    1  LIG1        0.1841
      9 C           1.7651    1.5256   -0.3256 C.ar    1  LIG1        0.0218
     10 C           2.2763    0.3142    0.1309 C.ar    1  LIG1       -0.0439
     11 C           1.4402   -0.8042    0.2852 C.ar    1  LIG1        0.0024
     12 C           0.0631   -0.6962   -0.0614 C.ar    1  LIG1        0.1687
     13 O          -0.6548   -1.8588    0.0985 O.3     1  LIG1       -0.4910
     14 C          -1.7840   -2.0684   -0.7440 C.3     1  LIG1        0.0790
     15 C           2.0546   -2.0721    0.8745 C.3     1  LIG1       -0.0056
     16 C           3.1464   -2.6845    0.0243 C.2     1  LIG1       -0.0809
     17 C           4.2375   -3.3722    0.4282 C.2     1  LIG1       -0.0793
     18 C           4.6532   -3.6155    1.8549 C.3     1  LIG1       -0.0440
     19 C           5.1415   -4.0374   -0.5824 C.3     1  LIG1       -0.0440
     20 C           2.6304    2.6862   -0.4750 C.ar    1  LIG1       -0.0442
     21 C           2.0964    3.8811   -0.7496 C.ar    1  LIG1        0.0236
     22 C           0.6571    4.0468   -0.9509 C.ar    1  LIG1        0.3373
     23 O           0.1526    5.1653   -1.0720 O.2     1  LIG1       -0.2452
     24 O          -0.0905    2.8900   -1.0301 O.2     1  LIG1       -0.4183
     25 H          -2.2357    2.5860   -1.2647 H       1  LIG1        0.0742
     26 H          -2.3091    2.2292    0.4860 H       1  LIG1        0.0742
     27 H          -4.2179    1.2696   -1.7559 H       1  LIG1        0.0605
     28 H          -3.8291    2.3207    1.8706 H       1  LIG1        0.0274
     29 H          -5.4547    1.7512    2.1846 H       1  LIG1        0.0274
     30 H          -5.1979    3.4031    1.5810 H       1  LIG1        0.0274
     31 H          -6.5107    1.2111   -1.3352 H       1  LIG1        0.0274
     32 H          -6.9649    2.6257   -0.3726 H       1  LIG1        0.0274
     33 H          -6.9585    1.0067    0.3610 H       1  LIG1        0.0274
     34 H           3.3312    0.2322    0.3855 H       1  LIG1        0.0629
     35 H          -2.6969   -1.7761   -0.2156 H       1  LIG1        0.0660
     36 H          -1.8510   -3.1413   -0.9512 H       1  LIG1        0.0660
     37 H          -1.7060   -1.5676   -1.7146 H       1  LIG1        0.0660
     38 H           1.2850   -2.8378    1.0165 H       1  LIG1        0.0357
     39 H           2.4228   -1.8216    1.8765 H       1  LIG1        0.0357
     40 H           2.9830   -2.5791   -1.0481 H       1  LIG1        0.0575
     41 H           4.0136   -3.1180    2.5863 H       1  LIG1        0.0274
     42 H           5.6750   -3.2508    2.0131 H       1  LIG1        0.0274
     43 H           4.6419   -4.6884    2.0773 H       1  LIG1        0.0274
     44 H           4.7821   -3.9115   -1.6089 H       1  LIG1        0.0274
     45 H           5.1905   -5.1151   -0.3869 H       1  LIG1        0.0274
     46 H           6.1563   -3.6313   -0.5257 H       1  LIG1        0.0274
     47 H           3.6987    2.5695   -0.3346 H       1  LIG1        0.0627
     48 H           2.6990    4.7770   -0.8273 H       1  LIG1        0.0689
@<TRIPOS>BOND
     1     1     2    1
     2     2     3    1
     3     3     4    2
     4     4     5    1
     5     4     6    1
     6     1     7    1
     7     7     8   ar
     8     8     9   ar
     9     9    10   ar
    10    10    11   ar
    11    11    12   ar
    12     7    12   ar
    13    12    13    1
    14    13    14    1
    15    11    15    1
    16    15    16    1
    17    16    17    2
    18    17    18    1
    19    17    19    1
    20     9    20   ar
    21    20    21   ar
    22    21    22   ar
    23    22    23    2
    24    22    24   ar
    25     8    24   ar
    26     2    25    1
    27     2    26    1
    28     3    27    1
    29     5    28    1
    30     5    29    1
    31     5    30    1
    32     6    31    1
    33     6    32    1
    34     6    33    1
    35    10    34    1
    36    14    35    1
    37    14    36    1
    38    14    37    1
    39    15    38    1
    40    15    39    1
    41    16    40    1
    42    18    41    1
    43    18    42    1
    44    18    43    1
    45    19    44    1
    46    19    45    1
    47    19    46    1
    48    20    47    1
    49    21    48    1
