@<TRIPOS>MOLECULE
NuBBE_562
 33 35 0 0 0
SMALL
GASTEIGER

@<TRIPOS>ATOM
      1 O          -4.5754   -1.4260   -1.4766 O.3     1  LIG1       -0.5065
      2 C          -3.2181   -1.3060   -1.5215 C.ar    1  LIG1        0.1238
      3 C          -2.3964   -2.4081   -1.7352 C.ar    1  LIG1        0.0222
      4 C          -1.0101   -2.2284   -1.7864 C.ar    1  LIG1        0.1343
      5 O          -0.2164   -3.3118   -2.0334 O.3     1  LIG1       -0.5058
      6 C          -0.4508   -0.9541   -1.6144 C.ar    1  LIG1        0.1007
      7 C           1.0043   -0.6805   -1.7181 C.2     1  LIG1        0.1740
      8 C           1.3782    0.7710   -1.8167 C.3     1  LIG1        0.0520
      9 C           0.5278    1.5639   -0.8332 C.3     1  LIG1        0.1323
     10 H           0.7504    2.6259   -1.0017 H       1  LIG1        0.0789
     11 C           0.8078    1.3358    0.6546 C.ar    1  LIG1       -0.0033
     12 C           2.1293    1.2310    1.1324 C.ar    1  LIG1       -0.0099
     13 C           2.3711    1.0671    2.4946 C.ar    1  LIG1        0.1586
     14 O           3.6398    0.9583    2.9951 O.3     1  LIG1       -0.5033
     15 C           1.3163    1.0183    3.3982 C.ar    1  LIG1        0.1582
     16 O           1.5647    0.8622    4.7312 O.3     1  LIG1       -0.5033
     17 C           0.0092    1.1364    2.9605 C.ar    1  LIG1       -0.0162
     18 C          -0.2422    1.3052    1.5956 C.ar    1  LIG1       -0.0514
     19 O          -0.8645    1.4243   -1.1731 O.3     1  LIG1       -0.4828
     20 O           1.8610   -1.5534   -1.7842 O.2     1  LIG1       -0.2917
     21 C          -1.2949    0.1376   -1.3794 C.ar    1  LIG1        0.1389
     22 C          -2.6792   -0.0377   -1.3473 C.ar    1  LIG1        0.0225
     23 H          -4.8232   -2.3559   -1.6087 H       1  LIG1        0.2921
     24 H          -2.8285   -3.3930   -1.8755 H       1  LIG1        0.0691
     25 H          -0.7398   -4.1281   -2.0399 H       1  LIG1        0.2922
     26 H           1.1812    1.0881   -2.8481 H       1  LIG1        0.0385
     27 H           2.4498    0.8850   -1.6317 H       1  LIG1        0.0385
     28 H           2.9695    1.2897    0.4482 H       1  LIG1        0.0659
     29 H           4.2618    0.9404    2.2475 H       1  LIG1        0.2923
     30 H           2.5393    0.8083    4.7920 H       1  LIG1        0.2923
     31 H          -0.8095    1.1052    3.6730 H       1  LIG1        0.0655
     32 H          -1.2774    1.4173    1.2785 H       1  LIG1        0.0623
     33 H          -3.3352    0.8118   -1.1767 H       1  LIG1        0.0691
@<TRIPOS>BOND
     1     1     2    1
     2     2     3   ar
     3     3     4   ar
     4     4     5    1
     5     4     6   ar
     6     6     7    1
     7     7     8    1
     8     8     9    1
     9    11    12   ar
    10    12    13   ar
    11    13    14    1
    12    13    15   ar
    13    15    16    1
    14    15    17   ar
    15    17    18   ar
    16    11    18   ar
    17     9    19    1
    18     7    20    2
    19     6    21   ar
    20    19    21    1
    21    21    22   ar
    22     2    22   ar
    23     9    11    1
    24     9    10    1
    25     1    23    1
    26     3    24    1
    27     5    25    1
    28     8    26    1
    29     8    27    1
    30    12    28    1
    31    14    29    1
    32    16    30    1
    33    17    31    1
    34    18    32    1
    35    22    33    1
