REMARK  Name = NuBBE_267
REMARK  7 active torsions:
REMARK  status: ('A' for Active; 'I' for Inactive)
REMARK    1  A    between atoms: C_1  and  O_2
REMARK    2  A    between atoms: O_2  and  C_3
REMARK    3  A    between atoms: C_5  and  O_6
REMARK    4  A    between atoms: O_6  and  C_7
REMARK    5  A    between atoms: C_14  and  O_15
REMARK    6  A    between atoms: O_15  and  C_16
REMARK    7  A    between atoms: C_18  and  C_20
REMARK                            x       y       z     vdW  Elec       q    Type
REMARK                         _______ _______ _______ _____ _____    ______ ____
ROOT
ATOM      1  C   LIG A   1      -2.036   1.911   1.905  0.00  0.00    +0.127 A 
ATOM      2  C   LIG A   1      -2.476   0.617   2.242  0.00  0.00    +0.092 A 
ATOM      3  C   LIG A   1      -1.948  -0.523   1.619  0.00  0.00    +0.138 A 
ATOM      4  C   LIG A   1      -1.057   2.084   0.928  0.00  0.00    +0.092 A 
ATOM      5  C   LIG A   1      -0.533   0.957   0.328  0.00  0.00    +0.140 A 
ATOM      6  O   LIG A   1       0.468   1.038  -0.605  0.00  0.00    -0.469 OA
ATOM      7  C   LIG A   1      -0.969  -0.309   0.660  0.00  0.00    +0.105 A 
ATOM      8  C   LIG A   1      -0.177  -1.212  -0.160  0.00  0.00    +0.221 C 
ATOM      9  C   LIG A   1       0.748  -0.332  -1.029  0.00  0.00    +0.231 C 
ATOM     10  C   LIG A   1       2.228  -0.593  -0.746  0.00  0.00    +0.152 C 
ATOM     11  C   LIG A   1       3.166  -0.502  -1.707  0.00  0.00    +0.091 C 
ATOM     12  C   LIG A   1       0.386  -0.404  -2.536  0.00  0.00    +0.053 C 
ATOM     13  C   LIG A   1       0.256  -1.828  -3.087  0.00  0.00    +0.013 C 
ATOM     14  C   LIG A   1       1.417   0.387  -3.359  0.00  0.00    +0.087 C 
ATOM     15  C   LIG A   1       2.823  -0.084  -3.083  0.00  0.00    +0.160 C 
ATOM     16  O   LIG A   1       3.703  -0.065  -3.940  0.00  0.00    -0.293 OA
ATOM     17  O   LIG A   1      -0.248  -2.422  -0.145  0.00  0.00    -0.287 OA
ENDROOT
BRANCH   1  19
ATOM     18  C   LIG A   1      -2.208   4.240   2.315  0.00  0.00    +0.277 C 
ATOM     19  O   LIG A   1      -2.636   2.917   2.615  0.00  0.00    -0.495 OA
ENDBRANCH   1  19
BRANCH   3  20
ATOM     20  O   LIG A   1      -2.329  -1.804   1.898  0.00  0.00    -0.494 OA
ATOM     21  C   LIG A   1      -3.218  -1.984   2.998  0.00  0.00    +0.277 C 
ENDBRANCH   3  20
BRANCH  10  22
ATOM     22  O   LIG A   1       2.509  -0.918   0.574  0.00  0.00    -0.495 OA
ATOM     23  C   LIG A   1       3.736  -1.603   0.821  0.00  0.00    +0.277 C 
ENDBRANCH  10  22
TORSDOF 3
