@<TRIPOS>MOLECULE
NuBBE_390
 116 117 0 0 0
SMALL
GASTEIGER

@<TRIPOS>ATOM
      1 C          -3.4823    0.8182    3.1904 C.3     1  LIG1       -0.0438
      2 C          -3.9214   -0.5833    3.3651 C.2     1  LIG1       -0.0762
      3 C          -2.7315   -1.5768    3.8692 C.3     1  LIG1       -0.0286
      4 C          -1.1714   -1.7191    3.2867 C.3     1  LIG1       -0.0308
      5 C          -0.1368   -0.3915    3.4545 C.2     1  LIG1       -0.0847
      6 C           0.9564   -0.4270    2.5904 C.2     1  LIG1       -0.0762
      7 C           0.8795   -2.0405    1.5336 C.3     1  LIG1       -0.0438
      8 C           0.8696    1.4022    1.7767 C.3     1  LIG1       -0.0286
      9 C           1.1319    2.0878    0.0049 C.3     1  LIG1       -0.0308
     10 C          -0.0294    2.2395   -0.7973 C.2     1  LIG1       -0.0850
     11 C          -0.9766    3.0954   -0.9974 C.2     1  LIG1       -0.0796
     12 C          -0.9848    3.9924    0.1063 C.3     1  LIG1       -0.0440
     13 C          -1.9701    2.7407   -2.0345 C.3     1  LIG1       -0.0440
     14 C          -5.2267   -0.6903    2.9674 C.2     1  LIG1       -0.0847
     15 C          -6.0373    0.4464    2.1593 C.3     1  LIG1       -0.0308
     16 C          -5.4202    1.7507    1.4926 C.3     1  LIG1       -0.0285
     17 C          -4.4110    1.7113    0.3456 C.2     1  LIG1       -0.0741
     18 C          -4.3440    3.1057   -0.2548 C.3     1  LIG1       -0.0437
     19 C          -3.8233    0.5591   -0.0973 C.2     1  LIG1       -0.0596
     20 C          -2.5801    0.5062   -0.9180 C.3     1  LIG1        0.0692
     21 O          -1.8829   -0.6651   -1.4571 O.3     1  LIG1       -0.3446
     22 C          -0.6203   -0.4669   -2.3580 C.3     1  LIG1        0.1884
     23 H          -1.0069    0.0726   -3.1946 H       1  LIG1        0.0938
     24 O          -0.3038   -1.7742   -2.6287 O.3     1  LIG1       -0.3383
     25 C           0.6700   -1.9192   -3.6150 C.3     1  LIG1        0.1350
     26 H           0.0022   -1.8510   -4.4664 H       1  LIG1        0.0669
     27 C           1.2034   -3.3218   -3.5021 C.3     1  LIG1        0.1222
     28 O           2.0166   -3.5950   -2.3644 O.3     1  LIG1       -0.4621
     29 C           1.2663   -3.7345   -1.2663 C.2     1  LIG1        0.3040
     30 C           1.7581   -4.7506   -0.3479 C.3     1  LIG1        0.0332
     31 O           0.1873   -3.2281   -1.0305 O.2     1  LIG1       -0.2512
     32 C           1.8261   -0.8856   -3.7644 C.3     1  LIG1        0.1609
     33 H           2.7151   -1.2912   -4.2131 H       1  LIG1        0.0789
     34 O           1.3233    0.1626   -4.6677 O.3     1  LIG1       -0.4561
     35 C           1.2596   -0.1951   -5.9631 C.2     1  LIG1        0.3044
     36 C           1.2750    1.0042   -6.8469 C.3     1  LIG1        0.0332
     37 O           1.3029   -1.3515   -6.3536 O.2     1  LIG1       -0.2512
     38 C           2.2882   -0.1725   -2.5137 C.3     1  LIG1        0.1317
     39 H           2.8331    0.7584   -2.7563 H       1  LIG1        0.0663
     40 O           3.2369   -0.7894   -1.5687 O.3     1  LIG1       -0.3379
     41 C           3.7800   -0.0211   -0.4092 C.3     1  LIG1        0.2007
     42 H           4.1409    0.9563   -0.7131 H       1  LIG1        0.0950
     43 C           2.9107    0.3801    0.6617 C.3     1  LIG1        0.1925
     44 H           1.9468    0.6291    0.5201 H       1  LIG1        0.0824
     45 O           3.4884    1.0267    1.7694 O.3     1  LIG1       -0.4525
     46 C           3.6098    2.3851    1.6465 C.2     1  LIG1        0.3045
     47 C           4.3927    2.8881    2.7369 C.3     1  LIG1        0.0332
     48 O           3.2437    3.1678    0.7916 O.2     1  LIG1       -0.2512
     49 C           2.0186   -0.7528    0.7467 C.3     1  LIG1        0.1725
     50 H           1.8616   -1.1284   -0.2598 H       1  LIG1        0.0801
     51 O           0.3447   -0.4976    0.9953 O.3     1  LIG1       -0.4549
     52 C          -1.0474   -0.4523    0.7561 C.2     1  LIG1        0.3044
     53 C          -2.0379   -0.3302    1.4610 C.3     1  LIG1        0.0332
     54 O          -0.5756    0.2581   -0.2661 O.2     1  LIG1       -0.2512
     55 C           2.9313   -1.8349    1.9384 C.3     1  LIG1        0.1216
     56 H           2.6364   -1.7531    3.0200 H       1  LIG1        0.0658
     57 O           2.6171   -3.4145    2.0436 O.3     1  LIG1       -0.3854
     58 C           4.1825   -1.9280    1.1297 C.3     1  LIG1        0.0884
     59 H           4.0386   -2.6592    0.3250 H       1  LIG1        0.0621
     60 C           5.1243   -2.4577    2.1449 C.3     1  LIG1       -0.0360
     61 O           4.7025   -0.7738    0.4327 O.3     1  LIG1       -0.3420
     62 C           0.9017    0.2510   -2.1236 C.3     1  LIG1        0.1355
     63 H           1.0301    0.0703   -1.1044 H       1  LIG1        0.0671
     64 O           1.1047    1.6181   -2.6959 O.3     1  LIG1       -0.3841
     65 H          -3.6310    0.8012    2.1397 H       1  LIG1        0.0274
     66 H          -2.4781    1.1581    3.3694 H       1  LIG1        0.0274
     67 H          -4.0575    1.6673    3.4472 H       1  LIG1        0.0274
     68 H          -3.0920   -2.6097    3.8692 H       1  LIG1        0.0313
     69 H          -2.5149   -1.1667    4.8407 H       1  LIG1        0.0313
     70 H          -1.2985   -2.1560    2.2511 H       1  LIG1        0.0310
     71 H          -0.5675   -2.5274    3.6737 H       1  LIG1        0.0310
     72 H          -0.5472    0.6640    3.3798 H       1  LIG1        0.0572
     73 H           0.4877   -2.9799    2.1117 H       1  LIG1        0.0274
     74 H           1.7735   -2.4771    0.6181 H       1  LIG1        0.0274
     75 H           0.3992   -2.0803    0.4111 H       1  LIG1        0.0274
     76 H           1.7457    1.7302    2.2380 H       1  LIG1        0.0313
     77 H           0.3402    2.2661    2.2000 H       1  LIG1        0.0313
     78 H           1.8408    1.5371   -0.6667 H       1  LIG1        0.0310
     79 H           1.7746    2.9070   -0.2925 H       1  LIG1        0.0310
     80 H          -0.3812    1.4640   -1.4072 H       1  LIG1        0.0572
     81 H          -0.0346    3.9656    0.6670 H       1  LIG1        0.0274
     82 H          -1.7799    3.6921    0.7862 H       1  LIG1        0.0274
     83 H          -1.0795    4.8746   -0.4823 H       1  LIG1        0.0274
     84 H          -1.8587    1.8595   -2.6977 H       1  LIG1        0.0274
     85 H          -2.3369    3.5552   -2.5893 H       1  LIG1        0.0274
     86 H          -2.7750    2.4271   -1.4408 H       1  LIG1        0.0274
     87 H          -5.8182   -1.5684    3.2238 H       1  LIG1        0.0572
     88 H          -6.7767    0.8369    2.8676 H       1  LIG1        0.0310
     89 H          -6.6109   -0.0222    1.3486 H       1  LIG1        0.0310
     90 H          -5.0897    2.4552    2.2757 H       1  LIG1        0.0313
     91 H          -6.2241    2.3203    1.0418 H       1  LIG1        0.0313
     92 H          -4.4824    3.8960    0.4788 H       1  LIG1        0.0274
     93 H          -5.0740    3.0324   -1.0593 H       1  LIG1        0.0274
     94 H          -3.5022    3.6107   -0.7000 H       1  LIG1        0.0274
     95 H          -3.9414   -0.3743    0.4156 H       1  LIG1        0.0594
     96 H          -2.0203    1.2579   -0.2754 H       1  LIG1        0.0605
     97 H          -2.9891    0.7908   -1.8255 H       1  LIG1        0.0605
     98 H           1.8456   -3.4976   -4.3539 H       1  LIG1        0.0725
     99 H           0.3620   -4.0275   -3.5154 H       1  LIG1        0.0725
    100 H           1.1064   -4.6582    0.5428 H       1  LIG1        0.0342
    101 H           2.8273   -4.5935   -0.1887 H       1  LIG1        0.0342
    102 H           1.5804   -5.7180   -0.7633 H       1  LIG1        0.0342
    103 H           0.7692    1.8457   -6.3677 H       1  LIG1        0.0342
    104 H           0.7429    0.7604   -7.7669 H       1  LIG1        0.0342
    105 H           2.3115    1.2732   -7.0716 H       1  LIG1        0.0342
    106 H           4.1342    2.3237    3.6282 H       1  LIG1        0.0342
    107 H           4.1357    3.9452    2.8357 H       1  LIG1        0.0342
    108 H           5.3713    2.7001    2.3057 H       1  LIG1        0.0342
    109 H          -2.6917   -1.2073    1.4145 H       1  LIG1        0.0342
    110 H          -2.1852    0.7408    1.3783 H       1  LIG1        0.0342
    111 H          -1.8124   -0.1329    2.4553 H       1  LIG1        0.0342
    112 H           2.4968   -3.6726    1.1231 H       1  LIG1        0.2101
    113 H           6.0791   -2.0337    1.8974 H       1  LIG1        0.0255
    114 H           5.0917   -3.5520    2.1200 H       1  LIG1        0.0255
    115 H           4.8240   -2.1475    3.1590 H       1  LIG1        0.0255
    116 H           0.3237    2.1843   -2.7628 H       1  LIG1        0.2101
@<TRIPOS>BOND
     1     1     2    1
     2     2     3    1
     3     3     4    1
     4     4     5    1
     5     5     6    2
     6     6     7    1
     7     6     8    1
     8     8     9    1
     9     9    10    1
    10    10    11    2
    11    11    12    1
    12    11    13    1
    13     2    14    2
    14    14    15    1
    15    15    16    1
    16    16    17    1
    17    17    18    1
    18    17    19    2
    19    19    20    1
    20    20    21    1
    21    22    24    1
    22    24    25    1
    23    25    26    1
    24    25    27    1
    25    27    28    1
    26    28    29    1
    27    29    30    1
    28    29    31    2
    29    25    32    1
    30    34    35    1
    31    35    36    1
    32    35    37    2
    33    32    38    1
    34    38    39    1
    35    38    40    1
    36    40    41    1
    37    41    42    1
    38    41    43    1
    39    45    46    1
    40    46    47    1
    41    46    48    2
    42    43    49    1
    43    49    50    1
    44    49    51    1
    45    51    52    1
    46    52    53    1
    47    52    54    2
    48    49    55    1
    49    55    58    1
    50    58    59    1
    51    58    60    1
    52    58    61    1
    53    41    61    1
    54    38    62    1
    55    22    62    1
    56    22    23    1
    57    22    21    1
    58    32    34    1
    59    32    33    1
    60    43    45    1
    61    43    44    1
    62    55    57    1
    63    55    56    1
    64    62    64    1
    65    62    63    1
    66     1    65    1
    67     1    66    1
    68     1    67    1
    69     3    68    1
    70     3    69    1
    71     4    70    1
    72     4    71    1
    73     5    72    1
    74     7    73    1
    75     7    74    1
    76     7    75    1
    77     8    76    1
    78     8    77    1
    79     9    78    1
    80     9    79    1
    81    10    80    1
    82    12    81    1
    83    12    82    1
    84    12    83    1
    85    13    84    1
    86    13    85    1
    87    13    86    1
    88    14    87    1
    89    15    88    1
    90    15    89    1
    91    16    90    1
    92    16    91    1
    93    18    92    1
    94    18    93    1
    95    18    94    1
    96    19    95    1
    97    20    96    1
    98    20    97    1
    99    27    98    1
   100    27    99    1
   101    30   100    1
   102    30   101    1
   103    30   102    1
   104    36   103    1
   105    36   104    1
   106    36   105    1
   107    47   106    1
   108    47   107    1
   109    47   108    1
   110    53   109    1
   111    53   110    1
   112    53   111    1
   113    57   112    1
   114    60   113    1
   115    60   114    1
   116    60   115    1
   117    64   116    1
