REMARK  Name = NuBBE_1771
REMARK  3 active torsions:
REMARK  status: ('A' for Active; 'I' for Inactive)
REMARK    1  A    between atoms: C_11  and  O_12
REMARK    2  A    between atoms: C_13  and  O_16
REMARK    3  A    between atoms: C_22  and  O_24
REMARK                            x       y       z     vdW  Elec       q    Type
REMARK                         _______ _______ _______ _____ _____    ______ ____
ROOT
ATOM      1  O   LIG A   1      -3.501  -0.891  -0.470  0.00  0.00    -0.289 OA
ATOM      2  C   LIG A   1      -2.276  -0.882  -0.376  0.00  0.00    +0.199 C 
ATOM      3  C   LIG A   1      -1.477   0.377  -0.161  0.00  0.00    +0.234 C 
ATOM      4  C   LIG A   1      -0.287   0.030   0.733  0.00  0.00    +0.240 C 
ATOM      5  C   LIG A   1       0.557   1.279   0.910  0.00  0.00    +0.005 A 
ATOM      6  C   LIG A   1       0.506   2.307  -0.064  0.00  0.00    +0.030 A 
ATOM      7  C   LIG A   1      -0.404   2.167  -1.264  0.00  0.00    +0.200 C 
ATOM      8  O   LIG A   1      -1.020   0.886  -1.413  0.00  0.00    -0.360 OA
ATOM      9  C   LIG A   1       1.258   3.467   0.156  0.00  0.00    +0.164 A 
ATOM     10  C   LIG A   1       2.039   3.597   1.307  0.00  0.00    +0.159 A 
ATOM     11  C   LIG A   1       2.103   2.587   2.252  0.00  0.00    +0.049 A 
ATOM     12  C   LIG A   1       1.368   1.421   2.051  0.00  0.00    +0.011 A 
ATOM     13  O   LIG A   1       0.552  -0.989   0.162  0.00  0.00    -0.480 OA
ATOM     14  C   LIG A   1      -0.133  -2.110  -0.230  0.00  0.00    +0.136 A 
ATOM     15  C   LIG A   1      -1.506  -2.134  -0.483  0.00  0.00    +0.062 A 
ATOM     16  C   LIG A   1      -2.144  -3.321  -0.862  0.00  0.00    +0.019 A 
ATOM     17  C   LIG A   1      -1.399  -4.491  -1.009  0.00  0.00    +0.046 A 
ATOM     18  C   LIG A   1      -0.025  -4.455  -0.781  0.00  0.00    +0.120 A 
ATOM     19  C   LIG A   1       0.612  -3.276  -0.398  0.00  0.00    +0.091 A 
ENDROOT
BRANCH   9  20
ATOM     20  O   LIG A   1       1.274   4.543  -0.694  0.00  0.00    -0.503 OA
ATOM     21  H   LIG A   1       0.784   4.338  -1.505  0.00  0.00    +0.292 HD
ENDBRANCH   9  20
BRANCH  10  22
ATOM     22  O   LIG A   1       2.752   4.745   1.518  0.00  0.00    -0.503 OA
ATOM     23  H   LIG A   1       2.555   5.301   0.738  0.00  0.00    +0.292 HD
ENDBRANCH  10  22
BRANCH  18  24
ATOM     24  O   LIG A   1       0.740  -5.575  -0.923  0.00  0.00    -0.507 OA
ATOM     25  H   LIG A   1       0.172  -6.313  -1.201  0.00  0.00    +0.292 HD
ENDBRANCH  18  24
TORSDOF 3
