REMARK  Name = NuBBE_1033
REMARK  12 active torsions:
REMARK  status: ('A' for Active; 'I' for Inactive)
REMARK    1  A    between atoms: C_1  and  C_2
REMARK    2  A    between atoms: C_2  and  C_41
REMARK    3  A    between atoms: C_3  and  O_4
REMARK    4  A    between atoms: O_4  and  C_5
REMARK    5  A    between atoms: C_5  and  C_6
REMARK    6  A    between atoms: C_10  and  C_40
REMARK    7  A    between atoms: C_14  and  C_38
REMARK    8  A    between atoms: C_19  and  C_36
REMARK    9  A    between atoms: C_22  and  C_33
REMARK   10  A    between atoms: C_24  and  C_31
REMARK   11  A    between atoms: C_26  and  C_27
REMARK   12  A    between atoms: C_33  and  O_34
REMARK                            x       y       z     vdW  Elec       q    Type
REMARK                         _______ _______ _______ _____ _____    ______ ____
ROOT
ATOM      1  C   LIG A   1      -0.188   2.094   4.526  0.00  0.00    +0.015 C 
ATOM      2  C   LIG A   1       0.893   2.130   3.428  0.00  0.00    +0.005 C 
ATOM      3  C   LIG A   1       1.393   3.610   3.240  0.00  0.00    +0.182 C 
ATOM      4  C   LIG A   1       0.362   4.487   2.464  0.00  0.00    +0.046 C 
ATOM      5  C   LIG A   1      -0.295   3.870   1.188  0.00  0.00    +0.011 C 
ATOM      6  C   LIG A   1      -0.777   2.390   1.367  0.00  0.00    -0.025 C 
ATOM      7  C   LIG A   1       0.458   1.669   1.999  0.00  0.00    +0.004 C 
ATOM      8  C   LIG A   1       0.518   0.192   1.626  0.00  0.00    +0.005 C 
ATOM      9  C   LIG A   1       0.874   0.097   0.125  0.00  0.00    +0.008 C 
ATOM     10  C   LIG A   1      -0.010   0.985  -0.836  0.00  0.00    -0.019 C 
ATOM     11  C   LIG A   1      -1.199   1.630  -0.003  0.00  0.00    +0.006 C 
ATOM     12  C   LIG A   1      -2.347   0.547   0.217  0.00  0.00    +0.031 C 
ATOM     13  C   LIG A   1      -2.166  -0.830  -0.371  0.00  0.00    -0.026 C 
ATOM     14  C   LIG A   1      -1.317  -1.098  -1.375  0.00  0.00    -0.063 C 
ATOM     15  C   LIG A   1      -0.609   0.091  -2.038  0.00  0.00    -0.005 C 
ATOM     16  C   LIG A   1       0.477  -0.427  -3.030  0.00  0.00    +0.012 C 
ATOM     17  C   LIG A   1      -0.043  -1.512  -3.990  0.00  0.00    +0.019 C 
ATOM     18  C   LIG A   1      -0.696  -2.733  -3.272  0.00  0.00    +0.074 C 
ATOM     19  C   LIG A   1      -0.800  -2.497  -1.744  0.00  0.00    +0.035 C 
ATOM     20  C   LIG A   1      -1.262  -3.743  -0.921  0.00  0.00    -0.003 C 
ATOM     21  C   LIG A   1      -0.337  -4.963  -1.208  0.00  0.00    -0.011 C 
ATOM     22  C   LIG A   1       1.027  -4.826  -0.513  0.00  0.00    +0.008 C 
ATOM     23  C   LIG A   1      -0.164  -5.205  -2.715  0.00  0.00    +0.004 C 
ATOM     24  C   LIG A   1       0.251  -3.954  -3.489  0.00  0.00    +0.019 C 
ATOM     25  C   LIG A   1      -2.725  -4.163  -1.104  0.00  0.00    +0.008 C 
ATOM     26  C   LIG A   1      -1.630   0.890  -2.905  0.00  0.00    +0.016 C 
ATOM     27  C   LIG A   1       0.885   2.095  -1.442  0.00  0.00    +0.012 C 
ATOM     28  C   LIG A   1      -2.060   2.505   2.240  0.00  0.00    +0.012 C 
ATOM     29  C   LIG A   1       2.003   1.195   3.967  0.00  0.00    +0.015 C 
ENDROOT
BRANCH  18  30
ATOM     30  C   LIG A   1      -2.038  -3.006  -3.971  0.00  0.00    +0.311 C 
ATOM     31  O   LIG A   1      -2.152  -3.745  -4.944  0.00  0.00    -0.250 OA
BRANCH  30  32
ATOM     32  O   LIG A   1      -3.109  -2.331  -3.512  0.00  0.00    -0.480 OA
ATOM     33  H   LIG A   1      -2.959  -1.764  -2.733  0.00  0.00    +0.295 HD
ENDBRANCH  30  32
ENDBRANCH  18  30
BRANCH   3  34
ATOM     34  O   LIG A   1       2.640   3.658   2.487  0.00  0.00    -0.461 OA
BRANCH  34  35
ATOM     35  C   LIG A   1       3.803   3.570   3.187  0.00  0.00    +0.304 C 
ATOM     36  C   LIG A   1       4.993   3.650   2.285  0.00  0.00    +0.136 C 
ATOM     37  O   LIG A   1       3.897   3.467   4.410  0.00  0.00    -0.251 OA
ENDBRANCH  34  35
ENDBRANCH   3  34
TORSDOF 4
