@<TRIPOS>MOLECULE
NuBBE_368
 64 68 0 0 0
SMALL
GASTEIGER

@<TRIPOS>ATOM
      1 O           5.0542   -5.6384    2.9691 O.3     1  LIG1       -0.5032
      2 C           4.5793   -4.5770    2.2511 C.ar    1  LIG1        0.1618
      3 C           3.2209   -4.4815    1.9446 C.ar    1  LIG1        0.0265
      4 C           2.7557   -3.3880    1.2083 C.ar    1  LIG1        0.1430
      5 O           1.4060   -3.3417    0.9508 O.2     1  LIG1       -0.4542
      6 C           0.9135   -2.2821    0.2239 C.ar    1  LIG1        0.1463
      7 C          -0.4618   -2.2658    0.0035 C.ar    1  LIG1        0.0235
      8 C          -1.0416   -1.2226   -0.7344 C.ar    1  LIG1        0.1296
      9 C          -0.2766   -0.1704   -1.2795 C.ar    1  LIG1        0.0684
     10 C          -0.9362    0.9630   -2.0820 C.3     1  LIG1        0.1303
     11 H          -1.9981    0.7200   -2.1877 H       1  LIG1        0.0687
     12 O          -0.3987    0.9714   -3.4198 O.3     1  LIG1       -0.3598
     13 C          -1.0454    1.9582   -4.2465 C.3     1  LIG1        0.1109
     14 H          -2.1272    1.7690   -4.2389 H       1  LIG1        0.0646
     15 C          -0.7305    3.3724   -3.7319 C.3     1  LIG1        0.1128
     16 H           0.3508    3.5592   -3.7349 H       1  LIG1        0.0647
     17 C          -1.2550    3.5205   -2.3070 C.3     1  LIG1        0.1231
     18 H          -2.3432    3.6171   -2.3358 H       1  LIG1        0.0658
     19 C          -0.7964    2.3632   -1.4142 C.3     1  LIG1        0.1618
     20 H           0.2545    2.5558   -1.1747 H       1  LIG1        0.0791
     21 O          -1.4688    2.3997   -0.1418 O.3     1  LIG1       -0.4526
     22 C          -2.7929    2.1551   -0.0980 C.2     1  LIG1        0.3324
     23 C          -3.1539    1.6675    1.2345 C.2     1  LIG1        0.0231
     24 C          -2.1954    1.2250    2.0662 C.2     1  LIG1       -0.0478
     25 C          -2.4413    0.6663    3.3851 C.ar    1  LIG1       -0.0248
     26 C          -1.4582    0.8359    4.3661 C.ar    1  LIG1       -0.0546
     27 C          -1.6456    0.3074    5.6393 C.ar    1  LIG1       -0.0612
     28 C          -2.8098   -0.4015    5.9307 C.ar    1  LIG1       -0.0617
     29 C          -3.7808   -0.5939    4.9490 C.ar    1  LIG1       -0.0612
     30 C          -3.5930   -0.0698    3.6743 C.ar    1  LIG1       -0.0546
     31 O          -3.5996    2.2154   -1.0252 O.2     1  LIG1       -0.2456
     32 O          -0.7950    4.7756   -1.7660 O.3     1  LIG1       -0.3854
     33 O          -1.3525    4.4117   -4.5015 O.3     1  LIG1       -0.3865
     34 C          -0.5365    1.7739   -5.6790 C.3     1  LIG1        0.0729
     35 O          -0.8235    0.4644   -6.1614 O.3     1  LIG1       -0.3924
     36 C           1.1099   -0.2113   -1.0414 C.ar    1  LIG1        0.1405
     37 O           1.8848    0.7962   -1.5603 O.3     1  LIG1       -0.5054
     38 O          -2.3975   -1.2312   -0.9194 O.3     1  LIG1       -0.5062
     39 C           1.6953   -1.2526   -0.2899 C.ar    1  LIG1        0.1064
     40 C           3.1386   -1.2859   -0.0066 C.ar    1  LIG1        0.2038
     41 O           3.8757   -0.3948   -0.4146 O.2     1  LIG1       -0.2863
     42 C           3.6543   -2.4124    0.7809 C.ar    1  LIG1        0.0684
     43 C           5.0163   -2.5001    1.0905 C.ar    1  LIG1       -0.0022
     44 C           5.4721   -3.5873    1.8302 C.ar    1  LIG1        0.1591
     45 O           6.7953   -3.6987    2.1519 O.3     1  LIG1       -0.5033
     46 H           4.3275   -6.2452    3.1777 H       1  LIG1        0.2923
     47 H           2.5215   -5.2445    2.2721 H       1  LIG1        0.0692
     48 H          -1.0706   -3.0660    0.4174 H       1  LIG1        0.0691
     49 H          -4.2128    1.6261    1.4521 H       1  LIG1        0.0689
     50 H          -1.1449    1.2688    1.7827 H       1  LIG1        0.0626
     51 H          -0.5484    1.3929    4.1479 H       1  LIG1        0.0623
     52 H          -0.8862    0.4551    6.4017 H       1  LIG1        0.0618
     53 H          -2.9608   -0.8070    6.9263 H       1  LIG1        0.0618
     54 H          -4.6862   -1.1502    5.1725 H       1  LIG1        0.0618
     55 H          -4.3499   -0.2436    2.9138 H       1  LIG1        0.0623
     56 H          -1.0661    5.4476   -2.4218 H       1  LIG1        0.2101
     57 H          -1.0724    4.3341   -5.4282 H       1  LIG1        0.2100
     58 H           0.5476    1.9157   -5.7317 H       1  LIG1        0.0584
     59 H          -1.0178    2.4807   -6.3593 H       1  LIG1        0.0584
     60 H          -0.3303   -0.1444   -5.5791 H       1  LIG1        0.2095
     61 H           2.8193    0.6386   -1.2940 H       1  LIG1        0.2922
     62 H          -2.7705   -2.0600   -0.5726 H       1  LIG1        0.2922
     63 H           5.6990   -1.7256    0.7530 H       1  LIG1        0.0663
     64 H           7.2796   -2.9297    1.8119 H       1  LIG1        0.2923
@<TRIPOS>BOND
     1     1     2    1
     2     2     3   ar
     3     3     4   ar
     4     4     5   ar
     5     5     6   ar
     6     6     7   ar
     7     7     8   ar
     8     8     9   ar
     9    10    12    1
    10    12    13    1
    11    13    14    1
    12    13    15    1
    13    15    17    1
    14    17    18    1
    15    17    19    1
    16    10    19    1
    17    21    22    1
    18    22    23    1
    19    23    24    2
    20    24    25    1
    21    25    26   ar
    22    26    27   ar
    23    27    28   ar
    24    28    29   ar
    25    29    30   ar
    26    25    30   ar
    27    22    31    2
    28    17    32    1
    29    13    34    1
    30    34    35    1
    31     9    36   ar
    32    36    37    1
    33     8    38    1
    34     6    39   ar
    35    36    39   ar
    36    39    40   ar
    37    40    41    2
    38     4    42   ar
    39    40    42   ar
    40    42    43   ar
    41    43    44   ar
    42     2    44   ar
    43    44    45    1
    44    10    11    1
    45    10     9    1
    46    15    33    1
    47    15    16    1
    48    19    21    1
    49    19    20    1
    50     1    46    1
    51     3    47    1
    52     7    48    1
    53    23    49    1
    54    24    50    1
    55    26    51    1
    56    27    52    1
    57    28    53    1
    58    29    54    1
    59    30    55    1
    60    32    56    1
    61    33    57    1
    62    34    58    1
    63    34    59    1
    64    35    60    1
    65    37    61    1
    66    38    62    1
    67    43    63    1
    68    45    64    1
