@<TRIPOS>MOLECULE
NuBBE_1845
 43 45 0 0 0
SMALL
GASTEIGER

@<TRIPOS>ATOM
      1 O           2.6562   -0.4558   -2.0649 O.3     1  LIG1       -0.5061
      2 C           2.9772   -1.3222   -1.0526 C.ar    1  LIG1        0.1264
      3 C           2.6836   -0.9039    0.2561 C.ar    1  LIG1       -0.0054
      4 C           2.0414    0.4371    0.5354 C.3     1  LIG1       -0.0239
      5 C           0.5107    0.3587    0.5254 C.3     1  LIG1       -0.0448
      6 C          -0.1149    1.7314    0.7982 C.3     1  LIG1       -0.0238
      7 C          -1.6291    1.6860    0.8171 C.ar    1  LIG1       -0.0020
      8 C          -2.2886    1.4231    2.0338 C.ar    1  LIG1       -0.0095
      9 C          -3.6630    1.3497    2.0349 C.ar    1  LIG1        0.1667
     10 O          -4.4516    1.0850    3.1106 O.3     1  LIG1       -0.4526
     11 C          -5.7605    1.1137    2.5043 C.3     1  LIG1        0.2332
     12 O          -5.7311    1.3973    1.0909 O.3     1  LIG1       -0.4525
     13 C          -4.3936    1.5310    0.8850 C.ar    1  LIG1        0.1697
     14 C          -3.7920    1.8011   -0.3230 C.ar    1  LIG1        0.0258
     15 C          -2.3951    1.8876   -0.3646 C.ar    1  LIG1        0.1270
     16 O          -1.6923    2.0964   -1.5246 O.3     1  LIG1       -0.4947
     17 C          -2.3282    2.9140   -2.5033 C.3     1  LIG1        0.0788
     18 C           2.9704   -1.7693    1.3203 C.ar    1  LIG1       -0.0516
     19 C           3.5432   -3.0183    1.0829 C.ar    1  LIG1       -0.0194
     20 C           3.8368   -3.4091   -0.2233 C.ar    1  LIG1        0.1232
     21 O           4.3931   -4.6389   -0.4486 O.3     1  LIG1       -0.5064
     22 C           3.5719   -2.5703   -1.3139 C.ar    1  LIG1        0.0326
     23 C           3.9024   -3.0045   -2.7149 C.3     1  LIG1       -0.0328
     24 H           2.7676   -0.9000   -2.9186 H       1  LIG1        0.2922
     25 H           2.3897    1.1769   -0.1960 H       1  LIG1        0.0314
     26 H           2.3918    0.8060    1.5085 H       1  LIG1        0.0314
     27 H           0.1732   -0.3625    1.2813 H       1  LIG1        0.0272
     28 H           0.1627   -0.0229   -0.4428 H       1  LIG1        0.0272
     29 H           0.2285    2.4602    0.0554 H       1  LIG1        0.0314
     30 H           0.2421    2.1122    1.7652 H       1  LIG1        0.0314
     31 H          -1.7342    1.2718    2.9559 H       1  LIG1        0.0659
     32 H          -6.3614    1.8837    3.0012 H       1  LIG1        0.1166
     33 H          -6.2412    0.1403    2.6565 H       1  LIG1        0.1166
     34 H          -4.4176    1.9040   -1.2007 H       1  LIG1        0.0692
     35 H          -2.4555    3.9346   -2.1276 H       1  LIG1        0.0660
     36 H          -3.2819    2.5017   -2.8439 H       1  LIG1        0.0660
     37 H          -1.6736    2.9537   -3.3794 H       1  LIG1        0.0660
     38 H           2.7434   -1.4741    2.3421 H       1  LIG1        0.0623
     39 H           3.7521   -3.6702    1.9256 H       1  LIG1        0.0654
     40 H           4.4980   -5.0964    0.4013 H       1  LIG1        0.2921
     41 H           4.4775   -3.9345   -2.7481 H       1  LIG1        0.0280
     42 H           4.5108   -2.2417   -3.2126 H       1  LIG1        0.0280
     43 H           2.9812   -3.1625   -3.2848 H       1  LIG1        0.0280
@<TRIPOS>BOND
     1     1     2    1
     2     2     3   ar
     3     3     4    1
     4     4     5    1
     5     5     6    1
     6     6     7    1
     7     7     8   ar
     8     8     9   ar
     9     9    10    1
    10    10    11    1
    11    11    12    1
    12     9    13   ar
    13    12    13    1
    14    13    14   ar
    15    14    15   ar
    16     7    15   ar
    17    15    16    1
    18    16    17    1
    19     3    18   ar
    20    18    19   ar
    21    19    20   ar
    22    20    21    1
    23    20    22   ar
    24     2    22   ar
    25    22    23    1
    26     1    24    1
    27     4    25    1
    28     4    26    1
    29     5    27    1
    30     5    28    1
    31     6    29    1
    32     6    30    1
    33     8    31    1
    34    11    32    1
    35    11    33    1
    36    14    34    1
    37    17    35    1
    38    17    36    1
    39    17    37    1
    40    18    38    1
    41    19    39    1
    42    21    40    1
    43    23    41    1
    44    23    42    1
    45    23    43    1
