@<TRIPOS>MOLECULE
NuBBE_636
 91 93 0 0 0
SMALL
GASTEIGER

@<TRIPOS>ATOM
      1 O          -0.0149    3.6047   -4.1889 O.3     1  LIG1       -0.3877
      2 C           0.3830    2.6563   -3.2123 C.3     1  LIG1        0.0741
      3 H          -0.5235    2.2176   -2.7926 H       1  LIG1        0.0638
      4 C           1.1836    1.6039   -3.8870 C.2     1  LIG1       -0.0500
      5 C           2.0711    0.8915   -3.1778 C.2     1  LIG1        0.0115
      6 C           3.1579   -0.0031   -3.7282 C.3     1  LIG1        0.2315
      7 H           2.7785   -0.9359   -4.1566 H       1  LIG1        0.1111
      8 O           3.9275    0.7770   -4.6482 O.3     1  LIG1       -0.4311
      9 C           3.5144    0.7034   -5.9386 C.2     1  LIG1        0.3063
     10 C           3.5129    2.0818   -6.5371 C.3     1  LIG1        0.0333
     11 O           3.0440   -0.2852   -6.4936 O.2     1  LIG1       -0.2511
     12 O           3.9441   -0.3347   -2.5646 O.3     1  LIG1       -0.2971
     13 C           3.7048    0.7055   -1.6070 C.3     1  LIG1        0.2205
     14 H           4.2469    1.6087   -1.9305 H       1  LIG1        0.1068
     15 O           4.1394    0.3612   -0.2972 O.3     1  LIG1       -0.4341
     16 C           5.4933    0.4549   -0.1600 C.2     1  LIG1        0.3061
     17 C           5.8675    0.6212    1.2771 C.3     1  LIG1        0.0333
     18 O           6.3048    0.5383   -1.0742 O.2     1  LIG1       -0.2511
     19 C           2.1849    0.9807   -1.6519 C.3     1  LIG1        0.0926
     20 C           1.2671   -0.1392   -1.0995 C.3     1  LIG1        0.1078
     21 H           0.2728    0.0256   -1.5347 H       1  LIG1        0.0641
     22 O           1.6019   -1.4443   -1.6028 O.3     1  LIG1       -0.3870
     23 C           1.0731   -0.2228    0.4268 C.3     1  LIG1        0.1332
     24 H           1.7930   -0.9214    0.8667 H       1  LIG1        0.0763
     25 O          -0.2893   -0.7797    0.5775 O.3     1  LIG1       -0.4553
     26 C          -0.4446   -2.1358    0.6924 C.2     1  LIG1        0.3323
     27 C          -1.8771   -2.4127    0.3379 C.2     1  LIG1        0.0225
     28 C          -2.3068   -3.6263   -0.0461 C.2     1  LIG1       -0.0553
     29 C          -3.7249   -3.8983   -0.2543 C.2     1  LIG1       -0.0655
     30 C          -4.3817   -4.8620    0.4207 C.2     1  LIG1       -0.0840
     31 C          -5.8830   -4.8233    0.6253 C.3     1  LIG1       -0.0345
     32 C          -6.5238   -5.9996    1.4007 C.3     1  LIG1       -0.0496
     33 C          -5.9525   -6.2496    2.8088 C.3     1  LIG1       -0.0530
     34 C          -6.6155   -7.4036    3.5832 C.3     1  LIG1       -0.0559
     35 C          -6.4416   -8.7668    2.9236 C.3     1  LIG1       -0.0653
     36 O           0.3818   -2.9422    0.9933 O.2     1  LIG1       -0.2456
     37 C           1.0609    1.1365    1.1901 C.3     1  LIG1        0.0015
     38 H           0.1671    1.1019    1.8296 H       1  LIG1        0.0340
     39 C           2.1916    1.2085    2.2298 C.3     1  LIG1       -0.0585
     40 C           0.8902    2.4219    0.2865 C.3     1  LIG1       -0.0218
     41 C          -0.6021    2.4742   -0.1219 C.3     1  LIG1       -0.0589
     42 C           1.1740    3.7731    1.1085 C.3     1  LIG1       -0.0430
     43 C           0.1918    4.0888    2.2754 C.3     1  LIG1       -0.0277
     44 C           0.4285    5.3841    3.0400 C.2     1  LIG1       -0.0550
     45 C           1.6971    5.5725    3.7180 C.2     1  LIG1       -0.0662
     46 C           2.4806    6.6460    3.5477 C.2     1  LIG1       -0.0985
     47 C          -0.5558    6.2901    3.1869 C.2     1  LIG1       -0.0955
     48 C           1.8123    2.3963   -1.0355 C.3     1  LIG1       -0.0148
     49 H           2.7626    2.8495   -0.7126 H       1  LIG1        0.0318
     50 C           1.2731    3.3500   -2.1616 C.3     1  LIG1       -0.0188
     51 H          -0.7022    3.1767   -4.7306 H       1  LIG1        0.2102
     52 H           1.0977    1.4919   -4.9625 H       1  LIG1        0.0599
     53 H           4.4705    2.5756   -6.3666 H       1  LIG1        0.0342
     54 H           2.7124    2.6634   -6.0698 H       1  LIG1        0.0342
     55 H           3.3153    2.0354   -7.6109 H       1  LIG1        0.0342
     56 H           5.0667    0.2719    1.9315 H       1  LIG1        0.0342
     57 H           6.0463    1.6846    1.4630 H       1  LIG1        0.0342
     58 H           6.7673    0.0424    1.4943 H       1  LIG1        0.0342
     59 H           2.5186   -1.6605   -1.3457 H       1  LIG1        0.2100
     60 H          -2.5554   -1.5720    0.4424 H       1  LIG1        0.0689
     61 H          -1.6072   -4.4550   -0.1346 H       1  LIG1        0.0620
     62 H          -4.2866   -3.1725   -0.8409 H       1  LIG1        0.0615
     63 H          -3.8175   -5.5764    1.0133 H       1  LIG1        0.0572
     64 H          -6.3982   -4.7262   -0.3398 H       1  LIG1        0.0307
     65 H          -6.0942   -3.9036    1.1876 H       1  LIG1        0.0307
     66 H          -6.4355   -6.9042    0.7921 H       1  LIG1        0.0268
     67 H          -7.5987   -5.7895    1.4980 H       1  LIG1        0.0268
     68 H          -6.0594   -5.3356    3.4071 H       1  LIG1        0.0265
     69 H          -4.8821   -6.4634    2.7425 H       1  LIG1        0.0265
     70 H          -7.6849   -7.2061    3.7209 H       1  LIG1        0.0263
     71 H          -6.1790   -7.4391    4.5916 H       1  LIG1        0.0263
     72 H          -6.8563   -8.7693    1.9129 H       1  LIG1        0.0230
     73 H          -6.9687   -9.5418    3.4913 H       1  LIG1        0.0230
     74 H          -5.3870   -9.0568    2.8633 H       1  LIG1        0.0230
     75 H           2.3682    0.2364    2.7055 H       1  LIG1        0.0234
     76 H           1.9097    1.8804    3.0492 H       1  LIG1        0.0234
     77 H           3.1278    1.5759    1.8113 H       1  LIG1        0.0234
     78 H          -1.2611    2.3860    0.7457 H       1  LIG1        0.0235
     79 H          -0.8711    1.6584   -0.7893 H       1  LIG1        0.0235
     80 H          -0.8543    3.4218   -0.6079 H       1  LIG1        0.0235
     81 H           1.1314    4.6236    0.4162 H       1  LIG1        0.0274
     82 H           2.2038    3.7649    1.4883 H       1  LIG1        0.0274
     83 H           0.1670    3.2631    2.9940 H       1  LIG1        0.0313
     84 H          -0.8188    4.1527    1.8562 H       1  LIG1        0.0313
     85 H           2.0043    4.7918    4.4106 H       1  LIG1        0.0614
     86 H           2.2160    7.4475    2.8640 H       1  LIG1        0.0535
     87 H           3.4144    6.7455    4.0918 H       1  LIG1        0.0535
     88 H          -1.5343    6.1444    2.7397 H       1  LIG1        0.0537
     89 H          -0.4315    7.1889    3.7858 H       1  LIG1        0.0537
     90 H           2.1416    3.7795   -2.6858 H       1  LIG1        0.0296
     91 H           0.7636    4.2300   -1.7573 H       1  LIG1        0.0296
@<TRIPOS>BOND
     1     2     4    1
     2     4     5    2
     3     5     6    1
     4     6     7    1
     5     6     8    1
     6     8     9    1
     7     9    10    1
     8     9    11    2
     9     6    12    1
    10    12    13    1
    11    13    14    1
    12    13    15    1
    13    15    16    1
    14    16    17    1
    15    16    18    2
    16     5    19    1
    17    13    19    1
    18    19    20    1
    19    20    23    1
    20    23    24    1
    21    23    25    1
    22    25    26    1
    23    26    27    1
    24    27    28    2
    25    28    29    1
    26    29    30    2
    27    30    31    1
    28    31    32    1
    29    32    33    1
    30    33    34    1
    31    34    35    1
    32    26    36    2
    33    23    37    1
    34    37    38    1
    35    37    39    1
    36    37    40    1
    37    40    41    1
    38    40    42    1
    39    42    43    1
    40    43    44    1
    41    44    45    1
    42    45    46    2
    43    44    47    2
    44    19    48    1
    45    40    48    1
    46    48    49    1
    47    48    50    1
    48     2    50    1
    49     2     3    1
    50     2     1    1
    51    20    22    1
    52    20    21    1
    53     1    51    1
    54     4    52    1
    55    10    53    1
    56    10    54    1
    57    10    55    1
    58    17    56    1
    59    17    57    1
    60    17    58    1
    61    22    59    1
    62    27    60    1
    63    28    61    1
    64    29    62    1
    65    30    63    1
    66    31    64    1
    67    31    65    1
    68    32    66    1
    69    32    67    1
    70    33    68    1
    71    33    69    1
    72    34    70    1
    73    34    71    1
    74    35    72    1
    75    35    73    1
    76    35    74    1
    77    39    75    1
    78    39    76    1
    79    39    77    1
    80    41    78    1
    81    41    79    1
    82    41    80    1
    83    42    81    1
    84    42    82    1
    85    43    83    1
    86    43    84    1
    87    45    85    1
    88    46    86    1
    89    46    87    1
    90    47    88    1
    91    47    89    1
    92    50    90    1
    93    50    91    1
