@<TRIPOS>MOLECULE
NuBBE_1987
 53 52 0 0 0
SMALL
GASTEIGER

@<TRIPOS>ATOM
      1 C           1.7418   -1.5660   -1.0285 C.3     1  LIG1       -0.0531
      2 C           3.0938   -2.2647   -1.0538 C.3     1  LIG1       -0.0531
      3 C           3.2413   -3.3797   -0.0030 C.3     1  LIG1       -0.0531
      4 C           3.2778   -2.9566    1.4769 C.3     1  LIG1       -0.0531
      5 C           2.0150   -2.3503    2.1034 C.3     1  LIG1       -0.0531
      6 C           0.7351   -3.1652    1.8614 C.3     1  LIG1       -0.0531
      7 C          -0.5484   -2.4402    2.2858 C.3     1  LIG1       -0.0533
      8 C          -0.8760   -1.2213    1.4179 C.3     1  LIG1       -0.0559
      9 C          -2.1727   -0.5505    1.8347 C.3     1  LIG1       -0.0653
     10 C           1.5734   -0.4517   -2.0486 C.3     1  LIG1       -0.0531
     11 C           0.2242    0.2404   -1.7996 C.3     1  LIG1       -0.0531
     12 C          -0.0321    1.4084   -2.7418 C.3     1  LIG1       -0.0531
     13 C          -1.4029    2.0625   -2.5081 C.3     1  LIG1       -0.0531
     14 C          -1.5358    2.6927   -1.1193 C.3     1  LIG1       -0.0531
     15 C          -2.8734    3.4142   -0.9361 C.3     1  LIG1       -0.0533
     16 C          -3.0500    3.9933    0.4714 C.3     1  LIG1       -0.0559
     17 C          -2.0258    5.0621    0.8243 C.3     1  LIG1       -0.0653
     18 H           1.6114   -1.0863   -0.0677 H       1  LIG1        0.0265
     19 H           0.9402   -2.3010   -1.1504 H       1  LIG1        0.0265
     20 H           3.8990   -1.5351   -0.9251 H       1  LIG1        0.0265
     21 H           3.2295   -2.7163   -2.0452 H       1  LIG1        0.0265
     22 H           4.1968   -3.8815   -0.2080 H       1  LIG1        0.0265
     23 H           2.4755   -4.1476   -0.1600 H       1  LIG1        0.0265
     24 H           4.1030   -2.2459    1.6178 H       1  LIG1        0.0265
     25 H           3.5409   -3.8432    2.0656 H       1  LIG1        0.0265
     26 H           1.9087   -1.3170    1.7789 H       1  LIG1        0.0265
     27 H           2.1700   -2.2651    3.1857 H       1  LIG1        0.0265
     28 H           0.8133   -4.0995    2.4330 H       1  LIG1        0.0265
     29 H           0.6325   -3.4548    0.8143 H       1  LIG1        0.0265
     30 H          -0.4737   -2.1409    3.3394 H       1  LIG1        0.0265
     31 H          -1.3801   -3.1523    2.2136 H       1  LIG1        0.0265
     32 H          -0.9592   -1.5305    0.3693 H       1  LIG1        0.0263
     33 H          -0.0760   -0.4772    1.4826 H       1  LIG1        0.0263
     34 H          -3.0128   -1.2491    1.7923 H       1  LIG1        0.0230
     35 H          -2.3955    0.2871    1.1645 H       1  LIG1        0.0230
     36 H          -2.0970   -0.1549    2.8526 H       1  LIG1        0.0230
     37 H           1.6153   -0.8473   -3.0661 H       1  LIG1        0.0265
     38 H           2.3824    0.2808   -1.9408 H       1  LIG1        0.0265
     39 H           0.2170    0.6034   -0.7620 H       1  LIG1        0.0265
     40 H          -0.5853   -0.4916   -1.8894 H       1  LIG1        0.0265
     41 H           0.0127    1.0492   -3.7789 H       1  LIG1        0.0265
     42 H           0.7574    2.1576   -2.6275 H       1  LIG1        0.0265
     43 H          -2.1952    1.3218   -2.6591 H       1  LIG1        0.0265
     44 H          -1.5446    2.8417   -3.2743 H       1  LIG1        0.0265
     45 H          -0.7062    3.3917   -0.9733 H       1  LIG1        0.0265
     46 H          -1.4517    1.9218   -0.3461 H       1  LIG1        0.0265
     47 H          -3.6908    2.7072   -1.1220 H       1  LIG1        0.0265
     48 H          -2.9697    4.2148   -1.6790 H       1  LIG1        0.0265
     49 H          -3.0013    3.1864    1.2121 H       1  LIG1        0.0263
     50 H          -4.0519    4.4315    0.5470 H       1  LIG1        0.0263
     51 H          -1.0052    4.6691    0.8066 H       1  LIG1        0.0230
     52 H          -2.2104    5.4417    1.8343 H       1  LIG1        0.0230
     53 H          -2.0846    5.9042    0.1283 H       1  LIG1        0.0230
@<TRIPOS>BOND
     1     1     2    1
     2     2     3    1
     3     3     4    1
     4     4     5    1
     5     5     6    1
     6     6     7    1
     7     7     8    1
     8     8     9    1
     9     1    10    1
    10    10    11    1
    11    11    12    1
    12    12    13    1
    13    13    14    1
    14    14    15    1
    15    15    16    1
    16    16    17    1
    17     1    18    1
    18     1    19    1
    19     2    20    1
    20     2    21    1
    21     3    22    1
    22     3    23    1
    23     4    24    1
    24     4    25    1
    25     5    26    1
    26     5    27    1
    27     6    28    1
    28     6    29    1
    29     7    30    1
    30     7    31    1
    31     8    32    1
    32     8    33    1
    33     9    34    1
    34     9    35    1
    35     9    36    1
    36    10    37    1
    37    10    38    1
    38    11    39    1
    39    11    40    1
    40    12    41    1
    41    12    42    1
    42    13    43    1
    43    13    44    1
    44    14    45    1
    45    14    46    1
    46    15    47    1
    47    15    48    1
    48    16    49    1
    49    16    50    1
    50    17    51    1
    51    17    52    1
    52    17    53    1
