REMARK  Name = NuBBE_1696
REMARK  15 active torsions:
REMARK  status: ('A' for Active; 'I' for Inactive)
REMARK    1  A    between atoms: C_1  and  O_2
REMARK    2  A    between atoms: O_2  and  C_3
REMARK    3  A    between atoms: C_6  and  C_7
REMARK    4  A    between atoms: C_6  and  C_8
REMARK    5  A    between atoms: C_12  and  O_13
REMARK    6  A    between atoms: O_13  and  C_14
REMARK    7  A    between atoms: C_14  and  C_15
REMARK    8  A    between atoms: C_20  and  C_21
REMARK    9  A    between atoms: C_23  and  O_24
REMARK   10  A    between atoms: O_24  and  C_25
REMARK   11  A    between atoms: C_26  and  O_27
REMARK   12  A    between atoms: O_27  and  C_28
REMARK   13  A    between atoms: C_28  and  C_29
REMARK   14  A    between atoms: C_31  and  O_32
REMARK   15  A    between atoms: O_32  and  C_33
REMARK                            x       y       z     vdW  Elec       q    Type
REMARK                         _______ _______ _______ _____ _____    ______ ____
ROOT
ATOM      1  C   LIG A   1       0.915  -1.692  -0.801  0.00  0.00    +0.206 A 
ATOM      2  C   LIG A   1       2.002  -2.017  -1.627  0.00  0.00    +0.177 A 
ATOM      3  O   LIG A   1       2.623  -3.228  -1.464  0.00  0.00    -0.478 OA
ATOM      4  C   LIG A   1       3.309  -3.752  -2.620  0.00  0.00    +0.124 C 
ATOM      5  C   LIG A   1       2.300  -4.322  -3.634  0.00  0.00    +0.060 C 
ATOM      6  C   LIG A   1       4.162  -4.891  -2.063  0.00  0.00    +0.060 C 
ATOM      7  C   LIG A   1       4.176  -2.691  -3.239  0.00  0.00    +0.020 C 
ATOM      8  C   LIG A   1       3.799  -1.409  -3.186  0.00  0.00    +0.015 C 
ATOM      9  C   LIG A   1       2.490  -1.116  -2.590  0.00  0.00    +0.064 A 
ATOM     10  C   LIG A   1       1.714  -0.001  -2.918  0.00  0.00    +0.157 A 
ATOM     11  C   LIG A   1       0.603   0.314  -2.118  0.00  0.00    +0.111 A 
ATOM     12  C   LIG A   1       0.278  -0.461  -0.998  0.00  0.00    +0.188 A 
ATOM     13  O   LIG A   1      -0.684  -0.058  -0.090  0.00  0.00    -0.451 OA
ATOM     14  C   LIG A   1      -1.143   1.261  -0.154  0.00  0.00    +0.140 A 
ATOM     15  C   LIG A   1      -1.005   2.005  -1.260  0.00  0.00    +0.098 A 
ATOM     16  C   LIG A   1      -0.326   1.399  -2.423  0.00  0.00    +0.197 A 
ATOM     17  O   LIG A   1      -0.602   1.746  -3.558  0.00  0.00    -0.287 OA
ENDROOT
BRANCH  14  18
ATOM     18  C   LIG A   1      -1.818   1.762   1.082  0.00  0.00    +0.025 A 
ATOM     19  C   LIG A   1      -1.930   0.956   2.225  0.00  0.00    +0.061 A 
ATOM     20  C   LIG A   1      -2.531   1.421   3.412  0.00  0.00    +0.167 A 
ATOM     21  C   LIG A   1      -3.045   2.729   3.474  0.00  0.00    +0.214 A 
ATOM     22  C   LIG A   1      -2.953   3.552   2.342  0.00  0.00    +0.167 A 
ATOM     23  C   LIG A   1      -2.352   3.056   1.171  0.00  0.00    +0.061 A 
BRANCH  20  24
ATOM     24  O   LIG A   1      -2.739   0.601   4.493  0.00  0.00    -0.491 OA
ATOM     25  C   LIG A   1      -1.678  -0.307   4.774  0.00  0.00    +0.277 C 
ENDBRANCH  20  24
BRANCH  22  26
ATOM     26  O   LIG A   1      -3.416   4.829   2.163  0.00  0.00    -0.491 OA
ATOM     27  C   LIG A   1      -3.541   5.631   3.323  0.00  0.00    +0.277 C 
ENDBRANCH  22  26
BRANCH  21  28
ATOM     28  O   LIG A   1      -3.817   3.143   4.599  0.00  0.00    -0.418 OA
BRANCH  28  29
ATOM     29  C   LIG A   1      -3.520   2.740   5.902  0.00  0.00    +0.309 C 
ATOM     30  C   LIG A   1      -4.790   2.163   6.523  0.00  0.00    +0.136 C 
ATOM     31  O   LIG A   1      -2.465   2.887   6.500  0.00  0.00    -0.251 OA
ENDBRANCH  28  29
ENDBRANCH  21  28
ENDBRANCH  14  18
BRANCH   1  33
ATOM     32  C   LIG A   1       0.490  -3.889   0.003  0.00  0.00    +0.277 C 
ATOM     33  O   LIG A   1       0.438  -2.478   0.221  0.00  0.00    -0.488 OA
ENDBRANCH   1  33
BRANCH  10  34
ATOM     34  O   LIG A   1       2.100   0.873  -3.959  0.00  0.00    -0.424 OA
BRANCH  34  35
ATOM     35  C   LIG A   1       2.535   0.334  -5.191  0.00  0.00    +0.309 C 
ATOM     36  C   LIG A   1       3.218   1.426  -5.971  0.00  0.00    +0.136 C 
ATOM     37  O   LIG A   1       2.424  -0.806  -5.576  0.00  0.00    -0.251 OA
ENDBRANCH  34  35
ENDBRANCH  10  34
TORSDOF 8
