REMARK  Name = NuBBE_1790
REMARK  14 active torsions:
REMARK  status: ('A' for Active; 'I' for Inactive)
REMARK    1  A    between atoms: C_1  and  C_2
REMARK    2  A    between atoms: C_1  and  C_7
REMARK    3  A    between atoms: C_2  and  C_4
REMARK    4  A    between atoms: C_2  and  O_6
REMARK    5  A    between atoms: C_4  and  O_5
REMARK    6  A    between atoms: C_10  and  C_15
REMARK    7  A    between atoms: C_15  and  C_16
REMARK    8  A    between atoms: C_16  and  C_17
REMARK    9  A    between atoms: C_17  and  C_18
REMARK   10  A    between atoms: C_18  and  C_19
REMARK   11  A    between atoms: C_19  and  C_20
REMARK   12  A    between atoms: C_20  and  C_21
REMARK   13  A    between atoms: C_21  and  C_22
REMARK   14  A    between atoms: C_22  and  C_23
REMARK                            x       y       z     vdW  Elec       q    Type
REMARK                         _______ _______ _______ _____ _____    ______ ____
ROOT
ATOM      1  C   LIG A   1      -1.639  -0.857  -3.812  0.00  0.00    +0.104 C 
ATOM      2  C   LIG A   1      -0.314  -0.130  -3.684  0.00  0.00    +0.059 C 
ATOM      3  C   LIG A   1       0.737  -1.187  -3.418  0.00  0.00    +0.177 C 
ATOM      4  O   LIG A   1       0.049  -2.424  -3.252  0.00  0.00    -0.461 OA
ATOM      5  C   LIG A   1      -1.236  -2.304  -3.688  0.00  0.00    +0.311 C 
ATOM      6  O   LIG A   1      -1.971  -3.254  -3.910  0.00  0.00    -0.251 OA
ENDROOT
BRANCH   1   7
ATOM      7  C   LIG A   1      -2.707  -0.526  -2.753  0.00  0.00    +0.048 C 
BRANCH   7   8
ATOM      8  C   LIG A   1      -3.193   0.928  -2.672  0.00  0.00    +0.141 C 
BRANCH   8   9
ATOM      9  O   LIG A   1      -2.107   1.799  -2.355  0.00  0.00    -0.390 OA
ATOM     10  H   LIG A   1      -2.450   2.706  -2.482  0.00  0.00    +0.210 HD
ENDBRANCH   8   9
BRANCH   8  11
ATOM     11  C   LIG A   1      -3.894   1.435  -3.937  0.00  0.00    +0.187 C 
BRANCH  11  12
ATOM     12  O   LIG A   1      -4.358   2.766  -3.685  0.00  0.00    -0.393 OA
ATOM     13  H   LIG A   1      -5.104   2.928  -4.290  0.00  0.00    +0.209 HD
ENDBRANCH  11  12
ENDBRANCH   8  11
ENDBRANCH   7   8
ENDBRANCH   1   7
BRANCH   3  14
ATOM     14  C   LIG A   1       1.663  -0.866  -2.225  0.00  0.00    +0.045 C 
BRANCH  14  15
ATOM     15  C   LIG A   1       0.967  -0.705  -0.856  0.00  0.00    +0.003 C 
BRANCH  15  16
ATOM     16  C   LIG A   1       1.964  -0.361   0.271  0.00  0.00    +0.000 C 
BRANCH  16  17
ATOM     17  C   LIG A   1       1.285  -0.169   1.642  0.00  0.00    -0.000 C 
BRANCH  17  18
ATOM     18  C   LIG A   1       2.296   0.174   2.756  0.00  0.00    +0.000 C 
BRANCH  18  19
ATOM     19  C   LIG A   1       1.622   0.359   4.129  0.00  0.00    +0.001 C 
BRANCH  19  20
ATOM     20  C   LIG A   1       2.631   0.680   5.248  0.00  0.00    +0.013 C 
BRANCH  20  21
ATOM     21  C   LIG A   1       1.982   0.924   6.615  0.00  0.00    +0.088 C 
BRANCH  21  22
ATOM     22  C   LIG A   1       1.307  -0.280   7.164  0.00  0.00    -0.106 C 
ATOM     23  C   LIG A   1       0.775  -1.241   7.625  0.00  0.00    +0.004 C 
ENDBRANCH  21  22
ENDBRANCH  20  21
ENDBRANCH  19  20
ENDBRANCH  18  19
ENDBRANCH  17  18
ENDBRANCH  16  17
ENDBRANCH  15  16
ENDBRANCH  14  15
ENDBRANCH   3  14
TORSDOF 14
