REMARK  Name = NuBBE_1837
REMARK  13 active torsions:
REMARK  status: ('A' for Active; 'I' for Inactive)
REMARK    1  A    between atoms: C_1  and  C_2
REMARK    2  A    between atoms: C_1  and  C_4
REMARK    3  A    between atoms: C_7  and  C_22
REMARK    4  A    between atoms: C_8  and  C_10
REMARK    5  A    between atoms: C_12  and  O_13
REMARK    6  A    between atoms: O_13  and  C_14
REMARK    7  A    between atoms: C_15  and  O_20
REMARK    8  A    between atoms: C_16  and  O_18
REMARK    9  A    between atoms: O_18  and  C_19
REMARK   10  A    between atoms: O_20  and  C_21
REMARK   11  A    between atoms: C_24  and  O_27
REMARK   12  A    between atoms: C_25  and  O_26
REMARK   13  A    between atoms: O_27  and  C_28
REMARK                            x       y       z     vdW  Elec       q    Type
REMARK                         _______ _______ _______ _____ _____    ______ ____
ROOT
ATOM      1  C   LIG A   1      -0.948   3.177  -0.159  0.00  0.00    +0.044 A 
ATOM      2  C   LIG A   1      -0.062   2.100  -0.049  0.00  0.00    +0.143 A 
ATOM      3  C   LIG A   1       1.317   2.181  -0.138  0.00  0.00    +0.028 A 
ATOM      4  C   LIG A   1       1.824   0.846  -0.054  0.00  0.00    +0.003 A 
ATOM      5  C   LIG A   1       0.710   0.031   0.073  0.00  0.00    +0.139 A 
ATOM      6  O   LIG A   1      -0.422   0.801   0.111  0.00  0.00    -0.454 OA
ATOM      7  C   LIG A   1       3.249   0.446  -0.167  0.00  0.00    +0.048 C 
ATOM      8  C   LIG A   1       1.903   3.440  -0.324  0.00  0.00    +0.061 A 
ATOM      9  C   LIG A   1       1.082   4.553  -0.532  0.00  0.00    +0.162 A 
ATOM     10  C   LIG A   1      -0.319   4.403  -0.458  0.00  0.00    +0.166 A 
ENDROOT
BRANCH   5  11
ATOM     11  C   LIG A   1       0.457  -1.405   0.146  0.00  0.00    +0.025 A 
ATOM     12  C   LIG A   1       1.394  -2.317   0.643  0.00  0.00    +0.061 A 
ATOM     13  C   LIG A   1       1.079  -3.682   0.776  0.00  0.00    +0.166 A 
ATOM     14  C   LIG A   1      -0.201  -4.145   0.403  0.00  0.00    +0.203 A 
ATOM     15  C   LIG A   1      -1.124  -3.246  -0.153  0.00  0.00    +0.166 A 
ATOM     16  C   LIG A   1      -0.790  -1.895  -0.270  0.00  0.00    +0.061 A 
BRANCH  13  17
ATOM     17  O   LIG A   1       2.110  -4.430   1.303  0.00  0.00    -0.491 OA
ATOM     18  C   LIG A   1       1.912  -5.836   1.420  0.00  0.00    +0.277 C 
ENDBRANCH  13  17
BRANCH  15  19
ATOM     19  O   LIG A   1      -2.378  -3.705  -0.455  0.00  0.00    -0.491 OA
ATOM     20  C   LIG A   1      -3.021  -3.078  -1.557  0.00  0.00    +0.277 C 
ENDBRANCH  15  19
BRANCH  14  21
ATOM     21  O   LIG A   1      -0.516  -5.437   0.724  0.00  0.00    -0.488 OA
ATOM     22  C   LIG A   1      -1.397  -6.169  -0.108  0.00  0.00    +0.277 C 
ENDBRANCH  14  21
ENDBRANCH   5  11
BRANCH  10  23
ATOM     23  O   LIG A   1      -1.137   5.464  -0.767  0.00  0.00    -0.503 OA
ATOM     24  H   LIG A   1      -0.665   5.970  -1.453  0.00  0.00    +0.292 HD
ENDBRANCH  10  23
BRANCH   9  25
ATOM     25  O   LIG A   1       1.571   5.800  -0.849  0.00  0.00    -0.491 OA
ATOM     26  C   LIG A   1       2.996   5.895  -0.946  0.00  0.00    +0.277 C 
ENDBRANCH   9  25
BRANCH   1  27
ATOM     27  C   LIG A   1      -2.442   3.027  -0.049  0.00  0.00    +0.069 C 
BRANCH  27  28
ATOM     28  C   LIG A   1      -2.950   3.091   1.361  0.00  0.00    -0.030 C 
ATOM     29  C   LIG A   1      -3.400   4.225   1.956  0.00  0.00    +0.004 C 
ENDBRANCH  27  28
ENDBRANCH   1  27
TORSDOF 8
