REMARK  Name = NuBBE_2027
REMARK  2 active torsions:
REMARK  status: ('A' for Active; 'I' for Inactive)
REMARK    1  A    between atoms: C_1  and  C_2
REMARK    2  A    between atoms: C_2  and  C_3
REMARK                            x       y       z     vdW  Elec       q    Type
REMARK                         _______ _______ _______ _____ _____    ______ ____
ROOT
ATOM      1  C   LIG A   1      -1.865   0.857   0.214  0.00  0.00    +0.016 C 
ATOM      2  C   LIG A   1      -0.332   0.784   0.247  0.00  0.00    -0.011 C 
ATOM      3  C   LIG A   1       0.214   2.165   0.654  0.00  0.00    +0.016 C 
ATOM      4  C   LIG A   1       0.259   0.302  -1.076  0.00  0.00    -0.068 C 
ATOM      5  C   LIG A   1       1.059  -0.954  -0.785  0.00  0.00    +0.015 C 
ATOM      6  C   LIG A   1       0.065  -2.084  -0.465  0.00  0.00    +0.008 C 
ATOM      7  C   LIG A   1      -0.453  -1.702   0.934  0.00  0.00    +0.005 C 
ATOM      8  C   LIG A   1       0.220  -0.335   1.192  0.00  0.00    -0.001 C 
ATOM      9  C   LIG A   1       1.611  -0.616   0.598  0.00  0.00    +0.012 C 
ATOM     10  C   LIG A   1       0.150   0.888  -2.275  0.00  0.00    +0.008 C 
ENDROOT
TORSDOF 0
