@<TRIPOS>MOLECULE
NuBBE_833
 55 58 0 0 0
SMALL
GASTEIGER

@<TRIPOS>ATOM
      1 O           0.8565   -0.6510   -2.3517 O.2     1  LIG1       -0.2892
      2 C           1.4293    0.0830   -1.5357 C.2     1  LIG1        0.1940
      3 C           2.2151    1.3035   -2.0275 C.3     1  LIG1        0.1548
      4 C           1.5504    1.8833   -3.2814 C.3     1  LIG1       -0.0259
      5 O           3.5403    0.8922   -2.3980 O.3     1  LIG1       -0.3780
      6 C           2.2874    2.3533   -0.9127 C.3     1  LIG1        0.1191
      7 H           2.9891    3.1469   -1.2031 H       1  LIG1        0.0678
      8 O           1.0149    2.9638   -0.6749 O.3     1  LIG1       -0.3837
      9 C           2.7306    1.7542    0.3848 C.2     1  LIG1        0.0265
     10 C           3.5165    2.4256    1.2444 C.2     1  LIG1        0.0983
     11 O           3.8600    1.9761    2.4992 O.2     1  LIG1       -0.4677
     12 C           3.2977    0.7848    2.9460 C.2     1  LIG1        0.1023
     13 C           3.6305    0.4658    4.3690 C.3     1  LIG1       -0.0064
     14 C           2.5126    0.0170    2.1619 C.2     1  LIG1       -0.0159
     15 C           2.2226    0.4345    0.7815 C.2     1  LIG1       -0.0064
     16 C           1.4838   -0.3115   -0.0797 C.2     1  LIG1        0.0101
     17 C           0.7140   -1.5820    0.2428 C.3     1  LIG1        0.0055
     18 C          -0.7751   -1.5453   -0.1061 C.2     1  LIG1        0.0101
     19 C          -1.2175   -2.6000   -1.0884 C.2     1  LIG1        0.1940
     20 C          -2.5915   -2.4743   -1.7606 C.3     1  LIG1        0.1548
     21 C          -3.0367   -3.8263   -2.3502 C.3     1  LIG1       -0.0259
     22 O          -2.5449   -1.5498   -2.8601 O.3     1  LIG1       -0.3780
     23 C          -3.6114   -1.9845   -0.7218 C.3     1  LIG1        0.1191
     24 H          -4.5578   -1.7366   -1.2227 H       1  LIG1        0.0678
     25 O          -3.8963   -2.9889    0.2591 O.3     1  LIG1       -0.3837
     26 O          -0.4490   -3.5208   -1.3889 O.2     1  LIG1       -0.2892
     27 C          -1.7001   -0.6768    0.3799 C.2     1  LIG1       -0.0064
     28 C          -3.1175   -0.7805    0.0189 C.2     1  LIG1        0.0265
     29 C          -3.9421    0.2166    0.3960 C.2     1  LIG1        0.0983
     30 O          -3.5545    1.3005    1.1566 O.2     1  LIG1       -0.4677
     31 C          -2.2655    1.3020    1.6788 C.2     1  LIG1        0.1023
     32 C          -2.0020    2.3827    2.6751 C.3     1  LIG1       -0.0064
     33 C          -1.3508    0.3752    1.3339 C.2     1  LIG1       -0.0159
     34 H           0.4877    2.0933   -3.1211 H       1  LIG1        0.0263
     35 H           1.6308    1.1892   -4.1263 H       1  LIG1        0.0263
     36 H           2.0491    2.8080   -3.5920 H       1  LIG1        0.0263
     37 H           3.4395    0.1734   -3.0508 H       1  LIG1        0.2109
     38 H           0.9404    3.7292   -1.2695 H       1  LIG1        0.2104
     39 H           3.9206    3.4134    1.0709 H       1  LIG1        0.1033
     40 H           3.4470    1.3411    5.0024 H       1  LIG1        0.0308
     41 H           4.6865    0.1938    4.4619 H       1  LIG1        0.0308
     42 H           3.0245   -0.3571    4.7599 H       1  LIG1        0.0308
     43 H           2.1268   -0.9154    2.5537 H       1  LIG1        0.0657
     44 H           0.7728   -1.8498    1.3018 H       1  LIG1        0.0364
     45 H           1.2294   -2.4053   -0.2704 H       1  LIG1        0.0364
     46 H          -2.9987   -4.6300   -1.6070 H       1  LIG1        0.0263
     47 H          -2.3968   -4.1180   -3.1915 H       1  LIG1        0.0263
     48 H          -4.0567   -3.7644   -2.7449 H       1  LIG1        0.0263
     49 H          -1.7810   -1.8084   -3.4113 H       1  LIG1        0.2109
     50 H          -4.5684   -3.5818   -0.1170 H       1  LIG1        0.2104
     51 H          -5.0011    0.2556    0.1888 H       1  LIG1        0.1033
     52 H          -2.0874    3.3674    2.2057 H       1  LIG1        0.0308
     53 H          -1.0025    2.3001    3.1146 H       1  LIG1        0.0308
     54 H          -2.7296    2.3222    3.4913 H       1  LIG1        0.0308
     55 H          -0.3713    0.4110    1.7860 H       1  LIG1        0.0657
@<TRIPOS>BOND
     1     1     2    2
     2     2     3    1
     3     3     6    1
     4     6     7    1
     5     6     8    1
     6     6     9    1
     7     9    10    2
     8    10    11    1
     9    11    12    1
    10    12    13    1
    11    12    14    2
    12    14    15    1
    13     9    15    1
    14    15    16    2
    15     2    16    1
    16    16    17    1
    17    17    18    1
    18    18    19    1
    19    19    20    1
    20    20    23    1
    21    23    24    1
    22    23    25    1
    23    19    26    2
    24    18    27    2
    25    27    28    1
    26    23    28    1
    27    28    29    2
    28    29    30    1
    29    30    31    1
    30    31    32    1
    31    31    33    2
    32    27    33    1
    33     3     5    1
    34     3     4    1
    35    20    22    1
    36    20    21    1
    37     4    34    1
    38     4    35    1
    39     4    36    1
    40     5    37    1
    41     8    38    1
    42    10    39    1
    43    13    40    1
    44    13    41    1
    45    13    42    1
    46    14    43    1
    47    17    44    1
    48    17    45    1
    49    21    46    1
    50    21    47    1
    51    21    48    1
    52    22    49    1
    53    25    50    1
    54    29    51    1
    55    32    52    1
    56    32    53    1
    57    32    54    1
    58    33    55    1
