REMARK  Name = NuBBE_1213
REMARK  13 active torsions:
REMARK  status: ('A' for Active; 'I' for Inactive)
REMARK    1  A    between atoms: O_1  and  C_2
REMARK    2  A    between atoms: C_4  and  O_6
REMARK    3  A    between atoms: C_9  and  C_10
REMARK    4  A    between atoms: C_18  and  C_19
REMARK    5  A    between atoms: C_23  and  C_24
REMARK    6  A    between atoms: C_24  and  C_25
REMARK    7  A    between atoms: C_24  and  C_33
REMARK    8  A    between atoms: C_25  and  O_26
REMARK    9  A    between atoms: C_25  and  C_27
REMARK   10  A    between atoms: C_27  and  C_28
REMARK   11  A    between atoms: C_28  and  C_29
REMARK   12  A    between atoms: C_29  and  C_30
REMARK   13  A    between atoms: C_29  and  C_31
REMARK                            x       y       z     vdW  Elec       q    Type
REMARK                         _______ _______ _______ _____ _____    ______ ____
ROOT
ATOM      1  C   LIG A   1      -0.765   0.103  -7.339  0.00  0.00    +0.147 C 
ATOM      2  C   LIG A   1       0.641   0.220  -6.718  0.00  0.00    +0.169 C 
ATOM      3  C   LIG A   1      -1.668  -0.867  -6.580  0.00  0.00    +0.035 C 
ATOM      4  C   LIG A   1      -1.703  -0.552  -5.082  0.00  0.00    +0.014 C 
ATOM      5  C   LIG A   1      -0.302  -0.580  -4.407  0.00  0.00    -0.005 C 
ATOM      6  C   LIG A   1       0.257  -2.026  -4.462  0.00  0.00    +0.016 C 
ATOM      7  C   LIG A   1       0.623   0.362  -5.207  0.00  0.00    -0.037 C 
ATOM      8  C   LIG A   1       1.359   1.327  -4.621  0.00  0.00    -0.024 C 
ATOM      9  C   LIG A   1       1.425   1.565  -3.144  0.00  0.00    +0.031 C 
ATOM     10  C   LIG A   1       0.916   0.362  -2.337  0.00  0.00    +0.000 C 
ATOM     11  C   LIG A   1      -0.452  -0.104  -2.888  0.00  0.00    +0.003 C 
ATOM     12  C   LIG A   1      -1.121  -1.157  -1.970  0.00  0.00    +0.005 C 
ATOM     13  C   LIG A   1      -1.092  -0.814  -0.476  0.00  0.00    +0.007 C 
ATOM     14  C   LIG A   1       0.333  -0.502   0.043  0.00  0.00    -0.026 C 
ATOM     15  C   LIG A   1       1.233  -1.751  -0.035  0.00  0.00    +0.012 C 
ATOM     16  C   LIG A   1       0.949   0.630  -0.821  0.00  0.00    -0.001 C 
ATOM     17  C   LIG A   1       0.234   1.893  -0.332  0.00  0.00    +0.004 C 
ATOM     18  C   LIG A   1      -0.121   1.618   1.131  0.00  0.00    +0.005 C 
ATOM     19  C   LIG A   1       0.355   0.182   1.458  0.00  0.00    +0.001 C 
ENDROOT
BRANCH   1  20
ATOM     20  O   LIG A   1      -0.655  -0.353  -8.693  0.00  0.00    -0.389 OA
ATOM     21  H   LIG A   1       0.062  -1.022  -8.671  0.00  0.00    +0.210 HD
ENDBRANCH   1  20
BRANCH   2  22
ATOM     22  O   LIG A   1       1.404  -0.938  -7.080  0.00  0.00    -0.385 OA
ATOM     23  H   LIG A   1       2.202  -0.923  -6.522  0.00  0.00    +0.210 HD
ENDBRANCH   2  22
BRANCH  19  24
ATOM     24  C   LIG A   1      -0.394  -0.475   2.678  0.00  0.00    +0.018 C 
ATOM     25  C   LIG A   1       0.003  -1.949   2.852  0.00  0.00    +0.010 C 
BRANCH  24  26
ATOM     26  C   LIG A   1      -0.149   0.307   4.026  0.00  0.00    +0.122 C 
BRANCH  26  27
ATOM     27  O   LIG A   1      -0.525   1.677   3.865  0.00  0.00    -0.391 OA
ATOM     28  H   LIG A   1      -1.492   1.737   3.944  0.00  0.00    +0.210 HD
ENDBRANCH  26  27
BRANCH  26  29
ATOM     29  C   LIG A   1      -0.930  -0.253   5.248  0.00  0.00    +0.062 C 
BRANCH  29  30
ATOM     30  C   LIG A   1      -0.780   0.508   6.567  0.00  0.00    -0.072 C 
ATOM     31  C   LIG A   1      -1.875   1.062   7.138  0.00  0.00    +0.008 C 
BRANCH  30  32
ATOM     32  C   LIG A   1       0.597   0.553   7.230  0.00  0.00    +0.008 C 
ATOM     33  C   LIG A   1       1.365   1.815   6.826  0.00  0.00    +0.012 C 
ATOM     34  C   LIG A   1       0.574   0.464   8.768  0.00  0.00    +0.012 C 
ENDBRANCH  30  32
ENDBRANCH  29  30
ENDBRANCH  26  29
ENDBRANCH  24  26
ENDBRANCH  19  24
TORSDOF 8
