REMARK  Name = NuBBE_365
REMARK  10 active torsions:
REMARK  status: ('A' for Active; 'I' for Inactive)
REMARK    1  A    between atoms: C_1  and  C_2
REMARK    2  A    between atoms: C_2  and  C_36
REMARK    3  A    between atoms: C_5  and  C_34
REMARK    4  A    between atoms: C_8  and  C_33
REMARK    5  A    between atoms: C_9  and  C_32
REMARK    6  A    between atoms: C_14  and  C_15
REMARK    7  A    between atoms: C_14  and  C_31
REMARK    8  A    between atoms: C_16  and  O_30
REMARK    9  A    between atoms: C_20  and  C_29
REMARK   10  A    between atoms: C_34  and  O_35
REMARK                            x       y       z     vdW  Elec       q    Type
REMARK                         _______ _______ _______ _____ _____    ______ ____
ROOT
ATOM      1  C   LIG A   1      -4.069  -0.677   5.148  0.00  0.00    +0.011 C 
ATOM      2  C   LIG A   1      -3.585   0.326   4.082  0.00  0.00    -0.034 C 
ATOM      3  C   LIG A   1      -4.815   0.902   3.351  0.00  0.00    +0.007 C 
ATOM      4  C   LIG A   1      -4.463   1.651   2.065  0.00  0.00    +0.010 C 
ATOM      5  C   LIG A   1      -3.592   0.818   1.080  0.00  0.00    +0.000 C 
ATOM      6  C   LIG A   1      -3.199   1.751  -0.089  0.00  0.00    +0.010 C 
ATOM      7  C   LIG A   1      -2.167   1.158  -1.050  0.00  0.00    +0.012 C 
ATOM      8  C   LIG A   1      -0.869   0.562  -0.395  0.00  0.00    -0.005 C 
ATOM      9  C   LIG A   1      -0.070  -0.376  -1.467  0.00  0.00    -0.019 C 
ATOM     10  C   LIG A   1       0.427   0.414  -2.717  0.00  0.00    +0.008 C 
ATOM     11  C   LIG A   1       1.881   0.875  -2.732  0.00  0.00    +0.005 C 
ATOM     12  C   LIG A   1       2.836  -0.280  -2.395  0.00  0.00    +0.003 C 
ATOM     13  C   LIG A   1       4.331  -0.041  -2.826  0.00  0.00    -0.006 C 
ATOM     14  C   LIG A   1       4.410   0.116  -4.372  0.00  0.00    +0.014 C 
ATOM     15  C   LIG A   1       5.162  -1.307  -2.462  0.00  0.00    +0.120 C 
ATOM     16  C   LIG A   1       4.994  -1.760  -1.017  0.00  0.00    +0.032 C 
ATOM     17  C   LIG A   1       3.529  -1.997  -0.661  0.00  0.00    +0.010 C 
ATOM     18  C   LIG A   1       2.595  -0.770  -0.921  0.00  0.00    -0.025 C 
ATOM     19  C   LIG A   1       1.080  -1.258  -0.830  0.00  0.00    +0.006 C 
ATOM     20  C   LIG A   1       0.663  -1.901   0.512  0.00  0.00    +0.031 C 
ATOM     21  C   LIG A   1      -0.501  -1.309   1.241  0.00  0.00    -0.026 C 
ATOM     22  C   LIG A   1      -1.209  -0.219   0.895  0.00  0.00    -0.063 C 
ATOM     23  C   LIG A   1      -2.289   0.390   1.817  0.00  0.00    +0.024 C 
ATOM     24  C   LIG A   1      -2.629  -0.409   3.104  0.00  0.00    +0.014 C 
ATOM     25  C   LIG A   1       2.927   0.288   0.150  0.00  0.00    +0.012 C 
ATOM     26  C   LIG A   1       4.949   1.243  -2.237  0.00  0.00    +0.014 C 
ATOM     27  C   LIG A   1      -1.079  -1.439  -2.060  0.00  0.00    +0.012 C 
ATOM     28  C   LIG A   1      -0.033   1.780   0.067  0.00  0.00    +0.016 C 
ATOM     29  C   LIG A   1      -2.833   1.458   4.812  0.00  0.00    +0.011 C 
ENDROOT
BRANCH  15  30
ATOM     30  O   LIG A   1       6.551  -1.123  -2.732  0.00  0.00    -0.391 OA
ATOM     31  H   LIG A   1       6.911  -0.513  -2.067  0.00  0.00    +0.210 HD
ENDBRANCH  15  30
BRANCH   5  32
ATOM     32  C   LIG A   1      -4.467  -0.370   0.578  0.00  0.00    +0.163 C 
BRANCH  32  33
ATOM     33  O   LIG A   1      -3.816  -1.225  -0.340  0.00  0.00    -0.394 OA
ATOM     34  H   LIG A   1      -4.428  -1.948  -0.553  0.00  0.00    +0.209 HD
ENDBRANCH  32  33
ENDBRANCH   5  32
TORSDOF 3
