REMARK  Name = NuBBE_1941
REMARK  6 active torsions:
REMARK  status: ('A' for Active; 'I' for Inactive)
REMARK    1  A    between atoms: C_1  and  C_2
REMARK    2  A    between atoms: C_9  and  C_12
REMARK    3  A    between atoms: C_9  and  O_13
REMARK    4  A    between atoms: C_14  and  C_18
REMARK    5  A    between atoms: C_18  and  C_19
REMARK    6  A    between atoms: C_18  and  C_20
REMARK                            x       y       z     vdW  Elec       q    Type
REMARK                         _______ _______ _______ _____ _____    ______ ____
ROOT
ATOM      1  C   LIG A   1      -0.796   2.852  -1.457  0.00  0.00    +0.008 C 
ATOM      2  C   LIG A   1      -1.205   1.746  -0.480  0.00  0.00    -0.007 C 
ATOM      3  C   LIG A   1      -0.693   0.383  -0.908  0.00  0.00    -0.017 C 
ATOM      4  C   LIG A   1      -0.140  -0.571   0.146  0.00  0.00    +0.006 C 
ATOM      5  C   LIG A   1       0.763   0.030  -0.918  0.00  0.00    +0.031 C 
ATOM      6  C   LIG A   1       1.073  -0.702  -2.201  0.00  0.00    +0.067 C 
ATOM      7  C   LIG A   1      -0.291  -1.237  -2.680  0.00  0.00    +0.035 C 
ATOM      8  C   LIG A   1      -1.321  -0.222  -2.156  0.00  0.00    +0.010 C 
ATOM      9  C   LIG A   1       1.716   0.220  -3.233  0.00  0.00    +0.041 C 
ATOM     10  C   LIG A   1       0.058  -0.146   1.590  0.00  0.00    -0.004 C 
ATOM     11  C   LIG A   1      -0.924   0.987   1.928  0.00  0.00    +0.004 C 
ATOM     12  C   LIG A   1      -0.767   2.138   0.938  0.00  0.00    +0.004 C 
ENDROOT
BRANCH  10  13
ATOM     13  C   LIG A   1      -0.061  -1.364   2.555  0.00  0.00    -0.014 C 
ATOM     14  C   LIG A   1      -0.059  -0.961   4.034  0.00  0.00    +0.007 C 
ATOM     15  C   LIG A   1       1.084  -2.362   2.321  0.00  0.00    +0.007 C 
ENDBRANCH  10  13
BRANCH   6  16
ATOM     16  O   LIG A   1       1.965  -1.774  -1.938  0.00  0.00    -0.389 OA
ATOM     17  H   LIG A   1       1.612  -2.260  -1.174  0.00  0.00    +0.210 HD
ENDBRANCH   6  16
TORSDOF 2
