REMARK  Name = NuBBE_2033
REMARK  5 active torsions:
REMARK  status: ('A' for Active; 'I' for Inactive)
REMARK    1  A    between atoms: O_1  and  C_2
REMARK    2  A    between atoms: C_3  and  C_11
REMARK    3  A    between atoms: C_18  and  C_23
REMARK    4  A    between atoms: C_19  and  O_22
REMARK    5  A    between atoms: C_20  and  C_21
REMARK                            x       y       z     vdW  Elec       q    Type
REMARK                         _______ _______ _______ _____ _____    ______ ____
ROOT
ATOM      1  C   LIG A   1       0.951  -0.134  -0.536  0.00  0.00    +0.207 C 
ATOM      2  O   LIG A   1      -0.401  -0.150  -0.042  0.00  0.00    -0.483 OA
ATOM      3  C   LIG A   1      -1.048   1.057   0.009  0.00  0.00    +0.131 A 
ATOM      4  C   LIG A   1      -0.369   2.277  -0.084  0.00  0.00    -0.005 A 
ATOM      5  C   LIG A   1       1.121   2.323  -0.251  0.00  0.00    +0.043 C 
ATOM      6  C   LIG A   1       1.751   0.990   0.124  0.00  0.00    +0.054 C 
ATOM      7  C   LIG A   1      -1.097   3.474  -0.047  0.00  0.00    +0.014 A 
ATOM      8  C   LIG A   1      -2.491   3.471   0.103  0.00  0.00    -0.008 A 
ATOM      9  C   LIG A   1      -3.147   2.237   0.223  0.00  0.00    +0.126 A 
ATOM     10  C   LIG A   1      -2.440   1.024   0.199  0.00  0.00    +0.033 A 
ATOM     11  C   LIG A   1      -3.169  -0.290   0.305  0.00  0.00    +0.051 C 
ATOM     12  C   LIG A   1      -3.224   4.782   0.133  0.00  0.00    +0.048 C 
ENDROOT
BRANCH   1  14
ATOM     13  C   LIG A   1       0.786  -2.651  -0.895  0.00  0.00    +0.127 A 
ATOM     14  C   LIG A   1       1.490  -1.546  -0.347  0.00  0.00    +0.038 A 
ATOM     15  C   LIG A   1       2.699  -1.808   0.326  0.00  0.00    +0.060 A 
ATOM     16  C   LIG A   1       3.143  -3.114   0.410  0.00  0.00    +0.167 A 
ATOM     17  C   LIG A   1       2.449  -4.159  -0.146  0.00  0.00    +0.170 A 
ATOM     18  C   LIG A   1       1.263  -3.960  -0.812  0.00  0.00    +0.095 A 
ATOM     19  O   LIG A   1       3.063  -5.356   0.051  0.00  0.00    -0.453 OA
ATOM     20  C   LIG A   1       4.219  -4.945   0.809  0.00  0.00    +0.466 C 
ATOM     21  O   LIG A   1       4.285  -3.520   1.028  0.00  0.00    -0.453 OA
BRANCH  13  22
ATOM     22  O   LIG A   1      -0.419  -2.490  -1.526  0.00  0.00    -0.506 OA
ATOM     23  H   LIG A   1      -0.831  -1.679  -1.167  0.00  0.00    +0.292 HD
ENDBRANCH  13  22
ENDBRANCH   1  14
BRANCH   9  24
ATOM     24  O   LIG A   1      -4.508   2.166   0.364  0.00  0.00    -0.506 OA
ATOM     25  H   LIG A   1      -4.883   3.058   0.405  0.00  0.00    +0.292 HD
ENDBRANCH   9  24
TORSDOF 3
