@<TRIPOS>MOLECULE
NuBBE_2125
 21 20 0 0 0
SMALL
GASTEIGER

@<TRIPOS>ATOM
      1 C          -3.2719    1.3698    1.6463 C.2     1  LIG1       -0.1026
      2 C          -2.3615    1.5364    0.6763 C.2     1  LIG1       -0.0911
      3 C          -1.6354    0.4077    0.0003 C.3     1  LIG1       -0.0350
      4 C          -0.1182    0.5229    0.1827 C.3     1  LIG1       -0.0496
      5 C           0.6204   -0.6186   -0.5240 C.3     1  LIG1       -0.0530
      6 C           2.1360   -0.5127   -0.3412 C.3     1  LIG1       -0.0559
      7 C           2.8686   -1.6463   -1.0444 C.3     1  LIG1       -0.0653
      8 H          -3.7677    2.2244    2.0953 H       1  LIG1        0.0532
      9 H          -3.5423    0.3846    2.0113 H       1  LIG1        0.0532
     10 H          -2.1329    2.5451    0.3380 H       1  LIG1        0.0566
     11 H          -1.8834    0.4271   -1.0677 H       1  LIG1        0.0307
     12 H          -1.9799   -0.5582    0.3898 H       1  LIG1        0.0307
     13 H           0.1257    0.5106    1.2526 H       1  LIG1        0.0268
     14 H           0.2308    1.4845   -0.2145 H       1  LIG1        0.0268
     15 H           0.3792   -0.6039   -1.5938 H       1  LIG1        0.0265
     16 H           0.2720   -1.5799   -0.1273 H       1  LIG1        0.0265
     17 H           2.3839   -0.5357    0.7263 H       1  LIG1        0.0263
     18 H           2.4949    0.4445   -0.7370 H       1  LIG1        0.0263
     19 H           2.5258   -2.6216   -0.6845 H       1  LIG1        0.0230
     20 H           3.9451   -1.5763   -0.8573 H       1  LIG1        0.0230
     21 H           2.7107   -1.6045   -2.1269 H       1  LIG1        0.0230
@<TRIPOS>BOND
     1     1     2    2
     2     2     3    1
     3     3     4    1
     4     4     5    1
     5     5     6    1
     6     6     7    1
     7     1     8    1
     8     1     9    1
     9     2    10    1
    10     3    11    1
    11     3    12    1
    12     4    13    1
    13     4    14    1
    14     5    15    1
    15     5    16    1
    16     6    17    1
    17     6    18    1
    18     7    19    1
    19     7    20    1
    20     7    21    1
