@<TRIPOS>MOLECULE
NuBBE_2132
 30 30 0 0 0
SMALL
GASTEIGER

@<TRIPOS>ATOM
      1 C          -2.7776   -1.5232   -2.0829 C.3     1  LIG1       -0.0653
      2 C          -2.9540   -0.1404   -1.4740 C.3     1  LIG1       -0.0559
      3 C          -1.8139    0.8245   -1.8128 C.3     1  LIG1       -0.0533
      4 C          -0.4212    0.3862   -1.3430 C.3     1  LIG1       -0.0528
      5 C          -0.3444    0.1763    0.1712 C.3     1  LIG1       -0.0502
      6 C           1.0383   -0.2694    0.6504 C.3     1  LIG1       -0.0410
      7 C           2.1483    0.7540    0.3983 C.3     1  LIG1       -0.0502
      8 C           3.1419    0.4934    1.5179 C.3     1  LIG1       -0.0528
      9 C           2.2422    0.2624    2.7187 C.3     1  LIG1       -0.0528
     10 C           1.0642   -0.5341    2.1673 C.3     1  LIG1       -0.0502
     11 H          -3.6043   -2.1744   -1.7816 H       1  LIG1        0.0230
     12 H          -1.8494   -1.9986   -1.7538 H       1  LIG1        0.0230
     13 H          -2.7695   -1.4681   -3.1759 H       1  LIG1        0.0230
     14 H          -3.0674   -0.2303   -0.3889 H       1  LIG1        0.0263
     15 H          -3.8948    0.2868   -1.8423 H       1  LIG1        0.0263
     16 H          -2.0443    1.8022   -1.3693 H       1  LIG1        0.0265
     17 H          -1.7850    0.9774   -2.8985 H       1  LIG1        0.0265
     18 H           0.2963    1.1576   -1.6464 H       1  LIG1        0.0265
     19 H          -0.1213   -0.5318   -1.8626 H       1  LIG1        0.0265
     20 H          -1.0653   -0.5901    0.4749 H       1  LIG1        0.0268
     21 H          -0.6346    1.1051    0.6807 H       1  LIG1        0.0268
     22 H           1.3014   -1.2063    0.1377 H       1  LIG1        0.0301
     23 H           1.7625    1.7797    0.4734 H       1  LIG1        0.0268
     24 H           2.6040    0.6353   -0.5883 H       1  LIG1        0.0268
     25 H           3.8311    1.3272    1.6676 H       1  LIG1        0.0265
     26 H           3.7296   -0.4086    1.3036 H       1  LIG1        0.0265
     27 H           1.8858    1.2242    3.1080 H       1  LIG1        0.0265
     28 H           2.7523   -0.2611    3.5318 H       1  LIG1        0.0265
     29 H           0.1333   -0.2508    2.6707 H       1  LIG1        0.0268
     30 H           1.2159   -1.6050    2.3483 H       1  LIG1        0.0268
@<TRIPOS>BOND
     1     1     2    1
     2     2     3    1
     3     3     4    1
     4     4     5    1
     5     5     6    1
     6     6     7    1
     7     7     8    1
     8     8     9    1
     9     9    10    1
    10     6    10    1
    11     1    11    1
    12     1    12    1
    13     1    13    1
    14     2    14    1
    15     2    15    1
    16     3    16    1
    17     3    17    1
    18     4    18    1
    19     4    19    1
    20     5    20    1
    21     5    21    1
    22     6    22    1
    23     7    23    1
    24     7    24    1
    25     8    25    1
    26     8    26    1
    27     9    27    1
    28     9    28    1
    29    10    29    1
    30    10    30    1
