REMARK  Name = NuBBE_479
REMARK  12 active torsions:
REMARK  status: ('A' for Active; 'I' for Inactive)
REMARK    1  A    between atoms: C_1  and  C_2
REMARK    2  A    between atoms: C_2  and  C_39
REMARK    3  A    between atoms: C_3  and  O_38
REMARK    4  A    between atoms: C_7  and  C_37
REMARK    5  A    between atoms: C_11  and  C_36
REMARK    6  A    between atoms: C_17  and  C_35
REMARK    7  A    between atoms: C_20  and  C_31
REMARK    8  A    between atoms: C_23  and  C_30
REMARK    9  A    between atoms: C_25  and  C_29
REMARK   10  A    between atoms: C_31  and  O_32
REMARK   11  A    between atoms: O_32  and  C_33
REMARK   12  A    between atoms: C_39  and  O_40
REMARK                            x       y       z     vdW  Elec       q    Type
REMARK                         _______ _______ _______ _____ _____    ______ ____
ROOT
ATOM      1  C   LIG A   1      -3.239  -3.765   3.913  0.00  0.00    +0.016 C 
ATOM      2  C   LIG A   1      -2.362  -2.514   4.197  0.00  0.00    +0.020 C 
ATOM      3  C   LIG A   1      -1.210  -2.936   5.171  0.00  0.00    +0.123 C 
ATOM      4  C   LIG A   1      -0.086  -1.906   5.284  0.00  0.00    +0.032 C 
ATOM      5  C   LIG A   1       0.496  -1.521   3.923  0.00  0.00    +0.010 C 
ATOM      6  C   LIG A   1      -0.561  -0.988   2.907  0.00  0.00    -0.025 C 
ATOM      7  C   LIG A   1      -1.745  -2.012   2.825  0.00  0.00    +0.006 C 
ATOM      8  C   LIG A   1      -2.755  -1.702   1.692  0.00  0.00    +0.005 C 
ATOM      9  C   LIG A   1      -2.365  -0.601   0.696  0.00  0.00    +0.008 C 
ATOM     10  C   LIG A   1      -0.880  -0.585   0.249  0.00  0.00    -0.019 C 
ATOM     11  C   LIG A   1       0.089  -0.957   1.451  0.00  0.00    +0.006 C 
ATOM     12  C   LIG A   1       1.484  -0.303   1.378  0.00  0.00    +0.031 C 
ATOM     13  C   LIG A   1       1.880   0.225   0.035  0.00  0.00    -0.026 C 
ATOM     14  C   LIG A   1       1.013   0.745  -0.861  0.00  0.00    -0.063 C 
ATOM     15  C   LIG A   1      -0.467   0.811  -0.465  0.00  0.00    -0.005 C 
ATOM     16  C   LIG A   1      -1.357   1.137  -1.699  0.00  0.00    +0.012 C 
ATOM     17  C   LIG A   1      -0.874   2.353  -2.508  0.00  0.00    +0.019 C 
ATOM     18  C   LIG A   1       0.527   2.114  -3.117  0.00  0.00    +0.074 C 
ATOM     19  C   LIG A   1       1.526   1.530  -2.074  0.00  0.00    +0.035 C 
ATOM     20  C   LIG A   1       2.878   1.074  -2.724  0.00  0.00    -0.003 C 
ATOM     21  C   LIG A   1       3.255   1.956  -3.946  0.00  0.00    -0.011 C 
ATOM     22  C   LIG A   1       2.680   3.381  -3.851  0.00  0.00    +0.004 C 
ATOM     23  C   LIG A   1       1.165   3.472  -3.559  0.00  0.00    +0.019 C 
ATOM     24  C   LIG A   1       4.774   2.013  -4.147  0.00  0.00    +0.008 C 
ATOM     25  C   LIG A   1       2.951  -0.420  -3.087  0.00  0.00    +0.008 C 
ATOM     26  C   LIG A   1      -0.611   2.024   0.501  0.00  0.00    +0.016 C 
ATOM     27  C   LIG A   1      -0.745  -1.756  -0.790  0.00  0.00    +0.012 C 
ATOM     28  C   LIG A   1      -0.976   0.413   3.401  0.00  0.00    +0.012 C 
ENDROOT
BRANCH  18  29
ATOM     29  C   LIG A   1       0.272   1.244  -4.383  0.00  0.00    +0.314 C 
ATOM     30  O   LIG A   1       0.206   0.035  -4.427  0.00  0.00    -0.250 OA
BRANCH  29  31
ATOM     31  O   LIG A   1       0.068   2.051  -5.475  0.00  0.00    -0.468 OA
ATOM     32  C   LIG A   1       0.775   1.682  -6.658  0.00  0.00    +0.280 C 
ENDBRANCH  29  31
ENDBRANCH  18  29
BRANCH   3  33
ATOM     33  O   LIG A   1      -0.632  -4.191   4.801  0.00  0.00    -0.391 OA
ATOM     34  H   LIG A   1      -0.223  -4.105   3.925  0.00  0.00    +0.210 HD
ENDBRANCH   3  33
BRANCH   2  35
ATOM     35  C   LIG A   1      -3.251  -1.495   4.966  0.00  0.00    +0.165 C 
BRANCH  35  36
ATOM     36  O   LIG A   1      -4.352  -0.997   4.226  0.00  0.00    -0.394 OA
ATOM     37  H   LIG A   1      -5.001  -1.716   4.137  0.00  0.00    +0.209 HD
ENDBRANCH  35  36
ENDBRANCH   2  35
TORSDOF 5
