REMARK  Name = NuBBE_933
REMARK  3 active torsions:
REMARK  status: ('A' for Active; 'I' for Inactive)
REMARK    1  A    between atoms: C_1  and  C_2
REMARK    2  A    between atoms: C_17  and  C_21
REMARK    3  A    between atoms: C_21  and  C_22
REMARK                            x       y       z     vdW  Elec       q    Type
REMARK                         _______ _______ _______ _____ _____    ______ ____
ROOT
ATOM      1  C   LIG A   1       0.272   2.966   0.548  0.00  0.00    +0.052 C 
ATOM      2  C   LIG A   1       1.408   2.494  -0.279  0.00  0.00    +0.041 C 
ATOM      3  C   LIG A   1       1.845   1.283  -0.630  0.00  0.00    +0.020 C 
ATOM      4  C   LIG A   1       1.403  -0.083  -0.338  0.00  0.00    +0.067 A 
ATOM      5  C   LIG A   1       0.067  -0.491  -0.214  0.00  0.00    +0.150 A 
ATOM      6  C   LIG A   1      -0.280  -1.819   0.050  0.00  0.00    +0.019 A 
ATOM      7  C   LIG A   1       0.727  -2.777   0.173  0.00  0.00    +0.015 A 
ATOM      8  C   LIG A   1       2.062  -2.407   0.013  0.00  0.00    +0.047 A 
ATOM      9  C   LIG A   1       2.400  -1.075  -0.244  0.00  0.00    +0.132 A 
ATOM     10  O   LIG A   1       3.747  -0.850  -0.435  0.00  0.00    -0.487 OA
ATOM     11  C   LIG A   1       4.137   0.531  -0.495  0.00  0.00    +0.278 C 
ATOM     12  C   LIG A   1       3.159   1.371  -1.305  0.00  0.00    +0.245 C 
ATOM     13  O   LIG A   1       3.485   2.753  -1.283  0.00  0.00    -0.450 OA
ATOM     14  C   LIG A   1       2.443   3.439  -0.734  0.00  0.00    +0.336 C 
ATOM     15  O   LIG A   1       2.402   4.649  -0.599  0.00  0.00    -0.245 OA
ATOM     16  C   LIG A   1      -1.684  -2.179   0.176  0.00  0.00    +0.022 A 
ATOM     17  C   LIG A   1      -2.649  -1.260   0.024  0.00  0.00    +0.037 A 
ATOM     18  C   LIG A   1      -2.310   0.146  -0.311  0.00  0.00    +0.340 A 
ATOM     19  O   LIG A   1      -3.173   1.000  -0.483  0.00  0.00    -0.245 OA
ATOM     20  O   LIG A   1      -0.960   0.455  -0.421  0.00  0.00    -0.421 OA
ENDROOT
BRANCH  17  21
ATOM     21  C   LIG A   1      -4.111  -1.600   0.137  0.00  0.00    +0.039 C 
ATOM     22  C   LIG A   1      -4.703  -1.167   1.471  0.00  0.00    +0.009 C 
ENDBRANCH  17  21
TORSDOF 1
