REMARK  Name = NuBBE_1400
REMARK  7 active torsions:
REMARK  status: ('A' for Active; 'I' for Inactive)
REMARK    1  A    between atoms: C_10  and  C_13
REMARK    2  A    between atoms: C_13  and  C_14
REMARK    3  A    between atoms: C_14  and  C_15
REMARK    4  A    between atoms: C_16  and  C_17
REMARK    5  A    between atoms: C_17  and  C_18
REMARK    6  A    between atoms: C_21  and  O_23
REMARK    7  A    between atoms: O_23  and  C_24
REMARK                            x       y       z     vdW  Elec       q    Type
REMARK                         _______ _______ _______ _____ _____    ______ ____
ROOT
ATOM      1  O   LIG A   1      -3.754   0.599  -0.802  0.00  0.00    -0.287 OA
ATOM      2  C   LIG A   1      -2.643   0.200  -1.108  0.00  0.00    +0.190 A 
ATOM      3  C   LIG A   1      -1.440   1.068  -1.045  0.00  0.00    +0.049 A 
ATOM      4  C   LIG A   1      -0.182   0.520  -1.364  0.00  0.00    +0.053 A 
ATOM      5  N   LIG A   1      -0.065  -0.850  -1.662  0.00  0.00    -0.343 N 
ATOM      6  C   LIG A   1      -1.210  -1.629  -1.823  0.00  0.00    +0.023 A 
ATOM      7  C   LIG A   1      -2.453  -1.188  -1.587  0.00  0.00    +0.072 A 
ATOM      8  C   LIG A   1      -0.954  -3.053  -2.247  0.00  0.00    +0.054 C 
ATOM      9  C   LIG A   1       0.040  -3.735  -1.295  0.00  0.00    +0.011 C 
ATOM     10  C   LIG A   1       1.129  -2.789  -0.719  0.00  0.00    +0.009 C 
ATOM     11  C   LIG A   1       1.249  -1.514  -1.582  0.00  0.00    +0.125 C 
ATOM     12  C   LIG A   1       0.908   1.398  -1.388  0.00  0.00    +0.030 A 
ATOM     13  C   LIG A   1       0.770   2.742  -1.035  0.00  0.00    +0.048 A 
ATOM     14  C   LIG A   1      -0.473   3.255  -0.675  0.00  0.00    +0.121 A 
ATOM     15  C   LIG A   1      -1.583   2.414  -0.676  0.00  0.00    +0.059 A 
ENDROOT
BRANCH  14  16
ATOM     16  O   LIG A   1      -0.700   4.551  -0.301  0.00  0.00    -0.495 OA
ATOM     17  C   LIG A   1       0.278   5.490  -0.739  0.00  0.00    +0.277 C 
ENDBRANCH  14  16
BRANCH  10  18
ATOM     18  C   LIG A   1       0.859  -2.474   0.780  0.00  0.00    +0.009 C 
BRANCH  18  19
ATOM     19  C   LIG A   1       1.899  -1.548   1.435  0.00  0.00    +0.027 C 
BRANCH  19  20
ATOM     20  C   LIG A   1       1.592  -1.294   2.886  0.00  0.00    -0.031 C 
ATOM     21  C   LIG A   1       0.871  -0.284   3.404  0.00  0.00    -0.031 C 
BRANCH  21  22
ATOM     22  C   LIG A   1       0.221   0.859   2.672  0.00  0.00    +0.023 C 
ATOM     23  C   LIG A   1      -1.294   0.898   2.828  0.00  0.00    +0.008 C 
ENDBRANCH  21  22
ENDBRANCH  19  20
ENDBRANCH  18  19
ENDBRANCH  10  18
TORSDOF 5
