REMARK  Name = NuBBE_288
REMARK  13 active torsions:
REMARK  status: ('A' for Active; 'I' for Inactive)
REMARK    1  A    between atoms: O_1  and  C_2
REMARK    2  A    between atoms: C_4  and  O_5
REMARK    3  A    between atoms: C_7  and  C_25
REMARK    4  A    between atoms: C_9  and  O_24
REMARK    5  A    between atoms: C_11  and  C_16
REMARK    6  A    between atoms: C_19  and  O_23
REMARK    7  A    between atoms: C_20  and  O_21
REMARK    8  A    between atoms: C_29  and  O_42
REMARK    9  A    between atoms: C_31  and  C_34
REMARK   10  A    between atoms: C_37  and  O_41
REMARK   11  A    between atoms: C_38  and  O_39
REMARK   12  A    between atoms: C_43  and  O_47
REMARK   13  A    between atoms: C_45  and  O_46
REMARK                            x       y       z     vdW  Elec       q    Type
REMARK                         _______ _______ _______ _____ _____    ______ ____
ROOT
ATOM      1  C   LIG A   1      -3.797  -0.636   2.239  0.00  0.00    +0.124 A 
ATOM      2  C   LIG A   1      -3.438  -1.960   2.474  0.00  0.00    +0.091 A 
ATOM      3  C   LIG A   1      -2.099  -2.340   2.345  0.00  0.00    +0.128 A 
ATOM      4  C   LIG A   1      -1.108  -1.409   2.001  0.00  0.00    +0.046 A 
ATOM      5  C   LIG A   1       0.354  -1.771   1.822  0.00  0.00    +0.096 C 
ATOM      6  C   LIG A   1       1.337  -0.570   1.907  0.00  0.00    +0.172 C 
ATOM      7  C   LIG A   1       0.609   0.714   2.355  0.00  0.00    +0.233 C 
ATOM      8  O   LIG A   1      -0.592   0.923   1.600  0.00  0.00    -0.481 OA
ATOM      9  C   LIG A   1      -1.501  -0.074   1.842  0.00  0.00    +0.132 A 
ATOM     10  C   LIG A   1      -2.837   0.309   1.920  0.00  0.00    +0.091 A 
ENDROOT
BRANCH   5  11
ATOM     11  C   LIG A   1       0.633  -2.662   0.596  0.00  0.00    +0.046 A 
ATOM     12  C   LIG A   1       0.386  -2.256  -0.740  0.00  0.00    +0.136 A 
ATOM     13  C   LIG A   1       0.613  -3.135  -1.823  0.00  0.00    +0.039 A 
ATOM     14  C   LIG A   1       0.305  -2.723  -3.234  0.00  0.00    +0.078 C 
ATOM     15  C   LIG A   1      -0.484  -1.429  -3.330  0.00  0.00    +0.164 C 
ATOM     16  C   LIG A   1       0.063  -0.455  -2.271  0.00  0.00    +0.232 C 
ATOM     17  O   LIG A   1      -0.102  -0.985  -0.939  0.00  0.00    -0.481 OA
ATOM     18  C   LIG A   1       1.155  -4.398  -1.566  0.00  0.00    +0.127 A 
ATOM     19  C   LIG A   1       1.438  -4.805  -0.271  0.00  0.00    +0.091 A 
ATOM     20  C   LIG A   1       1.172  -3.947   0.792  0.00  0.00    +0.128 A 
BRANCH  16  21
ATOM     21  C   LIG A   1      -0.643   0.890  -2.384  0.00  0.00    -0.001 A 
ATOM     22  C   LIG A   1      -1.853   1.155  -1.719  0.00  0.00    +0.011 A 
ATOM     23  C   LIG A   1      -2.510   2.381  -1.881  0.00  0.00    +0.049 A 
ATOM     24  C   LIG A   1      -1.966   3.337  -2.728  0.00  0.00    +0.158 A 
ATOM     25  C   LIG A   1      -0.777   3.080  -3.402  0.00  0.00    +0.159 A 
ATOM     26  C   LIG A   1      -0.112   1.874  -3.236  0.00  0.00    +0.056 A 
BRANCH  25  27
ATOM     27  O   LIG A   1      -0.253   4.017  -4.246  0.00  0.00    -0.503 OA
ATOM     28  H   LIG A   1      -0.849   4.787  -4.154  0.00  0.00    +0.292 HD
ENDBRANCH  25  27
BRANCH  24  29
ATOM     29  O   LIG A   1      -2.568   4.547  -2.938  0.00  0.00    -0.503 OA
ATOM     30  H   LIG A   1      -3.347   4.597  -2.358  0.00  0.00    +0.292 HD
ENDBRANCH  24  29
ENDBRANCH  16  21
BRANCH  15  31
ATOM     31  O   LIG A   1      -0.338  -0.959  -4.676  0.00  0.00    -0.388 OA
ATOM     32  H   LIG A   1      -0.957  -0.215  -4.796  0.00  0.00    +0.210 HD
ENDBRANCH  15  31
BRANCH  20  33
ATOM     33  O   LIG A   1       1.436  -4.375   2.065  0.00  0.00    -0.506 OA
ATOM     34  H   LIG A   1       1.877  -5.243   2.017  0.00  0.00    +0.292 HD
ENDBRANCH  20  33
BRANCH  18  35
ATOM     35  O   LIG A   1       1.445  -5.307  -2.545  0.00  0.00    -0.506 OA
ATOM     36  H   LIG A   1       1.297  -4.921  -3.423  0.00  0.00    +0.292 HD
ENDBRANCH  18  35
ENDBRANCH   5  11
BRANCH   7  37
ATOM     37  C   LIG A   1       1.454   1.977   2.217  0.00  0.00    -0.001 A 
ATOM     38  C   LIG A   1       1.757   2.761   3.347  0.00  0.00    +0.011 A 
ATOM     39  C   LIG A   1       2.511   3.937   3.234  0.00  0.00    +0.049 A 
ATOM     40  C   LIG A   1       2.963   4.329   1.979  0.00  0.00    +0.158 A 
ATOM     41  C   LIG A   1       2.671   3.563   0.858  0.00  0.00    +0.159 A 
ATOM     42  C   LIG A   1       1.917   2.400   0.960  0.00  0.00    +0.056 A 
BRANCH  41  43
ATOM     43  O   LIG A   1       3.125   3.954  -0.373  0.00  0.00    -0.503 OA
ATOM     44  H   LIG A   1       3.605   4.787  -0.199  0.00  0.00    +0.292 HD
ENDBRANCH  41  43
BRANCH  40  45
ATOM     45  O   LIG A   1       3.698   5.471   1.801  0.00  0.00    -0.503 OA
ATOM     46  H   LIG A   1       3.790   5.906   2.663  0.00  0.00    +0.292 HD
ENDBRANCH  40  45
ENDBRANCH   7  37
BRANCH   1  47
ATOM     47  O   LIG A   1      -5.093  -0.222   2.333  0.00  0.00    -0.506 OA
ATOM     48  H   LIG A   1      -5.639  -0.981   2.600  0.00  0.00    +0.292 HD
ENDBRANCH   1  47
BRANCH   3  49
ATOM     49  O   LIG A   1      -1.838  -3.657   2.610  0.00  0.00    -0.506 OA
ATOM     50  H   LIG A   1      -0.889  -3.841   2.509  0.00  0.00    +0.292 HD
ENDBRANCH   3  49
BRANCH   6  51
ATOM     51  O   LIG A   1       2.374  -0.879   2.868  0.00  0.00    -0.387 OA
ATOM     52  H   LIG A   1       2.815  -1.691   2.559  0.00  0.00    +0.210 HD
ENDBRANCH   6  51
TORSDOF 13
