REMARK  Name = NuBBE_939
REMARK  9 active torsions:
REMARK  status: ('A' for Active; 'I' for Inactive)
REMARK    1  A    between atoms: C_1  and  C_7
REMARK    2  A    between atoms: C_2  and  C_3
REMARK    3  A    between atoms: C_3  and  O_5
REMARK    4  A    between atoms: O_5  and  C_6
REMARK    5  A    between atoms: C_8  and  O_9
REMARK    6  A    between atoms: O_9  and  C_10
REMARK    7  A    between atoms: C_14  and  C_15
REMARK    8  A    between atoms: C_15  and  O_17
REMARK    9  A    between atoms: O_17  and  C_18
REMARK                            x       y       z     vdW  Elec       q    Type
REMARK                         _______ _______ _______ _____ _____    ______ ____
ROOT
ATOM      1  C   LIG A   1      -0.157   0.115   1.050  0.00  0.00    +0.050 A 
ATOM      2  C   LIG A   1       0.415  -1.189   1.125  0.00  0.00    +0.142 A 
ATOM      3  C   LIG A   1       1.776  -1.360   0.756  0.00  0.00    +0.082 A 
ATOM      4  C   LIG A   1       2.443  -0.225   0.302  0.00  0.00    +0.231 A 
ATOM      5  N   LIG A   1       1.969   1.016   0.211  0.00  0.00    -0.205 NA
ATOM      6  C   LIG A   1       0.670   1.153   0.594  0.00  0.00    +0.162 A 
ATOM      7  O   LIG A   1       3.713  -0.533  -0.078  0.00  0.00    -0.445 OA
ATOM      8  C   LIG A   1       3.895  -1.851   0.159  0.00  0.00    +0.198 A 
ATOM      9  C   LIG A   1       2.757  -2.398   0.700  0.00  0.00    +0.055 A 
ENDROOT
BRANCH   1  10
ATOM     10  C   LIG A   1      -1.559   0.307   1.498  0.00  0.00    +0.021 C 
ATOM     11  C   LIG A   1      -2.703   0.331   0.795  0.00  0.00    +0.092 C 
BRANCH  11  12
ATOM     12  C   LIG A   1      -2.952   0.195  -0.653  0.00  0.00    +0.332 C 
ATOM     13  O   LIG A   1      -4.033  -0.166  -1.099  0.00  0.00    -0.246 OA
BRANCH  12  14
ATOM     14  O   LIG A   1      -1.842   0.486  -1.371  0.00  0.00    -0.465 OA
ATOM     15  C   LIG A   1      -1.903   0.050  -2.728  0.00  0.00    +0.280 C 
ENDBRANCH  12  14
ENDBRANCH  11  12
ENDBRANCH   1  10
BRANCH   2  16
ATOM     16  O   LIG A   1      -0.445  -2.196   1.557  0.00  0.00    -0.494 OA
ATOM     17  C   LIG A   1       0.055  -3.525   1.552  0.00  0.00    +0.277 C 
ENDBRANCH   2  16
BRANCH   6  18
ATOM     18  C   LIG A   1       0.168   2.558   0.422  0.00  0.00    +0.358 C 
ATOM     19  O   LIG A   1      -0.745   3.091   1.049  0.00  0.00    -0.243 OA
BRANCH  18  20
ATOM     20  O   LIG A   1       0.848   3.108  -0.615  0.00  0.00    -0.463 OA
ATOM     21  C   LIG A   1       0.248   4.239  -1.237  0.00  0.00    +0.280 C 
ENDBRANCH  18  20
ENDBRANCH   6  18
TORSDOF 6
