@<TRIPOS>MOLECULE
NuBBE_176
 64 64 0 0 0
SMALL
GASTEIGER

@<TRIPOS>ATOM
      1 C           3.1919   -1.8944   -4.8626 C.3     1  LIG1       -0.0473
      2 C           3.1589   -1.1568   -3.5220 C.3     1  LIG1        0.0310
      3 H           2.1382   -0.7649   -3.4106 H       1  LIG1        0.0483
      4 C           4.1519    0.0263   -3.5052 C.3     1  LIG1        0.0703
      5 H           5.1790   -0.3365   -3.6454 H       1  LIG1        0.0609
      6 O           3.8635    0.9676   -4.5372 O.3     1  LIG1       -0.3903
      7 C           4.0445    0.7552   -2.1720 C.3     1  LIG1       -0.0240
      8 C           4.2576   -0.2104   -1.0167 C.3     1  LIG1       -0.0352
      9 C           3.3277   -1.4335   -1.1018 C.3     1  LIG1        0.0080
     10 H           2.2865   -1.1082   -0.9953 H       1  LIG1        0.0460
     11 C           3.6522   -2.4393    0.0267 C.3     1  LIG1       -0.0375
     12 C           3.4759   -1.8882    1.4550 C.3     1  LIG1       -0.0516
     13 C           2.0452   -1.4377    1.7619 C.3     1  LIG1       -0.0530
     14 C           1.9037   -0.9196    3.1978 C.3     1  LIG1       -0.0531
     15 C           0.5015   -0.3837    3.5055 C.3     1  LIG1       -0.0531
     16 C          -0.5974   -1.4470    3.4057 C.3     1  LIG1       -0.0531
     17 C          -1.9962   -0.9094    3.7276 C.3     1  LIG1       -0.0531
     18 C          -2.4258    0.2049    2.7729 C.3     1  LIG1       -0.0531
     19 C          -3.8394    0.7041    3.0680 C.3     1  LIG1       -0.0531
     20 C          -4.2648    1.8493    2.1404 C.3     1  LIG1       -0.0530
     21 C          -4.2971    1.4453    0.6619 C.3     1  LIG1       -0.0507
     22 C          -4.7557    2.6005   -0.2350 C.3     1  LIG1       -0.0271
     23 C          -4.7685    2.2128   -1.7193 C.3     1  LIG1        0.0524
     24 O          -5.7097    1.1598   -1.9373 O.3     1  LIG1       -0.3921
     25 C          -5.1406    3.4031   -2.5971 C.3     1  LIG1       -0.0389
     26 N           3.4475   -2.0961   -2.4171 N.3     1  LIG1       -0.3083
     27 H           2.7902   -2.8759   -2.4622 H       1  LIG1        0.1225
     28 H           4.1327   -2.4362   -5.0052 H       1  LIG1        0.0245
     29 H           3.0769   -1.1974   -5.7004 H       1  LIG1        0.0245
     30 H           2.3691   -2.6151   -4.9281 H       1  LIG1        0.0245
     31 H           4.5531    0.8638   -5.2155 H       1  LIG1        0.2098
     32 H           3.0571    1.2279   -2.0851 H       1  LIG1        0.0291
     33 H           4.7728    1.5728   -2.1258 H       1  LIG1        0.0291
     34 H           4.0851    0.3355   -0.0835 H       1  LIG1        0.0281
     35 H           5.3054   -0.5379   -1.0096 H       1  LIG1        0.0281
     36 H           4.6928   -2.7769   -0.0763 H       1  LIG1        0.0280
     37 H           3.0279   -3.3357   -0.0821 H       1  LIG1        0.0280
     38 H           4.1710   -1.0593    1.6284 H       1  LIG1        0.0266
     39 H           3.7614   -2.6743    2.1653 H       1  LIG1        0.0266
     40 H           1.3721   -2.2854    1.5971 H       1  LIG1        0.0265
     41 H           1.7424   -0.6402    1.0748 H       1  LIG1        0.0265
     42 H           2.6183   -0.1011    3.3534 H       1  LIG1        0.0265
     43 H           2.1618   -1.7091    3.9122 H       1  LIG1        0.0265
     44 H           0.2986    0.4451    2.8190 H       1  LIG1        0.0265
     45 H           0.4981    0.0379    4.5185 H       1  LIG1        0.0265
     46 H          -0.3693   -2.2673    4.0970 H       1  LIG1        0.0265
     47 H          -0.6198   -1.8774    2.3988 H       1  LIG1        0.0265
     48 H          -2.0300   -0.5539    4.7634 H       1  LIG1        0.0265
     49 H          -2.7090   -1.7405    3.6510 H       1  LIG1        0.0265
     50 H          -2.3606   -0.1780    1.7491 H       1  LIG1        0.0265
     51 H          -1.7427    1.0570    2.8484 H       1  LIG1        0.0265
     52 H          -3.8818    1.0620    4.1046 H       1  LIG1        0.0265
     53 H          -4.5540   -0.1231    2.9872 H       1  LIG1        0.0265
     54 H          -3.5853    2.6997    2.2776 H       1  LIG1        0.0265
     55 H          -5.2614    2.1897    2.4473 H       1  LIG1        0.0265
     56 H          -4.9631    0.5833    0.5391 H       1  LIG1        0.0266
     57 H          -3.2991    1.1362    0.3346 H       1  LIG1        0.0266
     58 H          -4.0854    3.4567   -0.0903 H       1  LIG1        0.0290
     59 H          -5.7604    2.9057    0.0761 H       1  LIG1        0.0290
     60 H          -3.7875    1.8339   -2.0192 H       1  LIG1        0.0590
     61 H          -6.5824    1.5486   -2.0477 H       1  LIG1        0.2098
     62 H          -4.3069    4.1105   -2.6658 H       1  LIG1        0.0254
     63 H          -6.0057    3.9367   -2.1890 H       1  LIG1        0.0254
     64 H          -5.4133    3.0783   -3.6059 H       1  LIG1        0.0254
@<TRIPOS>BOND
     1     2     4    1
     2     4     5    1
     3     4     6    1
     4     4     7    1
     5     7     8    1
     6     8     9    1
     7     9    10    1
     8     9    11    1
     9    11    12    1
    10    12    13    1
    11    13    14    1
    12    14    15    1
    13    15    16    1
    14    16    17    1
    15    17    18    1
    16    18    19    1
    17    19    20    1
    18    20    21    1
    19    21    22    1
    20    22    23    1
    21    23    24    1
    22    23    25    1
    23     9    26    1
    24     2    26    1
    25    26    27    1
    26     2     3    1
    27     2     1    1
    28     1    28    1
    29     1    29    1
    30     1    30    1
    31     6    31    1
    32     7    32    1
    33     7    33    1
    34     8    34    1
    35     8    35    1
    36    11    36    1
    37    11    37    1
    38    12    38    1
    39    12    39    1
    40    13    40    1
    41    13    41    1
    42    14    42    1
    43    14    43    1
    44    15    44    1
    45    15    45    1
    46    16    46    1
    47    16    47    1
    48    17    48    1
    49    17    49    1
    50    18    50    1
    51    18    51    1
    52    19    52    1
    53    19    53    1
    54    20    54    1
    55    20    55    1
    56    21    56    1
    57    21    57    1
    58    22    58    1
    59    22    59    1
    60    23    60    1
    61    24    61    1
    62    25    62    1
    63    25    63    1
    64    25    64    1
