@<TRIPOS>MOLECULE
NuBBE_358
 31 31 0 0 0
SMALL
GASTEIGER

@<TRIPOS>ATOM
      1 O           0.5017   -1.1061    3.6469 O.3     1  LIG1       -0.5061
      2 C           0.8019   -1.3525    2.3351 C.ar    1  LIG1        0.1277
      3 C           0.2963   -0.5760    1.2846 C.ar    1  LIG1        0.0638
      4 C          -0.5851    0.5901    1.5676 C.2     1  LIG1        0.1895
      5 C          -1.5982    0.9604    0.5340 C.2     1  LIG1       -0.0155
      6 C          -2.1986    2.1544    0.3609 C.2     1  LIG1       -0.0721
      7 C          -1.9752    3.4020    1.1715 C.3     1  LIG1       -0.0436
      8 C          -3.1983    2.3328   -0.7555 C.3     1  LIG1       -0.0436
      9 O          -0.4894    1.1501    2.6550 O.2     1  LIG1       -0.2872
     10 C           0.6919   -0.8664   -0.0253 C.ar    1  LIG1       -0.0334
     11 C           1.5912   -1.9192   -0.2899 C.ar    1  LIG1        0.0599
     12 C           2.1149   -2.1722   -1.6743 C.2     1  LIG1        0.3389
     13 O           1.6208   -1.2095   -2.4801 O.3     1  LIG1       -0.4645
     14 C           2.0805   -1.1931   -3.8365 C.3     1  LIG1        0.0820
     15 O           2.8906   -3.0722   -1.9683 O.2     1  LIG1       -0.2450
     16 C           2.0564   -2.7063    0.7714 C.ar    1  LIG1       -0.0443
     17 C           1.6582   -2.4261    2.0799 C.ar    1  LIG1       -0.0187
     18 H           0.0811   -0.2178    3.6983 H       1  LIG1        0.2922
     19 H          -1.8621    0.1487   -0.1393 H       1  LIG1        0.0655
     20 H          -1.3771    3.2507    2.0700 H       1  LIG1        0.0274
     21 H          -2.9375    3.8158    1.4942 H       1  LIG1        0.0274
     22 H          -1.4723    4.1584    0.5590 H       1  LIG1        0.0274
     23 H          -3.3684    1.4067   -1.3150 H       1  LIG1        0.0274
     24 H          -2.8436    3.0885   -1.4640 H       1  LIG1        0.0274
     25 H          -4.1643    2.6566   -0.3542 H       1  LIG1        0.0274
     26 H           0.3390   -0.2476   -0.8440 H       1  LIG1        0.0634
     27 H           1.2375   -0.9105   -4.4719 H       1  LIG1        0.0661
     28 H           2.4601   -2.1639   -4.1702 H       1  LIG1        0.0661
     29 H           2.8568   -0.4294   -3.9319 H       1  LIG1        0.0661
     30 H           2.7532   -3.5241    0.5852 H       1  LIG1        0.0627
     31 H           2.0378   -3.0225    2.9068 H       1  LIG1        0.0654
@<TRIPOS>BOND
     1     1     2    1
     2     2     3   ar
     3     3     4    1
     4     4     5    1
     5     5     6    2
     6     6     7    1
     7     6     8    1
     8     4     9    2
     9     3    10   ar
    10    10    11   ar
    11    11    12    1
    12    12    13    1
    13    13    14    1
    14    12    15    2
    15    11    16   ar
    16    16    17   ar
    17     2    17   ar
    18     1    18    1
    19     5    19    1
    20     7    20    1
    21     7    21    1
    22     7    22    1
    23     8    23    1
    24     8    24    1
    25     8    25    1
    26    10    26    1
    27    14    27    1
    28    14    28    1
    29    14    29    1
    30    16    30    1
    31    17    31    1
