REMARK  Name = NuBBE_2261
REMARK  6 active torsions:
REMARK  status: ('A' for Active; 'I' for Inactive)
REMARK    1  A    between atoms: C_1  and  C_2
REMARK    2  A    between atoms: C_9  and  C_11
REMARK    3  A    between atoms: C_11  and  C_12
REMARK    4  A    between atoms: C_11  and  C_13
REMARK    5  A    between atoms: C_11  and  O_14
REMARK    6  A    between atoms: C_15  and  C_18
REMARK                            x       y       z     vdW  Elec       q    Type
REMARK                         _______ _______ _______ _____ _____    ______ ____
ROOT
ATOM      1  C   LIG A   1      -2.338   2.298  -0.155  0.00  0.00    +0.044 C 
ATOM      2  C   LIG A   1      -0.831   2.256  -0.115  0.00  0.00    -0.043 A 
ATOM      3  C   LIG A   1      -0.096   1.048  -0.129  0.00  0.00    -0.011 A 
ATOM      4  C   LIG A   1       1.315   1.100  -0.091  0.00  0.00    +0.036 A 
ATOM      5  C   LIG A   1       2.049  -0.189  -0.128  0.00  0.00    +0.234 C 
ATOM      6  O   LIG A   1       3.242  -0.269  -0.383  0.00  0.00    -0.283 OA
ATOM      7  C   LIG A   1       1.275  -1.463   0.145  0.00  0.00    +0.232 C 
ATOM      8  O   LIG A   1       1.864  -2.482   0.487  0.00  0.00    -0.283 OA
ATOM      9  C   LIG A   1      -0.197  -1.450  -0.058  0.00  0.00    +0.034 C 
ATOM     10  C   LIG A   1      -0.789  -0.251  -0.201  0.00  0.00    +0.019 C 
ATOM     11  C   LIG A   1       1.997   2.336  -0.032  0.00  0.00    -0.039 A 
ATOM     12  C   LIG A   1       1.246   3.518  -0.027  0.00  0.00    +0.004 A 
ATOM     13  C   LIG A   1      -0.145   3.478  -0.068  0.00  0.00    +0.004 A 
ATOM     14  C   LIG A   1       3.497   2.449   0.020  0.00  0.00    +0.044 C 
ENDROOT
BRANCH   9  15
ATOM     15  C   LIG A   1      -0.897  -2.803  -0.082  0.00  0.00    +0.089 C 
ATOM     16  C   LIG A   1      -1.038  -3.380   1.333  0.00  0.00    +0.046 C 
ATOM     17  C   LIG A   1      -2.285  -2.779  -0.741  0.00  0.00    +0.046 C 
BRANCH  15  18
ATOM     18  O   LIG A   1      -0.129  -3.717  -0.874  0.00  0.00    -0.384 OA
ATOM     19  H   LIG A   1       0.742  -3.819  -0.435  0.00  0.00    +0.211 HD
ENDBRANCH  15  18
ENDBRANCH   9  15
TORSDOF 2
