@<TRIPOS>MOLECULE
NuBBE_97
 50 53 0 0 0
SMALL
GASTEIGER

@<TRIPOS>ATOM
      1 H          -3.1737    0.3597    0.3357 H       1  LIG1        0.0564
      2 C          -2.0895    0.1951    0.2755 C.3     1  LIG1        0.0642
      3 C          -1.7290    0.0144   -1.1731 C.ar    1  LIG1        0.0409
      4 C          -1.5656   -1.2154   -1.7879 C.ar    1  LIG1       -0.0158
      5 C          -1.7942   -2.5035   -1.0540 C.3     1  LIG1       -0.0096
      6 C          -2.4149   -2.2478    0.3477 C.3     1  LIG1        0.0164
      7 N          -1.7710   -1.0703    1.0096 N.pl3   1  LIG1       -0.3264
      8 C          -0.4552   -1.2349    1.4508 C.2     1  LIG1        0.0031
      9 C           0.4884   -0.2750    1.4619 C.2     1  LIG1        0.0573
     10 C           1.9124   -0.6542    1.6784 C.2     1  LIG1        0.3367
     11 O           2.0639   -1.9885    1.4960 O.3     1  LIG1       -0.4646
     12 C           3.3868   -2.5209    1.5271 C.3     1  LIG1        0.0820
     13 O           2.8209    0.1386    1.9114 O.2     1  LIG1       -0.2453
     14 C          -1.0233   -0.9757   -3.0775 C.ar    1  LIG1        0.0032
     15 C          -0.5420   -1.8035   -4.1096 C.ar    1  LIG1       -0.0523
     16 C           0.0011   -1.2194   -5.2592 C.ar    1  LIG1       -0.0611
     17 C           0.0558    0.1662   -5.3945 C.ar    1  LIG1       -0.0598
     18 C          -0.4254    1.0095   -4.3884 C.ar    1  LIG1       -0.0378
     19 C          -0.9505    0.4112   -3.2373 C.ar    1  LIG1        0.0470
     20 N          -1.4425    0.9895   -2.0853 N.ar    1  LIG1       -0.3562
     21 C          -1.3882    1.3670    0.9737 C.3     1  LIG1       -0.0180
     22 C           0.1408    1.1605    1.1208 C.3     1  LIG1        0.0173
     23 C           0.6929    2.2388    2.0706 C.2     1  LIG1       -0.0409
     24 C           1.1045    3.5290    1.3875 C.3     1  LIG1        0.0659
     25 O           2.1171    3.2786    0.4266 O.3     1  LIG1       -0.3907
     26 C           0.8369    2.1493    3.4125 C.2     1  LIG1       -0.0851
     27 C           0.5101    1.0227    4.3404 C.3     1  LIG1       -0.0465
     28 H           0.5880    1.3269    0.1306 H       1  LIG1        0.0398
     29 H          -0.8298   -3.0133   -0.9357 H       1  LIG1        0.0329
     30 H          -2.4492   -3.1654   -1.6306 H       1  LIG1        0.0329
     31 H          -2.3141   -3.1422    0.9746 H       1  LIG1        0.0467
     32 H          -3.4903   -2.0521    0.2509 H       1  LIG1        0.0467
     33 H          -0.2240   -2.2712    1.6844 H       1  LIG1        0.0785
     34 H           4.1521   -1.7873    1.7919 H       1  LIG1        0.0661
     35 H           3.6072   -2.9339    0.5390 H       1  LIG1        0.0661
     36 H           3.4038   -3.3359    2.2553 H       1  LIG1        0.0661
     37 H          -0.5640   -2.8836   -4.0039 H       1  LIG1        0.0624
     38 H           0.3939   -1.8552   -6.0484 H       1  LIG1        0.0618
     39 H           0.4894    0.6007   -6.2921 H       1  LIG1        0.0618
     40 H          -0.3675    2.0879   -4.4917 H       1  LIG1        0.0638
     41 H          -1.4807    1.9863   -1.9240 H       1  LIG1        0.1657
     42 H          -1.8361    1.4800    1.9720 H       1  LIG1        0.0296
     43 H          -1.5938    2.3042    0.4407 H       1  LIG1        0.0296
     44 H           1.4964    4.2691    2.0939 H       1  LIG1        0.0604
     45 H           0.2501    3.9870    0.8795 H       1  LIG1        0.0604
     46 H           2.8534    2.8561    0.9071 H       1  LIG1        0.2098
     47 H           1.2630    3.0042    3.9381 H       1  LIG1        0.0570
     48 H          -0.0029    0.1850    3.8723 H       1  LIG1        0.0272
     49 H          -0.1436    1.3837    5.1395 H       1  LIG1        0.0272
     50 H           1.4321    0.6480    4.7971 H       1  LIG1        0.0272
@<TRIPOS>BOND
     1     2     3    1
     2     3     4   ar
     3     4     5    1
     4     5     6    1
     5     6     7    1
     6     7     8    1
     7     8     9    2
     8    10    11    1
     9    11    12    1
    10    10    13    2
    11     4    14   ar
    12    14    15   ar
    13    15    16   ar
    14    16    17   ar
    15    17    18   ar
    16    18    19   ar
    17    14    19   ar
    18    19    20   ar
    19     3    20   ar
    20     7     2    1
    21     2    21    1
    22    21    22    1
    23    23    24    1
    24    24    25    1
    25    23    26    2
    26    26    27    1
    27     9    22    1
    28     1     2    1
    29     9    10    1
    30    22    23    1
    31    22    28    1
    32     5    29    1
    33     5    30    1
    34     6    31    1
    35     6    32    1
    36     8    33    1
    37    12    34    1
    38    12    35    1
    39    12    36    1
    40    15    37    1
    41    16    38    1
    42    17    39    1
    43    18    40    1
    44    20    41    1
    45    21    42    1
    46    21    43    1
    47    24    44    1
    48    24    45    1
    49    25    46    1
    50    26    47    1
    51    27    48    1
    52    27    49    1
    53    27    50    1
