REMARK  Name = NuBBE_1714
REMARK  0 active torsions:
REMARK  status: ('A' for Active; 'I' for Inactive)
REMARK                            x       y       z     vdW  Elec       q    Type
REMARK                         _______ _______ _______ _____ _____    ______ ____
ROOT
ATOM      1  O   LIG A   1      -2.278  -0.547   0.204  0.00  0.00    -0.286 OA
ATOM      2  C   LIG A   1      -1.052  -0.520   0.166  0.00  0.00    +0.204 A 
ATOM      3  C   LIG A   1      -0.283   0.728   0.139  0.00  0.00    +0.110 A 
ATOM      4  C   LIG A   1       1.111   0.660   0.056  0.00  0.00    +0.143 A 
ATOM      5  O   LIG A   1       1.817  -0.522   0.071  0.00  0.00    -0.455 OA
ATOM      6  C   LIG A   1       1.107  -1.699   0.070  0.00  0.00    +0.139 A 
ATOM      7  C   LIG A   1       1.848  -2.881   0.019  0.00  0.00    +0.047 A 
ATOM      8  C   LIG A   1       1.194  -4.117  -0.009  0.00  0.00    +0.004 A 
ATOM      9  C   LIG A   1      -0.200  -4.176   0.009  0.00  0.00    +0.001 A 
ATOM     10  C   LIG A   1      -0.943  -2.999   0.068  0.00  0.00    +0.015 A 
ATOM     11  C   LIG A   1      -0.283  -1.767   0.104  0.00  0.00    +0.065 A 
ATOM     12  C   LIG A   1       1.872   1.837  -0.070  0.00  0.00    +0.051 A 
ATOM     13  C   LIG A   1       1.242   3.085  -0.130  0.00  0.00    +0.053 A 
ATOM     14  C   LIG A   1      -0.135   3.116  -0.036  0.00  0.00    +0.167 A 
ATOM     15  C   LIG A   1      -0.885   1.971   0.115  0.00  0.00    +0.181 A 
ATOM     16  O   LIG A   1      -2.214   2.249   0.200  0.00  0.00    -0.452 OA
ATOM     17  C   LIG A   1      -2.227   3.656  -0.083  0.00  0.00    +0.466 C 
ATOM     18  O   LIG A   1      -0.906   4.236  -0.105  0.00  0.00    -0.453 OA
ENDROOT
TORSDOF 0
