@<TRIPOS>MOLECULE
NuBBE_877
 60 62 0 0 0
SMALL
GASTEIGER

@<TRIPOS>ATOM
      1 O          -1.6801    3.4653   -1.1947 O.3     1  LIG1       -0.5055
      2 C          -2.5299    2.5492   -0.6295 C.ar    1  LIG1        0.1375
      3 C          -3.8740    2.5122   -1.0631 C.ar    1  LIG1        0.0367
      4 C          -4.7188    1.5416   -0.5234 C.ar    1  LIG1        0.1314
      5 O          -6.0387    1.3919   -0.8498 O.3     1  LIG1       -0.4857
      6 C          -6.6657    2.4729   -1.5596 C.3     1  LIG1        0.1054
      7 C          -7.1223    3.5335   -0.5469 C.3     1  LIG1       -0.0252
      8 C          -7.9100    1.8685   -2.2277 C.3     1  LIG1       -0.0252
      9 C          -5.7415    3.0333   -2.6467 C.3     1  LIG1       -0.0092
     10 C          -4.4133    3.4957   -2.0650 C.3     1  LIG1       -0.0171
     11 C          -4.2354    0.6141    0.3970 C.ar    1  LIG1        0.0228
     12 C          -2.9026    0.6602    0.8192 C.ar    1  LIG1        0.1343
     13 O          -2.5034   -0.2571    1.7530 O.3     1  LIG1       -0.5058
     14 C          -2.0245    1.6312    0.3189 C.ar    1  LIG1        0.1005
     15 C          -0.6010    1.7698    0.8034 C.2     1  LIG1        0.1705
     16 C           0.1509    0.5367    1.2906 C.3     1  LIG1        0.0147
     17 C           1.6628    0.6636    1.0543 C.3     1  LIG1       -0.0207
     18 C           2.4290   -0.5469    1.5479 C.ar    1  LIG1       -0.0465
     19 C           3.2171   -1.3158    0.6738 C.ar    1  LIG1       -0.0516
     20 C           3.9302   -2.4491    1.1226 C.ar    1  LIG1       -0.0020
     21 C           4.7608   -3.2345    0.1240 C.3     1  LIG1       -0.0058
     22 C           6.2163   -3.3678    0.5004 C.2     1  LIG1       -0.0809
     23 C           7.2788   -3.4598   -0.3237 C.2     1  LIG1       -0.0793
     24 C           7.2219   -3.4343   -1.8248 C.3     1  LIG1       -0.0440
     25 C           8.6684   -3.6060    0.2427 C.3     1  LIG1       -0.0440
     26 C           3.8116   -2.8016    2.4752 C.ar    1  LIG1        0.1203
     27 C           3.0699   -2.0243    3.3596 C.ar    1  LIG1       -0.0196
     28 C           2.3843   -0.9029    2.9005 C.ar    1  LIG1       -0.0551
     29 O           4.3980   -3.9086    3.0232 O.3     1  LIG1       -0.5065
     30 O          -0.0776    2.8756    0.8645 O.2     1  LIG1       -0.2918
     31 H          -2.1629    4.2824   -1.3944 H       1  LIG1        0.2922
     32 H          -7.7936    3.0890    0.1977 H       1  LIG1        0.0268
     33 H          -7.6488    4.3581   -1.0382 H       1  LIG1        0.0268
     34 H          -6.2828    3.9498    0.0190 H       1  LIG1        0.0268
     35 H          -8.5648    1.3997   -1.4838 H       1  LIG1        0.0268
     36 H          -7.6288    1.0751   -2.9301 H       1  LIG1        0.0268
     37 H          -8.4864    2.6242   -2.7715 H       1  LIG1        0.0268
     38 H          -6.2190    3.8571   -3.1907 H       1  LIG1        0.0307
     39 H          -5.5313    2.2436   -3.3815 H       1  LIG1        0.0307
     40 H          -4.5387    4.4675   -1.5727 H       1  LIG1        0.0317
     41 H          -3.7046    3.6293   -2.8906 H       1  LIG1        0.0317
     42 H          -4.9258   -0.1287    0.7879 H       1  LIG1        0.0691
     43 H          -3.2429   -0.8578    1.9516 H       1  LIG1        0.2922
     44 H          -0.2120   -0.3594    0.7803 H       1  LIG1        0.0348
     45 H          -0.0533    0.4432    2.3637 H       1  LIG1        0.0348
     46 H           2.0644    1.5498    1.5624 H       1  LIG1        0.0317
     47 H           1.8504    0.8190   -0.0159 H       1  LIG1        0.0317
     48 H           3.2782   -1.0255   -0.3744 H       1  LIG1        0.0624
     49 H           4.6736   -2.7589   -0.8589 H       1  LIG1        0.0357
     50 H           4.3181   -4.2338    0.0266 H       1  LIG1        0.0357
     51 H           6.4262   -3.3784    1.5697 H       1  LIG1        0.0575
     52 H           6.2059   -3.3726   -2.2207 H       1  LIG1        0.0274
     53 H           7.6762   -4.3413   -2.2370 H       1  LIG1        0.0274
     54 H           7.7778   -2.5690   -2.2011 H       1  LIG1        0.0274
     55 H           8.6696   -3.6564    1.3371 H       1  LIG1        0.0274
     56 H           9.2894   -2.7549   -0.0531 H       1  LIG1        0.0274
     57 H           9.1338   -4.5256   -0.1276 H       1  LIG1        0.0274
     58 H           3.0194   -2.2992    4.4093 H       1  LIG1        0.0654
     59 H           1.8100   -0.3120    3.6095 H       1  LIG1        0.0621
     60 H           4.6417   -4.5211    2.3118 H       1  LIG1        0.2921
@<TRIPOS>BOND
     1     1     2    1
     2     2     3   ar
     3     3     4   ar
     4     4     5    1
     5     5     6    1
     6     6     7    1
     7     6     8    1
     8     6     9    1
     9     9    10    1
    10     3    10    1
    11     4    11   ar
    12    11    12   ar
    13    12    13    1
    14    12    14   ar
    15     2    14   ar
    16    14    15    1
    17    15    16    1
    18    16    17    1
    19    17    18    1
    20    18    19   ar
    21    19    20   ar
    22    20    21    1
    23    21    22    1
    24    22    23    2
    25    23    24    1
    26    23    25    1
    27    20    26   ar
    28    26    27   ar
    29    27    28   ar
    30    18    28   ar
    31    26    29    1
    32    15    30    2
    33     1    31    1
    34     7    32    1
    35     7    33    1
    36     7    34    1
    37     8    35    1
    38     8    36    1
    39     8    37    1
    40     9    38    1
    41     9    39    1
    42    10    40    1
    43    10    41    1
    44    11    42    1
    45    13    43    1
    46    16    44    1
    47    16    45    1
    48    17    46    1
    49    17    47    1
    50    19    48    1
    51    21    49    1
    52    21    50    1
    53    22    51    1
    54    24    52    1
    55    24    53    1
    56    24    54    1
    57    25    55    1
    58    25    56    1
    59    25    57    1
    60    27    58    1
    61    28    59    1
    62    29    60    1
