REMARK  Name = NuBBE_356
REMARK  5 active torsions:
REMARK  status: ('A' for Active; 'I' for Inactive)
REMARK    1  A    between atoms: C_2  and  C_3
REMARK    2  A    between atoms: C_2  and  O_16
REMARK    3  A    between atoms: C_10  and  C_11
REMARK    4  A    between atoms: C_10  and  C_12
REMARK    5  A    between atoms: O_16  and  C_17
REMARK                            x       y       z     vdW  Elec       q    Type
REMARK                         _______ _______ _______ _____ _____    ______ ____
ROOT
ATOM      1  C   LIG A   1      -1.544  -1.413  -0.532  0.00  0.00    +0.060 A 
ATOM      2  C   LIG A   1      -2.142  -0.143  -0.537  0.00  0.00    +0.018 A 
ATOM      3  C   LIG A   1      -1.365   0.999  -0.329  0.00  0.00    +0.047 A 
ATOM      4  C   LIG A   1       0.006   0.882  -0.108  0.00  0.00    +0.132 A 
ATOM      5  C   LIG A   1       0.602  -0.377  -0.118  0.00  0.00    +0.060 A 
ATOM      6  C   LIG A   1       2.062  -0.470   0.053  0.00  0.00    +0.170 C 
ATOM      7  C   LIG A   1       2.816   0.829   0.063  0.00  0.00    +0.127 C 
ATOM      8  C   LIG A   1       1.979   1.937   0.704  0.00  0.00    +0.112 C 
ATOM      9  C   LIG A   1       1.825   1.754   2.223  0.00  0.00    +0.056 C 
ATOM     10  C   LIG A   1       2.670   3.285   0.447  0.00  0.00    +0.056 C 
ATOM     11  O   LIG A   1       0.681   2.053   0.094  0.00  0.00    -0.485 OA
ATOM     12  O   LIG A   1       2.624  -1.559   0.107  0.00  0.00    -0.292 OA
ATOM     13  C   LIG A   1      -0.166  -1.530  -0.318  0.00  0.00    +0.030 A 
ENDROOT
BRANCH   1  15
ATOM     14  O   LIG A   1      -1.991  -3.751  -0.338  0.00  0.00    -0.245 OA
ATOM     15  C   LIG A   1      -2.345  -2.647  -0.723  0.00  0.00    +0.339 C 
BRANCH  15  16
ATOM     16  O   LIG A   1      -3.487  -2.357  -1.392  0.00  0.00    -0.465 OA
ATOM     17  C   LIG A   1      -4.353  -3.475  -1.594  0.00  0.00    +0.280 C 
ENDBRANCH  15  16
ENDBRANCH   1  15
TORSDOF 2
