@<TRIPOS>MOLECULE
NuBBE_1035
 79 83 0 0 0
SMALL
GASTEIGER

@<TRIPOS>ATOM
      1 O          -6.1816   -1.1684   -2.9090 O.2     1  LIG1       -0.2968
      2 C          -5.0161   -1.3344   -2.5450 C.2     1  LIG1        0.1392
      3 C          -4.6218   -2.5791   -1.7600 C.3     1  LIG1        0.0069
      4 C          -3.7446   -2.3091   -0.5249 C.3     1  LIG1       -0.0404
      5 C          -3.0430   -0.9142   -0.5269 C.3     1  LIG1       -0.0243
      6 C          -4.1110    0.0533    0.0637 C.3     1  LIG1       -0.0590
      7 C          -2.6742   -0.6192   -2.0215 C.3     1  LIG1       -0.0235
      8 C          -1.5038    0.3552   -2.1176 C.3     1  LIG1       -0.0483
      9 C          -0.2064   -0.2818   -1.5753 C.3     1  LIG1       -0.0463
     10 C          -0.3726   -1.2533   -0.3481 C.3     1  LIG1       -0.0194
     11 C          -0.4080   -2.7204   -0.8742 C.3     1  LIG1       -0.0585
     12 C          -1.7242   -0.9064    0.4007 C.3     1  LIG1       -0.0257
     13 H          -1.8970   -1.6923    1.1485 H       1  LIG1        0.0315
     14 C          -1.5697    0.4175    1.2227 C.3     1  LIG1       -0.0306
     15 C          -0.1985    0.9487    1.4988 C.2     1  LIG1       -0.0836
     16 C           0.9517    0.3174    1.2137 C.2     1  LIG1       -0.0626
     17 C           0.8838   -1.1175    0.6746 C.3     1  LIG1       -0.0051
     18 C           0.7093   -2.0817    1.8859 C.3     1  LIG1       -0.0553
     19 C           2.2377   -1.4662   -0.0110 C.3     1  LIG1       -0.0424
     20 C           3.4759   -1.2447    0.8730 C.3     1  LIG1       -0.0359
     21 C           3.5239    0.1296    1.6039 C.3     1  LIG1        0.0743
     22 C           3.5433   -0.1696    3.1081 C.2     1  LIG1        0.3115
     23 O           4.7595   -0.5223    3.5742 O.3     1  LIG1       -0.4802
     24 O           2.5976   -0.1932    3.8786 O.2     1  LIG1       -0.2504
     25 C           2.3185    1.0275    1.1910 C.3     1  LIG1       -0.0008
     26 H           2.4516    1.1687    0.1057 H       1  LIG1        0.0359
     27 C           2.4091    2.5017    1.7240 C.3     1  LIG1       -0.0337
     28 H           1.6250    3.0824    1.2182 H       1  LIG1        0.0307
     29 C           2.1565    2.6786    3.2291 C.3     1  LIG1       -0.0616
     30 C           3.7630    3.1648    1.3499 C.3     1  LIG1       -0.0407
     31 H           3.8583    4.1043    1.9113 H       1  LIG1        0.0301
     32 C           3.8145    3.5590   -0.1335 C.3     1  LIG1       -0.0622
     33 C           4.9556    2.2770    1.7271 C.3     1  LIG1       -0.0492
     34 C           4.8379    0.8528    1.1873 C.3     1  LIG1       -0.0364
     35 H          -2.2604   -1.5482   -2.4250 H       1  LIG1        0.0315
     36 C          -3.8907   -0.3708   -2.9636 C.3     1  LIG1        0.0267
     37 C          -4.3997    1.0793   -2.9810 C.3     1  LIG1       -0.0528
     38 C          -3.5152   -0.7433   -4.4162 C.3     1  LIG1       -0.0528
     39 H          -4.0923   -3.2423   -2.4545 H       1  LIG1        0.0342
     40 H          -5.5319   -3.1059   -1.4515 H       1  LIG1        0.0342
     41 H          -3.0168   -3.1226   -0.4499 H       1  LIG1        0.0275
     42 H          -4.3595   -2.4141    0.3794 H       1  LIG1        0.0275
     43 H          -5.1155   -0.1203   -0.3333 H       1  LIG1        0.0235
     44 H          -3.8749    1.1033   -0.1253 H       1  LIG1        0.0235
     45 H          -4.2058   -0.0873    1.1471 H       1  LIG1        0.0235
     46 H          -1.7272    1.2768   -1.5695 H       1  LIG1        0.0269
     47 H          -1.3222    0.6577   -3.1547 H       1  LIG1        0.0269
     48 H           0.4780    0.5432   -1.3510 H       1  LIG1        0.0271
     49 H           0.2755   -0.8286   -2.3971 H       1  LIG1        0.0271
     50 H          -1.1565   -2.9005   -1.6428 H       1  LIG1        0.0235
     51 H          -0.6201   -3.4331   -0.0721 H       1  LIG1        0.0235
     52 H           0.5361   -3.0101   -1.3428 H       1  LIG1        0.0235
     53 H          -2.0986    0.3093    2.1776 H       1  LIG1        0.0310
     54 H          -2.0487    1.2445    0.6939 H       1  LIG1        0.0310
     55 H          -0.1974    1.9765    1.8491 H       1  LIG1        0.0572
     56 H          -0.2120   -1.8976    2.4459 H       1  LIG1        0.0238
     57 H           1.5179   -1.9910    2.6127 H       1  LIG1        0.0238
     58 H           0.7096   -3.1301    1.5729 H       1  LIG1        0.0238
     59 H           2.3632   -0.8852   -0.9328 H       1  LIG1        0.0274
     60 H           2.2585   -2.5186   -0.3144 H       1  LIG1        0.0274
     61 H           4.3588   -1.3723    0.2327 H       1  LIG1        0.0276
     62 H           3.5425   -2.0706    1.5933 H       1  LIG1        0.0276
     63 H           4.5932   -0.7173    4.5206 H       1  LIG1        0.2951
     64 H           3.0077    2.3656    3.8386 H       1  LIG1        0.0233
     65 H           1.2734    2.1358    3.5735 H       1  LIG1        0.0233
     66 H           1.9873    3.7387    3.4520 H       1  LIG1        0.0233
     67 H           3.7571    2.6976   -0.8042 H       1  LIG1        0.0233
     68 H           4.7469    4.0892   -0.3561 H       1  LIG1        0.0233
     69 H           2.9867    4.2318   -0.3818 H       1  LIG1        0.0233
     70 H           5.0585    2.2440    2.8178 H       1  LIG1        0.0268
     71 H           5.8847    2.7257    1.3543 H       1  LIG1        0.0268
     72 H           5.7200    0.2833    1.5061 H       1  LIG1        0.0276
     73 H           4.8989    0.8886    0.0914 H       1  LIG1        0.0276
     74 H          -3.5931    1.7899   -3.1868 H       1  LIG1        0.0239
     75 H          -4.8848    1.3744   -2.0494 H       1  LIG1        0.0239
     76 H          -5.1562    1.2174   -3.7635 H       1  LIG1        0.0239
     77 H          -3.1668   -1.7799   -4.4896 H       1  LIG1        0.0239
     78 H          -2.7274   -0.0926   -4.8093 H       1  LIG1        0.0239
     79 H          -4.3810   -0.6550   -5.0835 H       1  LIG1        0.0239
@<TRIPOS>BOND
     1     2     3    1
     2     3     4    1
     3     4     5    1
     4     5     7    1
     5     7     8    1
     6     8     9    1
     7     9    10    1
     8    10    12    1
     9     5    12    1
    10    12    14    1
    11    14    15    1
    12    15    16    2
    13    16    17    1
    14    10    17    1
    15    17    19    1
    16    19    20    1
    17    20    21    1
    18    22    23    1
    19    22    24    2
    20    21    25    1
    21    16    25    1
    22    25    27    1
    23    27    30    1
    24    30    33    1
    25    33    34    1
    26    21    34    1
    27     7    36    1
    28     2    36    1
    29     1     2    2
    30     5     6    1
    31     7    35    1
    32    10    11    1
    33    12    13    1
    34    17    18    1
    35    21    22    1
    36    25    26    1
    37    30    31    1
    38    30    32    1
    39    36    37    1
    40    36    38    1
    41    27    29    1
    42    27    28    1
    43     3    39    1
    44     3    40    1
    45     4    41    1
    46     4    42    1
    47     6    43    1
    48     6    44    1
    49     6    45    1
    50     8    46    1
    51     8    47    1
    52     9    48    1
    53     9    49    1
    54    11    50    1
    55    11    51    1
    56    11    52    1
    57    14    53    1
    58    14    54    1
    59    15    55    1
    60    18    56    1
    61    18    57    1
    62    18    58    1
    63    19    59    1
    64    19    60    1
    65    20    61    1
    66    20    62    1
    67    23    63    1
    68    29    64    1
    69    29    65    1
    70    29    66    1
    71    32    67    1
    72    32    68    1
    73    32    69    1
    74    33    70    1
    75    33    71    1
    76    34    72    1
    77    34    73    1
    78    37    74    1
    79    37    75    1
    80    37    76    1
    81    38    77    1
    82    38    78    1
    83    38    79    1
