@<TRIPOS>MOLECULE
NuBBE_1103
 75 79 0 0 0
SMALL
GASTEIGER

@<TRIPOS>ATOM
      1 C          -1.4741    4.0649    3.0499 C.3     1  LIG1       -0.0525
      2 C          -0.7044    3.5942    1.7925 C.3     1  LIG1        0.0312
      3 C          -1.4565    4.2061    0.5860 C.3     1  LIG1       -0.0525
      4 C           0.6905    4.2177    1.7884 C.2     1  LIG1        0.1617
      5 C           1.6491    3.6947    0.7861 C.2     1  LIG1       -0.0223
      6 C           1.4095    2.5512    0.1279 C.2     1  LIG1       -0.0766
      7 C           0.2383    1.5918    0.3542 C.3     1  LIG1       -0.0082
      8 C           0.7207    0.0728    0.1781 C.3     1  LIG1        0.0298
      9 H           1.4443   -0.1165    0.9803 H       1  LIG1        0.0389
     10 C          -0.3099   -1.0910    0.2585 C.3     1  LIG1        0.1474
     11 O           0.4098   -2.3381    0.1269 O.3     1  LIG1       -0.4571
     12 C           0.9869   -2.8601    1.2007 C.2     1  LIG1        0.3043
     13 C           2.1643   -3.7525    0.8816 C.3     1  LIG1        0.0332
     14 O           0.6787   -2.5518    2.3698 O.2     1  LIG1       -0.2512
     15 H          -0.8334   -1.0838    1.2185 H       1  LIG1        0.0778
     16 C          -1.3449   -0.9882   -0.8875 C.3     1  LIG1        0.1492
     17 H          -1.7428    0.0190   -0.7217 H       1  LIG1        0.0778
     18 O          -2.4285   -1.9119   -0.6328 O.3     1  LIG1       -0.4571
     19 C          -3.3728   -1.3903    0.2198 C.2     1  LIG1        0.3043
     20 C          -4.1934   -2.4363    0.9020 C.3     1  LIG1        0.0332
     21 O          -3.5144   -0.1956    0.4629 O.2     1  LIG1       -0.2512
     22 C          -0.8368   -0.8843   -2.3689 C.3     1  LIG1        0.0507
     23 C          -1.9498    0.0140   -3.0406 C.3     1  LIG1       -0.0524
     24 C           0.5549   -0.1760   -2.3958 C.3     1  LIG1        0.1264
     25 C           1.1748   -0.4630   -3.7426 C.3     1  LIG1        0.0939
     26 H           2.2293   -0.5606   -3.9317 H       1  LIG1        0.0629
     27 C           0.2754   -1.3769   -4.5175 C.3     1  LIG1       -0.0158
     28 C          -0.6410   -2.0500   -3.4221 C.3     1  LIG1        0.0015
     29 H          -1.5952   -2.2965   -3.9120 H       1  LIG1        0.0358
     30 C          -0.0672   -3.3625   -2.9720 C.ar    1  LIG1       -0.0058
     31 C           1.2331   -3.6605   -2.6173 C.ar    1  LIG1        0.0951
     32 O           1.3744   -4.9759   -2.3177 O.2     1  LIG1       -0.4708
     33 C           0.1609   -5.5521   -2.4895 C.ar    1  LIG1        0.0919
     34 C          -0.7420   -4.6237   -2.9515 C.ar    1  LIG1       -0.0205
     35 O           0.6649    0.8286   -3.4175 O.3     1  LIG1       -0.3594
     36 C           1.4274   -0.1858   -1.1775 C.2     1  LIG1       -0.0348
     37 C           2.7324   -0.5264   -1.1414 C.2     1  LIG1       -0.0962
     38 C          -0.5310    2.0087    1.6843 C.3     1  LIG1       -0.0119
     39 C           0.0248    1.3782    2.9961 C.3     1  LIG1        0.0492
     40 C           1.4648    1.7051    3.3592 C.2     1  LIG1        0.3071
     41 O           1.5096    2.4244    4.5222 O.3     1  LIG1       -0.4679
     42 C           2.7674    3.0627    4.7567 C.3     1  LIG1        0.0817
     43 O           2.4258    1.4057    2.6944 O.2     1  LIG1       -0.2509
     44 H          -1.5490    1.6025    1.5866 H       1  LIG1        0.0321
     45 O           1.0350    5.1313    2.5262 O.2     1  LIG1       -0.2921
     46 H          -1.7222    5.1348    2.9791 H       1  LIG1        0.0239
     47 H          -0.8932    3.9591    3.9714 H       1  LIG1        0.0239
     48 H          -2.4215    3.5283    3.1656 H       1  LIG1        0.0239
     49 H          -1.5163    5.2998    0.6836 H       1  LIG1        0.0239
     50 H          -2.4790    3.8230    0.5184 H       1  LIG1        0.0239
     51 H          -0.9571    4.0254   -0.3697 H       1  LIG1        0.0239
     52 H           2.5434    4.2841    0.6259 H       1  LIG1        0.0649
     53 H           2.1413    2.2705   -0.6260 H       1  LIG1        0.0576
     54 H          -0.4560    1.7879   -0.4736 H       1  LIG1        0.0353
     55 H           3.0406   -3.1187    0.7787 H       1  LIG1        0.0342
     56 H           1.9791   -4.2843   -0.0414 H       1  LIG1        0.0342
     57 H           2.3242   -4.4932    1.6656 H       1  LIG1        0.0342
     58 H          -5.0922   -2.6576    0.3256 H       1  LIG1        0.0342
     59 H          -4.4832   -2.0434    1.8851 H       1  LIG1        0.0342
     60 H          -3.6030   -3.3369    1.0807 H       1  LIG1        0.0342
     61 H          -1.8269    1.0667   -2.7704 H       1  LIG1        0.0237
     62 H          -2.9493   -0.3126   -2.7263 H       1  LIG1        0.0237
     63 H          -1.9621   -0.0368   -4.1339 H       1  LIG1        0.0237
     64 H           0.8475   -2.0952   -5.1157 H       1  LIG1        0.0297
     65 H          -0.3124   -0.7796   -5.2257 H       1  LIG1        0.0297
     66 H           2.1362   -3.0753   -2.5248 H       1  LIG1        0.1032
     67 H           0.1085   -6.6086   -2.2621 H       1  LIG1        0.1029
     68 H          -1.7647   -4.8339   -3.2343 H       1  LIG1        0.0652
     69 H           3.2970   -0.8005   -2.0235 H       1  LIG1        0.0535
     70 H           3.2804   -0.5675   -0.2020 H       1  LIG1        0.0535
     71 H          -0.0533    0.2894    2.9666 H       1  LIG1        0.0381
     72 H          -0.6156    1.6780    3.8361 H       1  LIG1        0.0381
     73 H           2.7447    3.5016    5.7593 H       1  LIG1        0.0661
     74 H           2.9000    3.8712    4.0326 H       1  LIG1        0.0661
     75 H           3.6054    2.3612    4.7031 H       1  LIG1        0.0661
@<TRIPOS>BOND
     1     1     2    1
     2     2     3    1
     3     2     4    1
     4     4     5    1
     5     5     6    2
     6     6     7    1
     7     8    10    1
     8    11    12    1
     9    12    13    1
    10    12    14    2
    11    10    16    1
    12    18    19    1
    13    19    20    1
    14    19    21    2
    15    16    22    1
    16    22    24    1
    17    24    25    1
    18    25    27    1
    19    27    28    1
    20    22    28    1
    21    30    31   ar
    22    31    32   ar
    23    32    33   ar
    24    33    34   ar
    25    30    34   ar
    26    24    35    1
    27    25    35    1
    28    24    36    1
    29     8    36    1
    30     7    38    1
    31    38    39    1
    32    39    40    1
    33    40    41    1
    34    41    42    1
    35    40    43    2
    36     2    38    1
    37    38    44    1
    38     4    45    2
    39    10    11    1
    40    10    15    1
    41    22    23    1
    42    25    26    1
    43    28    29    1
    44    28    30    1
    45    36    37    2
    46     8     9    1
    47     8     7    1
    48    16    18    1
    49    16    17    1
    50     1    46    1
    51     1    47    1
    52     1    48    1
    53     3    49    1
    54     3    50    1
    55     3    51    1
    56     5    52    1
    57     6    53    1
    58     7    54    1
    59    13    55    1
    60    13    56    1
    61    13    57    1
    62    20    58    1
    63    20    59    1
    64    20    60    1
    65    23    61    1
    66    23    62    1
    67    23    63    1
    68    27    64    1
    69    27    65    1
    70    31    66    1
    71    33    67    1
    72    34    68    1
    73    37    69    1
    74    37    70    1
    75    39    71    1
    76    39    72    1
    77    42    73    1
    78    42    74    1
    79    42    75    1
