@<TRIPOS>MOLECULE
NuBBE_1571
 52 55 0 0 0
SMALL
GASTEIGER

@<TRIPOS>ATOM
      1 C          -0.0655   -0.5825    2.2441 C.3     1  LIG1       -0.0265
      2 C          -0.4466   -2.0616    2.3276 C.3     1  LIG1        0.0445
      3 O          -0.0847   -2.7951    1.1700 O.3     1  LIG1       -0.3950
      4 C           1.4571   -0.2758    2.1803 C.3     1  LIG1       -0.0332
      5 H           1.9099   -0.8565    2.9920 H       1  LIG1        0.0305
      6 C           2.1512   -0.6673    0.8639 C.3     1  LIG1       -0.0286
      7 C           1.7953    0.2235   -0.3512 C.3     1  LIG1        0.0512
      8 H           2.6124    0.0882   -1.0754 H       1  LIG1        0.0527
      9 C           0.5578   -0.2417   -1.0595 C.ar    1  LIG1        0.0376
     10 C          -0.4597    0.5563   -1.5487 C.ar    1  LIG1       -0.0163
     11 C          -1.4876   -0.3020   -2.0203 C.ar    1  LIG1        0.0066
     12 C          -1.0033   -1.6149   -1.9047 C.ar    1  LIG1        0.0472
     13 N           0.2777   -1.5261   -1.4141 N.ar    1  LIG1       -0.3564
     14 H           0.8698   -2.3322   -1.2087 H       1  LIG1        0.1656
     15 C          -1.7681   -2.7323   -2.2397 C.ar    1  LIG1       -0.0343
     16 C          -3.0697   -2.5108   -2.6930 C.ar    1  LIG1       -0.0180
     17 C          -3.5765   -1.2172   -2.8505 C.ar    1  LIG1        0.1208
     18 C          -2.7941   -0.1066   -2.5117 C.ar    1  LIG1       -0.0105
     19 O          -4.8712   -1.1541   -3.2931 O.3     1  LIG1       -0.4951
     20 C          -5.2086    0.0226   -4.0197 C.3     1  LIG1        0.0788
     21 C          -0.3722    2.0366   -1.4582 C.3     1  LIG1       -0.0125
     22 C           1.0968    2.4488   -1.1487 C.3     1  LIG1        0.0036
     23 N           1.7505    1.6811   -0.0540 N.3     1  LIG1       -0.2934
     24 C           1.1730    2.0466    1.2469 C.3     1  LIG1        0.0026
     25 C           1.7367    1.2315    2.4280 C.3     1  LIG1       -0.0255
     26 H           1.2036    1.5433    3.3368 H       1  LIG1        0.0316
     27 C           3.2347    1.5743    2.6471 C.3     1  LIG1       -0.0516
     28 C           3.8779    0.8405    3.8158 C.3     1  LIG1       -0.0650
     29 H          -0.4717   -0.1036    3.1452 H       1  LIG1        0.0290
     30 H          -0.5900   -0.1338    1.3972 H       1  LIG1        0.0290
     31 H          -1.5330   -2.1520    2.4442 H       1  LIG1        0.0557
     32 H           0.0206   -2.5363    3.1940 H       1  LIG1        0.0557
     33 H          -0.7993   -2.6353    0.5263 H       1  LIG1        0.2094
     34 H           1.9984   -1.7268    0.6498 H       1  LIG1        0.0287
     35 H           3.2353   -0.5904    1.0230 H       1  LIG1        0.0287
     36 H          -1.3782   -3.7421   -2.1332 H       1  LIG1        0.0639
     37 H          -3.6989   -3.3610   -2.9441 H       1  LIG1        0.0655
     38 H          -3.1756    0.9048   -2.5740 H       1  LIG1        0.0661
     39 H          -6.2303   -0.0980   -4.3923 H       1  LIG1        0.0660
     40 H          -4.5466    0.1506   -4.8829 H       1  LIG1        0.0660
     41 H          -5.1993    0.9101   -3.3800 H       1  LIG1        0.0660
     42 H          -1.0467    2.4019   -0.6747 H       1  LIG1        0.0326
     43 H          -0.6861    2.4937   -2.4041 H       1  LIG1        0.0326
     44 H           1.1334    3.5227   -0.9319 H       1  LIG1        0.0430
     45 H           1.6990    2.3130   -2.0572 H       1  LIG1        0.0430
     46 H           0.0819    1.9532    1.2421 H       1  LIG1        0.0429
     47 H           1.3760    3.1096    1.4342 H       1  LIG1        0.0429
     48 H           3.3279    2.6525    2.8300 H       1  LIG1        0.0266
     49 H           3.8241    1.3770    1.7449 H       1  LIG1        0.0266
     50 H           3.3711    1.0802    4.7551 H       1  LIG1        0.0230
     51 H           4.9278    1.1371    3.9104 H       1  LIG1        0.0230
     52 H           3.8635   -0.2439    3.6773 H       1  LIG1        0.0230
@<TRIPOS>BOND
     1     1     2    1
     2     2     3    1
     3     1     4    1
     4     4     5    1
     5     4     6    1
     6     6     7    1
     7     7     8    1
     8     7     9    1
     9     9    10   ar
    10    10    11   ar
    11    11    12   ar
    12    12    13   ar
    13    13    14    1
    14     9    13   ar
    15    12    15   ar
    16    15    16   ar
    17    16    17   ar
    18    17    18   ar
    19    11    18   ar
    20    17    19    1
    21    19    20    1
    22    10    21    1
    23    21    22    1
    24    22    23    1
    25     7    23    1
    26    23    24    1
    27    24    25    1
    28    25    26    1
    29     4    25    1
    30    25    27    1
    31    27    28    1
    32     1    29    1
    33     1    30    1
    34     2    31    1
    35     2    32    1
    36     3    33    1
    37     6    34    1
    38     6    35    1
    39    15    36    1
    40    16    37    1
    41    18    38    1
    42    20    39    1
    43    20    40    1
    44    20    41    1
    45    21    42    1
    46    21    43    1
    47    22    44    1
    48    22    45    1
    49    24    46    1
    50    24    47    1
    51    27    48    1
    52    27    49    1
    53    28    50    1
    54    28    51    1
    55    28    52    1
