@<TRIPOS>MOLECULE
NuBBE_1871
 52 54 0 0 0
SMALL
GASTEIGER

@<TRIPOS>ATOM
      1 C           1.0147   -4.9832   -2.0140 C.3     1  LIG1        0.0790
      2 O           1.6474   -3.7308   -1.7879 O.3     1  LIG1       -0.4905
      3 C           1.4960   -3.1397   -0.5563 C.ar    1  LIG1        0.1797
      4 C           1.5024   -3.8099    0.6953 C.ar    1  LIG1        0.2045
      5 O           1.5942   -5.1882    0.6883 O.3     1  LIG1       -0.4885
      6 C           1.5152   -5.8824    1.9362 C.3     1  LIG1        0.0791
      7 C           1.4128   -3.0403    1.8876 C.ar    1  LIG1        0.1687
      8 O           1.4617   -3.6951    3.0806 O.3     1  LIG1       -0.4912
      9 C           1.3347   -3.0020    4.3030 C.3     1  LIG1        0.0790
     10 C           1.2498   -1.6630    1.8292 C.ar    1  LIG1        0.0270
     11 C           1.1517   -1.0315    0.6089 C.ar    1  LIG1        0.1468
     12 O           0.8057    0.2900    0.6449 O.2     1  LIG1       -0.4507
     13 C           0.2207    0.8025   -0.4934 C.ar    1  LIG1        0.1810
     14 C          -0.6214    1.9768   -0.2207 C.ar    1  LIG1        0.0282
     15 C          -1.9887    1.8441    0.0299 C.ar    1  LIG1       -0.0055
     16 C          -2.7881    2.9805    0.2102 C.ar    1  LIG1        0.1629
     17 O          -4.1281    2.7841    0.4095 O.3     1  LIG1       -0.5032
     18 C          -2.2317    4.2692    0.1974 C.ar    1  LIG1        0.2033
     19 O          -2.9396    5.4399    0.3474 O.3     1  LIG1       -0.4885
     20 C          -4.2458    5.4768   -0.2236 C.3     1  LIG1        0.0791
     21 C          -0.8320    4.3935    0.0529 C.ar    1  LIG1        0.1658
     22 O          -0.3012    5.6623    0.1256 O.3     1  LIG1       -0.4913
     23 C           1.1119    5.7719   -0.0208 C.3     1  LIG1        0.0790
     24 C          -0.0496    3.2499   -0.1788 C.ar    1  LIG1       -0.0053
     25 C           0.4321    0.3033   -1.7318 C.ar    1  LIG1        0.2107
     26 O          -0.1395    0.8880   -2.8507 O.3     1  LIG1       -0.4883
     27 C           0.1217    0.2499   -4.0974 C.3     1  LIG1        0.0791
     28 C           1.3464   -1.7366   -0.5776 C.ar    1  LIG1        0.1131
     29 C           1.3252   -0.9043   -1.7891 C.ar    1  LIG1        0.2382
     30 O           2.0334   -1.1710   -2.7741 O.2     1  LIG1       -0.2830
     31 H          -0.0295   -4.9763   -1.6852 H       1  LIG1        0.0660
     32 H           1.5782   -5.8010   -1.5609 H       1  LIG1        0.0660
     33 H           1.0179   -5.1670   -3.0951 H       1  LIG1        0.0660
     34 H           2.4142   -5.6912    2.5365 H       1  LIG1        0.0660
     35 H           1.4763   -6.9587    1.7604 H       1  LIG1        0.0660
     36 H           0.5909   -5.6388    2.4775 H       1  LIG1        0.0660
     37 H           0.5036   -2.2933    4.2957 H       1  LIG1        0.0660
     38 H           2.2863   -2.5242    4.5446 H       1  LIG1        0.0660
     39 H           1.1129   -3.7500    5.0691 H       1  LIG1        0.0660
     40 H           1.1500   -1.0552    2.7200 H       1  LIG1        0.0692
     41 H          -2.4298    0.8531    0.0862 H       1  LIG1        0.0662
     42 H          -4.3693    1.9136    0.0531 H       1  LIG1        0.2923
     43 H          -4.5972    6.5142   -0.1981 H       1  LIG1        0.0660
     44 H          -4.9636    4.9039    0.3682 H       1  LIG1        0.0660
     45 H          -4.2440    5.1564   -1.2720 H       1  LIG1        0.0660
     46 H           1.3999    6.8133    0.1465 H       1  LIG1        0.0660
     47 H           1.4147    5.4994   -1.0380 H       1  LIG1        0.0660
     48 H           1.6420    5.1650    0.7226 H       1  LIG1        0.0660
     49 H           1.0206    3.3227   -0.3398 H       1  LIG1        0.0662
     50 H          -0.1422   -0.8129   -4.0686 H       1  LIG1        0.0660
     51 H           1.1638    0.3985   -4.3972 H       1  LIG1        0.0660
     52 H          -0.5074    0.7236   -4.8559 H       1  LIG1        0.0660
@<TRIPOS>BOND
     1     1     2    1
     2     2     3    1
     3     3     4   ar
     4     4     5    1
     5     5     6    1
     6     4     7   ar
     7     7     8    1
     8     8     9    1
     9     7    10   ar
    10    10    11   ar
    11    11    12   ar
    12    12    13   ar
    13    13    14    1
    14    14    15   ar
    15    15    16   ar
    16    16    17    1
    17    16    18   ar
    18    18    19    1
    19    19    20    1
    20    18    21   ar
    21    21    22    1
    22    22    23    1
    23    21    24   ar
    24    14    24   ar
    25    13    25   ar
    26    25    26    1
    27    26    27    1
    28    11    28   ar
    29     3    28   ar
    30    28    29   ar
    31    25    29   ar
    32    29    30    2
    33     1    31    1
    34     1    32    1
    35     1    33    1
    36     6    34    1
    37     6    35    1
    38     6    36    1
    39     9    37    1
    40     9    38    1
    41     9    39    1
    42    10    40    1
    43    15    41    1
    44    17    42    1
    45    20    43    1
    46    20    44    1
    47    20    45    1
    48    23    46    1
    49    23    47    1
    50    23    48    1
    51    24    49    1
    52    27    50    1
    53    27    51    1
    54    27    52    1
