@<TRIPOS>MOLECULE
NuBBE_1898
 34 35 0 0 0
SMALL
GASTEIGER

@<TRIPOS>ATOM
      1 O          -0.7287   -4.4032   -1.0984 O.2     1  LIG1       -0.2957
      2 C           0.1929   -4.2533   -0.3090 C.2     1  LIG1        0.1509
      3 C           0.6508   -2.9362    0.2078 C.ar    1  LIG1        0.0255
      4 C           1.7459   -3.0579    1.0789 C.ar    1  LIG1       -0.0506
      5 C           2.3091   -1.9376    1.6615 C.ar    1  LIG1       -0.0576
      6 C           1.7915   -0.6701    1.3893 C.ar    1  LIG1       -0.0426
      7 C           2.4537    0.5059    2.0714 C.3     1  LIG1       -0.0391
      8 C           0.6842   -0.5150    0.5066 C.ar    1  LIG1       -0.0103
      9 C           0.0756   -1.6546   -0.1149 C.ar    1  LIG1        0.0377
     10 C          -1.0305   -1.3615   -0.9784 C.ar    1  LIG1        0.1670
     11 O          -1.7699   -2.2818   -1.6882 O.3     1  LIG1       -0.5029
     12 C          -1.4948   -0.0531   -1.2025 C.ar    1  LIG1        0.1624
     13 O          -2.5621    0.1155   -2.0486 O.3     1  LIG1       -0.5031
     14 C          -0.9074    1.0438   -0.6013 C.ar    1  LIG1        0.0009
     15 C          -1.4058    2.4567   -0.8446 C.3     1  LIG1       -0.0179
     16 C          -1.8267    3.1417    0.4596 C.3     1  LIG1       -0.0585
     17 C          -0.3604    3.2951   -1.5858 C.3     1  LIG1       -0.0585
     18 C           0.1798    0.7854    0.2418 C.ar    1  LIG1       -0.0466
     19 H           0.7407   -5.1389    0.0579 H       1  LIG1        0.1082
     20 H           2.1769   -4.0287    1.3164 H       1  LIG1        0.0625
     21 H           3.1571   -2.0588    2.3331 H       1  LIG1        0.0621
     22 H           3.2808    0.1877    2.7156 H       1  LIG1        0.0278
     23 H           1.7343    1.0315    2.7079 H       1  LIG1        0.0278
     24 H           2.8696    1.1940    1.3284 H       1  LIG1        0.0278
     25 H          -1.4216   -3.1860   -1.5427 H       1  LIG1        0.2923
     26 H          -2.7829   -0.7974   -2.3290 H       1  LIG1        0.2923
     27 H          -2.2984    2.4257   -1.4811 H       1  LIG1        0.0345
     28 H          -0.9777    3.3064    1.1317 H       1  LIG1        0.0235
     29 H          -2.5669    2.5384    0.9971 H       1  LIG1        0.0235
     30 H          -2.2769    4.1185    0.2520 H       1  LIG1        0.0235
     31 H           0.5513    3.4311   -0.9939 H       1  LIG1        0.0235
     32 H          -0.7579    4.2893   -1.8170 H       1  LIG1        0.0235
     33 H          -0.0764    2.8197   -2.5313 H       1  LIG1        0.0235
     34 H           0.6509    1.6479    0.7097 H       1  LIG1        0.0628
@<TRIPOS>BOND
     1     1     2    2
     2     2     3    1
     3     3     4   ar
     4     4     5   ar
     5     5     6   ar
     6     6     7    1
     7     6     8   ar
     8     8     9   ar
     9     3     9   ar
    10     9    10   ar
    11    10    11    1
    12    10    12   ar
    13    12    13    1
    14    12    14   ar
    15    14    15    1
    16    15    16    1
    17    15    17    1
    18    14    18   ar
    19     8    18   ar
    20     2    19    1
    21     4    20    1
    22     5    21    1
    23     7    22    1
    24     7    23    1
    25     7    24    1
    26    11    25    1
    27    13    26    1
    28    15    27    1
    29    16    28    1
    30    16    29    1
    31    16    30    1
    32    17    31    1
    33    17    32    1
    34    17    33    1
    35    18    34    1
