@<TRIPOS>MOLECULE
NuBBE_2079
 46 49 0 0 0
SMALL
GASTEIGER

@<TRIPOS>ATOM
      1 O           0.6847   -2.1247    2.5440 O.2     1  LIG1       -0.2505
      2 C           1.2721   -1.2603    1.8815 C.2     1  LIG1        0.3106
      3 C           0.9308    0.2854    1.8662 C.3     1  LIG1        0.0604
      4 H           0.7334    0.5229    2.9067 H       1  LIG1        0.0415
      5 C           1.3772    1.7312    1.5072 C.3     1  LIG1       -0.0519
      6 O           1.7494   -1.6506    0.6897 O.3     1  LIG1       -0.4608
      7 C           0.8304   -0.9714   -0.0937 C.3     1  LIG1        0.1076
      8 H           1.4857   -0.1765   -0.4335 H       1  LIG1        0.0737
      9 C          -0.0533   -0.0338    0.7325 C.3     1  LIG1        0.0178
     10 H           0.0008    0.9583    0.3066 H       1  LIG1        0.0351
     11 C          -1.5843    0.0709    0.5736 C.3     1  LIG1        0.0155
     12 C          -1.5077   -0.3232    2.3491 C.3     1  LIG1       -0.0335
     13 C          -2.5557   -0.3391    3.5030 C.3     1  LIG1        0.0456
     14 C          -3.5121   -1.2197    2.9406 C.2     1  LIG1        0.3071
     15 O          -3.8561   -0.8235    1.7035 O.3     1  LIG1       -0.4640
     16 C          -2.8317   -1.0338    0.5748 C.3     1  LIG1        0.0987
     17 O          -3.8532   -2.3565    3.4792 O.2     1  LIG1       -0.2509
     18 C          -0.9082    0.4111   -1.2652 C.3     1  LIG1       -0.0266
     19 H          -1.8629    0.3881   -1.8156 H       1  LIG1        0.0311
     20 C          -0.1429    1.8490   -1.7943 C.3     1  LIG1       -0.0492
     21 C           1.4335    2.0855   -2.1385 C.3     1  LIG1       -0.0504
     22 C           2.2603    1.0610   -2.9030 C.3     1  LIG1       -0.0266
     23 C           1.8565   -0.3292   -2.5300 C.3     1  LIG1        0.0584
     24 H           2.5256   -0.5835   -1.6922 H       1  LIG1        0.0596
     25 O           2.3888   -1.2469   -3.5010 O.3     1  LIG1       -0.3915
     26 C           0.1965   -0.5977   -2.1954 C.3     1  LIG1       -0.0082
     27 H          -0.2464   -0.7547   -3.1872 H       1  LIG1        0.0330
     28 C           0.2774   -1.7565   -1.2807 C.3     1  LIG1       -0.0099
     29 H           1.6992    1.8660    0.4820 H       1  LIG1        0.0238
     30 H           2.1070    2.1912    2.1586 H       1  LIG1        0.0238
     31 H           0.4712    2.3863    1.5855 H       1  LIG1        0.0238
     32 H          -0.7035   -0.0922    3.0024 H       1  LIG1        0.0277
     33 H          -1.3737   -1.4113    2.2767 H       1  LIG1        0.0277
     34 H          -2.0733   -0.7990    4.3901 H       1  LIG1        0.0378
     35 H          -2.9266    0.6325    3.9040 H       1  LIG1        0.0378
     36 H          -2.5044   -2.0714    0.7257 H       1  LIG1        0.0703
     37 H          -3.4902   -0.9759   -0.2872 H       1  LIG1        0.0703
     38 H          -0.4936    2.7097   -1.2215 H       1  LIG1        0.0268
     39 H          -0.5582    1.9601   -2.8082 H       1  LIG1        0.0268
     40 H           2.0239    2.3534   -1.2598 H       1  LIG1        0.0266
     41 H           1.5152    2.9977   -2.7509 H       1  LIG1        0.0266
     42 H           3.3397    1.1915   -2.6527 H       1  LIG1        0.0290
     43 H           2.2714    1.2014   -3.9909 H       1  LIG1        0.0290
     44 H           3.3686   -1.2015   -3.4325 H       1  LIG1        0.2098
     45 H           0.9548   -2.5239   -1.6740 H       1  LIG1        0.0304
     46 H          -0.7159   -2.1963   -1.1753 H       1  LIG1        0.0304
@<TRIPOS>BOND
     1     2     3    1
     2     2     6    1
     3     6     7    1
     4     7     9    1
     5     3     9    1
     6     9    11    1
     7    11    12    1
     8    12    13    1
     9    13    14    1
    10    14    15    1
    11    15    16    1
    12    14    17    2
    13    16    11    1
    14    11    18    1
    15    18    20    1
    16    20    21    1
    17    21    22    1
    18    22    23    1
    19    23    26    1
    20    18    26    1
    21    26    28    1
    22     7    28    1
    23     1     2    2
    24     7     8    1
    25     9    10    1
    26    18    19    1
    27    26    27    1
    28     3     5    1
    29     3     4    1
    30    23    25    1
    31    23    24    1
    32     5    29    1
    33     5    30    1
    34     5    31    1
    35    12    32    1
    36    12    33    1
    37    13    34    1
    38    13    35    1
    39    16    36    1
    40    16    37    1
    41    20    38    1
    42    20    39    1
    43    21    40    1
    44    21    41    1
    45    22    42    1
    46    22    43    1
    47    25    44    1
    48    28    45    1
    49    28    46    1
