@<TRIPOS>MOLECULE
NuBBE_477
 37 38 0 0 0
SMALL
GASTEIGER

@<TRIPOS>ATOM
      1 O          -1.3719   -0.4932    0.5231 O.2     1  LIG1       -0.2456
      2 C          -0.1554   -0.3969    0.6071 C.2     1  LIG1        0.3320
      3 C           0.5577    0.7249    1.2405 C.2     1  LIG1        0.0231
      4 C          -0.0767    1.8632    1.5703 C.2     1  LIG1       -0.0477
      5 C           0.6197    3.0372    2.1223 C.ar    1  LIG1       -0.0211
      6 C          -0.0512    3.8966    3.0074 C.ar    1  LIG1       -0.0094
      7 C           0.5941    5.0388    3.4788 C.ar    1  LIG1        0.1588
      8 O          -0.0113    5.9113    4.3421 O.3     1  LIG1       -0.5033
      9 C           1.8920    5.3371    3.0722 C.ar    1  LIG1        0.1582
     10 C           2.5646    4.5094    2.1906 C.ar    1  LIG1       -0.0160
     11 C           1.9253    3.3646    1.7123 C.ar    1  LIG1       -0.0509
     12 O           2.5146    6.4609    3.5328 O.3     1  LIG1       -0.5033
     13 O           0.7595   -1.2721    0.1227 O.3     1  LIG1       -0.4612
     14 C           0.2085   -2.4443   -0.5079 C.3     1  LIG1        0.0967
     15 C          -0.2161   -2.1312   -1.9424 C.3     1  LIG1        0.0068
     16 C          -0.8123   -3.3155   -2.6572 C.ar    1  LIG1       -0.0442
     17 C          -2.1887   -3.5675   -2.5747 C.ar    1  LIG1       -0.0585
     18 C          -2.7516   -4.6528   -3.2479 C.ar    1  LIG1       -0.0615
     19 C          -1.9440   -5.4992   -4.0049 C.ar    1  LIG1       -0.0617
     20 C          -0.5730   -5.2622   -4.0873 C.ar    1  LIG1       -0.0615
     21 C          -0.0077   -4.1768   -3.4145 C.ar    1  LIG1       -0.0585
     22 H           1.6180    0.5808    1.4054 H       1  LIG1        0.0689
     23 H          -1.1483    1.9698    1.4097 H       1  LIG1        0.0626
     24 H          -1.0663    3.6709    3.3205 H       1  LIG1        0.0661
     25 H          -0.9062    5.5814    4.5321 H       1  LIG1        0.2923
     26 H           3.5708    4.7551    1.8660 H       1  LIG1        0.0655
     27 H           2.4573    2.7421    0.9971 H       1  LIG1        0.0625
     28 H           1.8580    6.8803    4.1233 H       1  LIG1        0.2923
     29 H          -0.6241   -2.8297    0.0931 H       1  LIG1        0.0701
     30 H           0.9847   -3.2189   -0.4947 H       1  LIG1        0.0701
     31 H           0.6402   -1.7432   -2.5090 H       1  LIG1        0.0346
     32 H          -0.9412   -1.3087   -1.9455 H       1  LIG1        0.0346
     33 H          -2.8329   -2.9113   -1.9921 H       1  LIG1        0.0620
     34 H          -3.8213   -4.8346   -3.1846 H       1  LIG1        0.0618
     35 H          -2.3836   -6.3421   -4.5316 H       1  LIG1        0.0618
     36 H           0.0560   -5.9213   -4.6802 H       1  LIG1        0.0618
     37 H           1.0628   -4.0028   -3.4952 H       1  LIG1        0.0620
@<TRIPOS>BOND
     1     1     2    2
     2     2     3    1
     3     3     4    2
     4     4     5    1
     5     5     6   ar
     6     6     7   ar
     7     7     8    1
     8     7     9   ar
     9     9    10   ar
    10    10    11   ar
    11     5    11   ar
    12     9    12    1
    13     2    13    1
    14    13    14    1
    15    14    15    1
    16    15    16    1
    17    16    17   ar
    18    17    18   ar
    19    18    19   ar
    20    19    20   ar
    21    20    21   ar
    22    16    21   ar
    23     3    22    1
    24     4    23    1
    25     6    24    1
    26     8    25    1
    27    10    26    1
    28    11    27    1
    29    12    28    1
    30    14    29    1
    31    14    30    1
    32    15    31    1
    33    15    32    1
    34    17    33    1
    35    18    34    1
    36    19    35    1
    37    20    36    1
    38    21    37    1
