@<TRIPOS>MOLECULE
NuBBE_1956
 40 41 0 0 0
SMALL
GASTEIGER

@<TRIPOS>ATOM
      1 O          -2.2846   -0.7583    0.5903 O.3     1  LIG1       -0.4940
      2 C          -2.8244   -0.4898   -0.7027 C.3     1  LIG1        0.0788
      3 C          -0.9076   -0.6660    0.6349 C.ar    1  LIG1        0.1377
      4 C          -0.1714   -1.9396    0.6413 C.ar    1  LIG1        0.0440
      5 C           1.2223   -1.9110    0.7693 C.ar    1  LIG1        0.0949
      6 C           1.9925   -3.0796    0.7051 C.ar    1  LIG1        0.1441
      7 O           3.3478   -2.9199    0.8504 O.3     1  LIG1       -0.4930
      8 C           4.1587   -3.9088    0.2283 C.3     1  LIG1        0.0789
      9 C           1.3494   -4.3041    0.5256 C.ar    1  LIG1       -0.0179
     10 C          -0.0427   -4.3518    0.4112 C.ar    1  LIG1       -0.0575
     11 C          -0.7997   -3.1801    0.4716 C.ar    1  LIG1       -0.0489
     12 N           1.8652   -0.6728    0.9429 N.ar    1  LIG1       -0.3188
     13 H           2.8736   -0.6780    1.0633 H       1  LIG1        0.1690
     14 C           1.2328    0.5199    0.9411 C.ar    1  LIG1        0.2560
     15 O           1.8442    1.5799    1.1135 O.2     1  LIG1       -0.2675
     16 C          -0.2474    0.5084    0.7314 C.ar    1  LIG1        0.0618
     17 C          -0.8969    1.8637    0.7035 C.3     1  LIG1        0.0109
     18 C          -0.7384    2.5898   -0.6567 C.3     1  LIG1        0.0800
     19 C          -1.3716    3.9706   -0.7107 C.2     1  LIG1       -0.0513
     20 C          -2.0365    4.5389    0.3119 C.2     1  LIG1       -0.0973
     21 C          -1.2250    4.7135   -2.0154 C.3     1  LIG1       -0.0416
     22 O           0.6317    2.7435   -1.0254 O.3     1  LIG1       -0.3872
     23 H          -3.5528   -1.2723   -0.9350 H       1  LIG1        0.0660
     24 H          -2.0673   -0.4723   -1.4940 H       1  LIG1        0.0660
     25 H          -3.3514    0.4688   -0.6753 H       1  LIG1        0.0660
     26 H           5.1987   -3.5753    0.2960 H       1  LIG1        0.0660
     27 H           3.9084   -4.0144   -0.8329 H       1  LIG1        0.0660
     28 H           4.0853   -4.8676    0.7498 H       1  LIG1        0.0660
     29 H           1.9009   -5.2369    0.4862 H       1  LIG1        0.0655
     30 H          -0.5421   -5.3084    0.2734 H       1  LIG1        0.0619
     31 H          -1.8809   -3.2441    0.3762 H       1  LIG1        0.0625
     32 H          -0.4605    2.4726    1.5067 H       1  LIG1        0.0344
     33 H          -1.9624    1.7704    0.9420 H       1  LIG1        0.0344
     34 H          -1.2004    1.9752   -1.4398 H       1  LIG1        0.0643
     35 H          -2.1721    4.0485    1.2701 H       1  LIG1        0.0535
     36 H          -2.4738    5.5280    0.2254 H       1  LIG1        0.0535
     37 H          -1.8143    4.2282   -2.7997 H       1  LIG1        0.0275
     38 H          -0.1796    4.7519   -2.3380 H       1  LIG1        0.0275
     39 H          -1.5680    5.7506   -1.9298 H       1  LIG1        0.0275
     40 H           1.1603    2.8288   -0.2059 H       1  LIG1        0.2102
@<TRIPOS>BOND
     1     1     2    1
     2     1     3    1
     3     3     4   ar
     4     4     5   ar
     5     5     6   ar
     6     6     7    1
     7     7     8    1
     8     6     9   ar
     9     9    10   ar
    10    10    11   ar
    11     4    11   ar
    12     5    12   ar
    13    12    13    1
    14    12    14   ar
    15    14    15    2
    16    14    16   ar
    17     3    16   ar
    18    16    17    1
    19    17    18    1
    20    18    19    1
    21    19    20    2
    22    19    21    1
    23    18    22    1
    24     2    23    1
    25     2    24    1
    26     2    25    1
    27     8    26    1
    28     8    27    1
    29     8    28    1
    30     9    29    1
    31    10    30    1
    32    11    31    1
    33    17    32    1
    34    17    33    1
    35    18    34    1
    36    20    35    1
    37    20    36    1
    38    21    37    1
    39    21    38    1
    40    21    39    1
    41    22    40    1
