@<TRIPOS>MOLECULE
NuBBE_1875
 55 57 0 0 0
SMALL
GASTEIGER

@<TRIPOS>ATOM
      1 O           1.0697    0.3090   -3.9128 O.2     1  LIG1       -0.2830
      2 C           0.7873   -0.0020   -2.8533 C.ar    1  LIG1        0.2382
      3 C           1.3344   -1.1493   -2.0643 C.ar    1  LIG1        0.1131
      4 C           1.0804   -2.4859   -2.3584 C.ar    1  LIG1        0.1797
      5 C           1.7451   -3.4616   -1.5679 C.ar    1  LIG1        0.2045
      6 O           1.7635   -4.7446   -2.0468 O.3     1  LIG1       -0.4885
      7 C           1.1157   -5.7621   -1.2770 C.3     1  LIG1        0.0791
      8 C           2.5808   -3.0353   -0.5055 C.ar    1  LIG1        0.1687
      9 C           2.6423   -1.6908   -0.1359 C.ar    1  LIG1        0.0270
     10 C           1.9980   -0.7619   -0.9075 C.ar    1  LIG1        0.1468
     11 O           1.9295    0.5371   -0.4584 O.2     1  LIG1       -0.4505
     12 C           0.6507    1.1178   -0.6723 C.ar    1  LIG1        0.1844
     13 C           0.3903    2.1198    0.7140 C.ar    1  LIG1        0.0665
     14 C           1.4326    2.8855    1.2337 C.ar    1  LIG1       -0.0437
     15 C           1.1603    3.8076    2.2828 C.ar    1  LIG1       -0.0154
     16 C          -0.1328    4.0257    2.8408 C.ar    1  LIG1        0.1652
     17 C          -1.2516    3.4323    2.2960 C.ar    1  LIG1        0.2042
     18 O          -2.4862    3.9998    2.5589 O.3     1  LIG1       -0.4885
     19 C          -3.7499    3.3315    2.7447 C.3     1  LIG1        0.0791
     20 C          -0.9443    2.5830    1.2277 C.ar    1  LIG1        0.1759
     21 O          -2.0289    2.6454    0.3878 O.3     1  LIG1       -0.4906
     22 C          -1.3654    2.5172   -0.7923 C.3     1  LIG1        0.0790
     23 O          -0.1922    4.9376    3.8598 O.3     1  LIG1       -0.4913
     24 C          -1.0340    4.5595    4.9489 C.3     1  LIG1        0.0790
     25 C          -0.1196    0.7446   -1.8964 C.ar    1  LIG1        0.2108
     26 O          -1.5919    0.9188   -2.4556 O.3     1  LIG1       -0.4883
     27 C          -3.0767    1.2691   -1.7284 C.3     1  LIG1        0.0791
     28 O           3.4735   -3.7298    0.2578 O.3     1  LIG1       -0.4912
     29 C           3.6527   -5.1033    0.0450 C.3     1  LIG1        0.0790
     30 O           0.2236   -2.7349   -3.4027 O.3     1  LIG1       -0.4905
     31 C          -0.5315   -3.9420   -3.3805 C.3     1  LIG1        0.0790
     32 H           1.8618   -6.3698   -0.7784 H       1  LIG1        0.0660
     33 H           0.6637   -6.4846   -1.9644 H       1  LIG1        0.0660
     34 H           0.3677   -5.3998   -0.5663 H       1  LIG1        0.0660
     35 H           3.2265   -1.3818    0.7281 H       1  LIG1        0.0692
     36 H           2.4382    2.8458    0.8166 H       1  LIG1        0.0627
     37 H           1.9859    4.3740    2.7087 H       1  LIG1        0.0655
     38 H          -4.4359    3.5559    1.9160 H       1  LIG1        0.0660
     39 H          -4.2428    3.7948    3.6203 H       1  LIG1        0.0660
     40 H          -3.7208    2.2560    2.9469 H       1  LIG1        0.0660
     41 H          -1.7510    2.9331   -1.7138 H       1  LIG1        0.0660
     42 H          -1.3867    1.3968   -0.6221 H       1  LIG1        0.0660
     43 H          -0.3887    2.9617   -1.0208 H       1  LIG1        0.0660
     44 H          -1.2280    5.4682    5.5201 H       1  LIG1        0.0660
     45 H          -0.5249    3.8324    5.5876 H       1  LIG1        0.0660
     46 H          -2.0114    4.1523    4.6866 H       1  LIG1        0.0660
     47 H          -3.1516    0.7030   -0.7888 H       1  LIG1        0.0660
     48 H          -3.8987    1.1203   -2.4167 H       1  LIG1        0.0660
     49 H          -3.3016    2.3566   -1.4605 H       1  LIG1        0.0660
     50 H           4.6338   -5.4017    0.4063 H       1  LIG1        0.0660
     51 H           3.6471   -5.3719   -1.0130 H       1  LIG1        0.0660
     52 H           2.9144   -5.6253    0.6600 H       1  LIG1        0.0660
     53 H          -1.3285   -3.9027   -2.6300 H       1  LIG1        0.0660
     54 H           0.0675   -4.8276   -3.2368 H       1  LIG1        0.0660
     55 H          -0.9614   -4.1238   -4.3679 H       1  LIG1        0.0660
@<TRIPOS>BOND
     1     1     2    2
     2     2     3   ar
     3     3     4   ar
     4     4     5   ar
     5     5     6    1
     6     6     7    1
     7     5     8   ar
     8     8     9   ar
     9     9    10   ar
    10     3    10   ar
    11    10    11   ar
    12    11    12   ar
    13    12    13    1
    14    13    14   ar
    15    14    15   ar
    16    15    16   ar
    17    16    17   ar
    18    17    18    1
    19    18    19    1
    20    17    20   ar
    21    13    20   ar
    22    20    21    1
    23    21    22    1
    24    16    23    1
    25    23    24    1
    26    12    25   ar
    27     2    25   ar
    28    25    26    1
    29    26    27    1
    30     8    28    1
    31    28    29    1
    32     4    30    1
    33    30    31    1
    34     7    32    1
    35     7    33    1
    36     7    34    1
    37     9    35    1
    38    14    36    1
    39    15    37    1
    40    19    38    1
    41    19    39    1
    42    19    40    1
    43    22    41    1
    44    22    42    1
    45    22    43    1
    46    24    44    1
    47    24    45    1
    48    24    46    1
    49    27    47    1
    50    27    48    1
    51    27    49    1
    52    29    50    1
    53    29    51    1
    54    29    52    1
    55    31    53    1
    56    31    54    1
    57    31    55    1
