REMARK  Name = NuBBE_1067
REMARK  1 active torsions:
REMARK  status: ('A' for Active; 'I' for Inactive)
REMARK    1  A    between atoms: O_1  and  C_2
REMARK                            x       y       z     vdW  Elec       q    Type
REMARK                         _______ _______ _______ _____ _____    ______ ____
ROOT
ATOM      1  C   LIG A   1      -0.544  -0.777   3.976  0.00  0.00    +0.143 A 
ATOM      2  C   LIG A   1       0.176  -0.508   2.807  0.00  0.00    +0.120 A 
ATOM      3  C   LIG A   1       1.565  -0.529   2.882  0.00  0.00    +0.069 A 
ATOM      4  C   LIG A   1       2.226  -0.794   4.090  0.00  0.00    +0.015 A 
ATOM      5  C   LIG A   1       1.484  -1.056   5.242  0.00  0.00    +0.004 A 
ATOM      6  C   LIG A   1       0.091  -1.050   5.185  0.00  0.00    +0.048 A 
ATOM      7  N   LIG A   1      -0.528  -0.236   1.616  0.00  0.00    -0.224 NA
ATOM      8  C   LIG A   1       0.177  -0.058   0.544  0.00  0.00    +0.161 A 
ATOM      9  N   LIG A   1       1.571  -0.103   0.496  0.00  0.00    -0.291 N 
ATOM     10  C   LIG A   1       2.290   0.270  -0.736  0.00  0.00    +0.131 C 
ATOM     11  C   LIG A   1       1.598  -0.187  -2.030  0.00  0.00    +0.059 C 
ATOM     12  C   LIG A   1       0.153   0.140  -1.943  0.00  0.00    -0.010 A 
ATOM     13  C   LIG A   1      -0.480   0.179  -0.716  0.00  0.00    +0.087 A 
ATOM     14  N   LIG A   1      -1.799   0.466  -0.945  0.00  0.00    -0.351 N 
ATOM     15  H   LIG A   1      -2.504   0.548  -0.225  0.00  0.00    +0.166 HD
ATOM     16  C   LIG A   1      -2.017   0.651  -2.296  0.00  0.00    +0.047 A 
ATOM     17  C   LIG A   1      -0.798   0.445  -2.947  0.00  0.00    +0.004 A 
ATOM     18  C   LIG A   1      -0.743   0.569  -4.348  0.00  0.00    +0.010 A 
ATOM     19  C   LIG A   1      -1.905   0.900  -5.053  0.00  0.00    +0.001 A 
ATOM     20  C   LIG A   1      -3.108   1.103  -4.380  0.00  0.00    +0.002 A 
ATOM     21  C   LIG A   1      -3.188   0.981  -2.988  0.00  0.00    +0.026 A 
ATOM     22  C   LIG A   1       2.323  -0.262   1.650  0.00  0.00    +0.262 A 
ATOM     23  O   LIG A   1       3.546  -0.177   1.694  0.00  0.00    -0.267 OA
ENDROOT
BRANCH   1  24
ATOM     24  O   LIG A   1      -1.913  -0.779   3.941  0.00  0.00    -0.505 OA
ATOM     25  H   LIG A   1      -2.131  -0.584   3.008  0.00  0.00    +0.292 HD
ENDBRANCH   1  24
TORSDOF 1
