REMARK  Name = NuBBE_1324
REMARK  8 active torsions:
REMARK  status: ('A' for Active; 'I' for Inactive)
REMARK    1  A    between atoms: C_2  and  C_3
REMARK    2  A    between atoms: C_2  and  C_17
REMARK    3  A    between atoms: C_4  and  O_5
REMARK    4  A    between atoms: O_5  and  C_6
REMARK    5  A    between atoms: C_10  and  C_11
REMARK    6  A    between atoms: C_10  and  C_12
REMARK    7  A    between atoms: C_17  and  C_18
REMARK    8  A    between atoms: C_18  and  C_19
REMARK                            x       y       z     vdW  Elec       q    Type
REMARK                         _______ _______ _______ _____ _____    ______ ____
ROOT
ATOM      1  O   LIG A   1      -1.756  -0.698  -1.583  0.00  0.00    -0.291 OA
ATOM      2  C   LIG A   1      -0.597  -0.635  -1.187  0.00  0.00    +0.174 C 
ENDROOT
BRANCH   2   3
ATOM      3  C   LIG A   1      -0.067   0.689  -0.709  0.00  0.00    +0.060 A 
ATOM      4  C   LIG A   1       0.934   0.823   0.274  0.00  0.00    +0.141 A 
ATOM      5  C   LIG A   1       1.480   2.101   0.523  0.00  0.00    +0.059 A 
ATOM      6  C   LIG A   1       2.717   2.328   1.264  0.00  0.00    +0.015 C 
ATOM      7  C   LIG A   1       2.985   3.551   1.719  0.00  0.00    +0.020 C 
ATOM      8  C   LIG A   1       2.172   4.754   1.323  0.00  0.00    +0.123 C 
ATOM      9  C   LIG A   1       3.171   5.780   0.778  0.00  0.00    +0.060 C 
ATOM     10  C   LIG A   1       1.406   5.341   2.512  0.00  0.00    +0.060 C 
ATOM     11  O   LIG A   1       1.236   4.522   0.250  0.00  0.00    -0.481 OA
ATOM     12  C   LIG A   1       0.861   3.234  -0.028  0.00  0.00    +0.132 A 
ATOM     13  C   LIG A   1      -0.186   3.102  -0.938  0.00  0.00    +0.047 A 
ATOM     14  C   LIG A   1      -0.627   1.833  -1.307  0.00  0.00    +0.019 A 
BRANCH   4  15
ATOM     15  O   LIG A   1       1.272  -0.335   0.922  0.00  0.00    -0.494 OA
ATOM     16  C   LIG A   1       1.891  -0.306   2.203  0.00  0.00    +0.277 C 
ENDBRANCH   4  15
ENDBRANCH   2   3
BRANCH   2  17
ATOM     17  C   LIG A   1       0.330  -1.833  -1.276  0.00  0.00    +0.159 C 
BRANCH  17  18
ATOM     18  C   LIG A   1      -0.065  -2.996  -0.387  0.00  0.00    +0.171 C 
ATOM     19  O   LIG A   1       0.651  -3.372   0.530  0.00  0.00    -0.292 OA
BRANCH  18  20
ATOM     20  C   LIG A   1      -1.334  -3.739  -0.661  0.00  0.00    +0.021 A 
ATOM     21  C   LIG A   1      -1.894  -3.804  -1.942  0.00  0.00    +0.060 A 
ATOM     22  C   LIG A   1      -3.023  -4.577  -2.115  0.00  0.00    +0.167 A 
ATOM     23  C   LIG A   1      -3.597  -5.275  -1.079  0.00  0.00    +0.166 A 
ATOM     24  O   LIG A   1      -4.679  -5.996  -1.477  0.00  0.00    -0.453 OA
ATOM     25  C   LIG A   1      -4.727  -5.663  -2.881  0.00  0.00    +0.466 C 
ATOM     26  O   LIG A   1      -3.681  -4.760  -3.292  0.00  0.00    -0.453 OA
ATOM     27  C   LIG A   1      -3.086  -5.224   0.198  0.00  0.00    +0.050 A 
ATOM     28  C   LIG A   1      -1.938  -4.448   0.407  0.00  0.00    +0.015 A 
ENDBRANCH  18  20
ENDBRANCH  17  18
ENDBRANCH   2  17
TORSDOF 5
