@<TRIPOS>MOLECULE
NuBBE_570
 54 56 0 0 0
SMALL
GASTEIGER

@<TRIPOS>ATOM
      1 O          -2.2638   -1.2218    0.8596 O.2     1  LIG1       -0.2937
      2 C          -1.6797   -1.1343   -0.2296 C.2     1  LIG1        0.1720
      3 C          -0.5000   -2.0997   -0.5767 C.3     1  LIG1        0.1523
      4 C          -0.6931   -3.4604    0.0909 C.2     1  LIG1       -0.0387
      5 C           0.4061   -4.2294   -0.0843 C.2     1  LIG1       -0.0085
      6 C           0.8041   -4.7890   -1.4371 C.3     1  LIG1       -0.0366
      7 C           1.3903   -3.1762    0.2616 C.2     1  LIG1        0.1654
      8 O           2.3746   -3.4565    0.9729 O.2     1  LIG1       -0.2920
      9 O          -0.7168   -2.4371   -1.9638 O.3     1  LIG1       -0.3762
     10 C           1.0379   -1.8140   -0.3350 C.3     1  LIG1        0.0636
     11 H           1.5473   -1.7785   -1.3020 H       1  LIG1        0.0417
     12 C           1.7015   -0.7577    0.6031 C.3     1  LIG1       -0.0110
     13 C           2.2126    0.6068    0.0188 C.3     1  LIG1        0.0641
     14 O           1.8689    0.6931   -1.3565 O.3     1  LIG1       -0.3888
     15 C           3.7647    0.6526    0.0273 C.3     1  LIG1       -0.0361
     16 C           1.7639    1.8205    0.8992 C.3     1  LIG1       -0.0240
     17 C           0.9710    2.9681    0.2711 C.3     1  LIG1       -0.0469
     18 C          -0.5306    2.9092    0.3992 C.3     1  LIG1       -0.0322
     19 H          -0.9616    3.8014   -0.0521 H       1  LIG1        0.0309
     20 C          -1.2129    1.6243    0.1366 C.3     1  LIG1       -0.0317
     21 H          -0.4778    0.8479   -0.0070 H       1  LIG1        0.0309
     22 C          -1.3540    2.2240    1.5311 C.3     1  LIG1       -0.0287
     23 C          -2.5194    3.0744    1.9922 C.3     1  LIG1       -0.0593
     24 C          -0.9835    1.1848    2.5658 C.3     1  LIG1       -0.0593
     25 C          -2.4363    1.2761   -0.6312 C.3     1  LIG1       -0.0400
     26 C          -2.2133   -0.1067   -1.2970 C.3     1  LIG1        0.0182
     27 H          -3.1918   -0.4848   -1.6226 H       1  LIG1        0.0376
     28 C          -1.3614    0.0822   -2.5545 C.3     1  LIG1       -0.0556
     29 H          -1.0696   -3.3855    1.1201 H       1  LIG1        0.0608
     30 H          -0.0776   -5.0734   -2.0205 H       1  LIG1        0.0279
     31 H           1.4381   -5.6683   -1.3152 H       1  LIG1        0.0279
     32 H           1.3686   -4.0607   -2.0368 H       1  LIG1        0.0279
     33 H          -1.5486   -2.9474   -2.0066 H       1  LIG1        0.2112
     34 H           2.6253   -1.2124    0.9936 H       1  LIG1        0.0301
     35 H           1.1213   -0.6456    1.5195 H       1  LIG1        0.0301
     36 H           1.0691    1.2239   -1.4723 H       1  LIG1        0.2101
     37 H           4.1682    0.6609    1.0477 H       1  LIG1        0.0257
     38 H           4.1202    1.5612   -0.4788 H       1  LIG1        0.0257
     39 H           4.2058   -0.1923   -0.5101 H       1  LIG1        0.0257
     40 H           2.6535    2.2813    1.3492 H       1  LIG1        0.0293
     41 H           1.2578    1.4447    1.7810 H       1  LIG1        0.0293
     42 H           1.2363    3.0914   -0.7864 H       1  LIG1        0.0269
     43 H           1.2941    3.9023    0.7461 H       1  LIG1        0.0269
     44 H          -2.3633    4.1311    1.7546 H       1  LIG1        0.0235
     45 H          -2.6253    3.0172    3.0822 H       1  LIG1        0.0235
     46 H          -3.4656    2.7516    1.5536 H       1  LIG1        0.0235
     47 H          -1.8816    0.8322    3.0870 H       1  LIG1        0.0235
     48 H          -0.2847    1.5752    3.3065 H       1  LIG1        0.0235
     49 H          -0.5645    0.2809    2.1221 H       1  LIG1        0.0235
     50 H          -2.6842    2.0451   -1.3722 H       1  LIG1        0.0275
     51 H          -3.3005    1.1915    0.0371 H       1  LIG1        0.0275
     52 H          -1.4834    1.0754   -2.9969 H       1  LIG1        0.0236
     53 H          -1.6570   -0.6390   -3.3238 H       1  LIG1        0.0236
     54 H          -0.2994   -0.0608   -2.3602 H       1  LIG1        0.0236
@<TRIPOS>BOND
     1     1     2    2
     2     2     3    1
     3     3     4    1
     4     4     5    2
     5     5     6    1
     6     5     7    1
     7     7     8    2
     8     3     9    1
     9     3    10    1
    10     7    10    1
    11    10    11    1
    12    10    12    1
    13    12    13    1
    14    13    16    1
    15    16    17    1
    16    17    18    1
    17    18    19    1
    18    18    20    1
    19    20    21    1
    20    20    22    1
    21    22    23    1
    22    18    22    1
    23    22    24    1
    24    20    25    1
    25    25    26    1
    26    26    27    1
    27     2    26    1
    28    26    28    1
    29    13    15    1
    30    13    14    1
    31     4    29    1
    32     6    30    1
    33     6    31    1
    34     6    32    1
    35     9    33    1
    36    12    34    1
    37    12    35    1
    38    14    36    1
    39    15    37    1
    40    15    38    1
    41    15    39    1
    42    16    40    1
    43    16    41    1
    44    17    42    1
    45    17    43    1
    46    23    44    1
    47    23    45    1
    48    23    46    1
    49    24    47    1
    50    24    48    1
    51    24    49    1
    52    25    50    1
    53    25    51    1
    54    28    52    1
    55    28    53    1
    56    28    54    1
