@<TRIPOS>MOLECULE
NuBBE_304
 62 62 0 0 0
SMALL
GASTEIGER

@<TRIPOS>ATOM
      1 H          -2.8828    4.9643   -2.0266 H       1  LIG1        0.1225
      2 N          -2.4249    5.0462   -1.1206 N.3     1  LIG1       -0.3083
      3 C          -3.4104    5.3621   -0.0840 C.3     1  LIG1        0.0310
      4 H          -4.1378    6.0518   -0.5334 H       1  LIG1        0.0483
      5 C          -2.7762    6.1530    1.0648 C.3     1  LIG1       -0.0473
      6 C          -4.2016    4.1239    0.3727 C.3     1  LIG1        0.0703
      7 H          -4.7610    3.7179   -0.4793 H       1  LIG1        0.0609
      8 O          -5.1614    4.4480    1.3789 O.3     1  LIG1       -0.3903
      9 C          -3.2802    3.0472    0.9160 C.3     1  LIG1       -0.0240
     10 C          -2.0982    2.7458   -0.0008 C.3     1  LIG1       -0.0352
     11 C          -1.5383    3.8969   -0.8723 C.3     1  LIG1        0.0080
     12 H          -0.6482    4.2919   -0.3652 H       1  LIG1        0.0460
     13 C          -1.0805    3.3507   -2.2694 C.3     1  LIG1       -0.0375
     14 C           0.0404    2.2881   -2.2088 C.3     1  LIG1       -0.0516
     15 C           0.4542    1.7442   -3.5917 C.3     1  LIG1       -0.0530
     16 C           1.6129    0.7151   -3.5764 C.3     1  LIG1       -0.0531
     17 C           1.3604   -0.5827   -2.7876 C.3     1  LIG1       -0.0531
     18 C           2.6030   -1.5038   -2.7442 C.3     1  LIG1       -0.0531
     19 C           2.3886   -2.8309   -1.9742 C.3     1  LIG1       -0.0531
     20 C           2.0959   -2.5578   -0.4973 C.3     1  LIG1       -0.0531
     21 C           1.8979   -3.7729    0.4163 C.3     1  LIG1       -0.0530
     22 C           1.8418   -3.2758    1.8739 C.3     1  LIG1       -0.0527
     23 C           1.3141   -4.2854    2.8966 C.3     1  LIG1       -0.0464
     24 C           2.0978   -5.5919    2.9299 C.3     1  LIG1        0.0055
     25 C           1.5683   -6.5611    3.9533 C.2     1  LIG1        0.1303
     26 C           2.0051   -6.3880    5.3810 C.3     1  LIG1       -0.0061
     27 O           0.7591   -7.4639    3.6327 O.2     1  LIG1       -0.2977
     28 H          -2.0113    5.5802    1.5968 H       1  LIG1        0.0245
     29 H          -3.5353    6.4625    1.7928 H       1  LIG1        0.0245
     30 H          -2.3099    7.0696    0.6851 H       1  LIG1        0.0245
     31 H          -5.7845    5.0883    0.9943 H       1  LIG1        0.2098
     32 H          -3.8613    2.1254    1.0625 H       1  LIG1        0.0291
     33 H          -2.9310    3.3116    1.9220 H       1  LIG1        0.0291
     34 H          -2.3840    1.8988   -0.6350 H       1  LIG1        0.0281
     35 H          -1.2811    2.3755    0.6358 H       1  LIG1        0.0281
     36 H          -1.9542    2.9223   -2.7820 H       1  LIG1        0.0280
     37 H          -0.7411    4.1904   -2.8913 H       1  LIG1        0.0280
     38 H          -0.2983    1.4507   -1.5949 H       1  LIG1        0.0266
     39 H           0.9150    2.7306   -1.7196 H       1  LIG1        0.0266
     40 H           0.7743    2.5886   -4.2182 H       1  LIG1        0.0265
     41 H          -0.4157    1.3016   -4.0918 H       1  LIG1        0.0265
     42 H           2.5133    1.2061   -3.1890 H       1  LIG1        0.0265
     43 H           1.8309    0.4416   -4.6175 H       1  LIG1        0.0265
     44 H           0.5257   -1.1305   -3.2394 H       1  LIG1        0.0265
     45 H           1.0698   -0.3217   -1.7673 H       1  LIG1        0.0265
     46 H           3.4358   -0.9624   -2.2755 H       1  LIG1        0.0265
     47 H           2.9228   -1.7380   -3.7668 H       1  LIG1        0.0265
     48 H           3.3014   -3.4371   -2.0582 H       1  LIG1        0.0265
     49 H           1.5818   -3.4104   -2.4377 H       1  LIG1        0.0265
     50 H           1.1820   -1.9608   -0.4266 H       1  LIG1        0.0265
     51 H           2.9167   -1.9502   -0.0990 H       1  LIG1        0.0265
     52 H           2.7193   -4.4882    0.2966 H       1  LIG1        0.0265
     53 H           0.9661   -4.2895    0.1572 H       1  LIG1        0.0265
     54 H           1.2011   -2.3855    1.9275 H       1  LIG1        0.0265
     55 H           2.8458   -2.9465    2.1721 H       1  LIG1        0.0265
     56 H           0.2555   -4.4881    2.6939 H       1  LIG1        0.0269
     57 H           1.3459   -3.8136    3.8875 H       1  LIG1        0.0269
     58 H           3.1575   -5.4031    3.1473 H       1  LIG1        0.0341
     59 H           2.0585   -6.0881    1.9523 H       1  LIG1        0.0341
     60 H           1.5131   -5.5170    5.8222 H       1  LIG1        0.0306
     61 H           3.0918   -6.2666    5.4174 H       1  LIG1        0.0306
     62 H           1.7456   -7.2792    5.9622 H       1  LIG1        0.0306
@<TRIPOS>BOND
     1     1     2    1
     2     2     3    1
     3     3     6    1
     4     6     7    1
     5     6     8    1
     6     6     9    1
     7     9    10    1
     8    10    11    1
     9     2    11    1
    10    13    14    1
    11    14    15    1
    12    15    16    1
    13    16    17    1
    14    17    18    1
    15    18    19    1
    16    19    20    1
    17    20    21    1
    18    21    22    1
    19    22    23    1
    20    23    24    1
    21    24    25    1
    22    25    26    1
    23    25    27    2
    24    11    13    1
    25    11    12    1
    26     3     5    1
    27     3     4    1
    28     5    28    1
    29     5    29    1
    30     5    30    1
    31     8    31    1
    32     9    32    1
    33     9    33    1
    34    10    34    1
    35    10    35    1
    36    13    36    1
    37    13    37    1
    38    14    38    1
    39    14    39    1
    40    15    40    1
    41    15    41    1
    42    16    42    1
    43    16    43    1
    44    17    44    1
    45    17    45    1
    46    18    46    1
    47    18    47    1
    48    19    48    1
    49    19    49    1
    50    20    50    1
    51    20    51    1
    52    21    52    1
    53    21    53    1
    54    22    54    1
    55    22    55    1
    56    23    56    1
    57    23    57    1
    58    24    58    1
    59    24    59    1
    60    26    60    1
    61    26    61    1
    62    26    62    1
