@<TRIPOS>MOLECULE
NuBBE_479
 85 89 0 0 0
SMALL
GASTEIGER

@<TRIPOS>ATOM
      1 C          -3.2394   -3.7654    3.9129 C.3     1  LIG1       -0.0548
      2 C          -2.3616   -2.5142    4.1970 C.3     1  LIG1        0.0203
      3 C          -1.2095   -2.9362    5.1706 C.3     1  LIG1        0.0630
      4 H          -1.6228   -3.0985    6.1737 H       1  LIG1        0.0599
      5 C          -0.0862   -1.9064    5.2843 C.3     1  LIG1       -0.0257
      6 C           0.4957   -1.5208    3.9232 C.3     1  LIG1       -0.0447
      7 C          -0.5606   -0.9880    2.9069 C.3     1  LIG1       -0.0249
      8 C          -1.7447   -2.0124    2.8247 C.3     1  LIG1       -0.0255
      9 C          -2.7550   -1.7023    1.6915 C.3     1  LIG1       -0.0485
     10 C          -2.3653   -0.6009    0.6956 C.3     1  LIG1       -0.0463
     11 C          -0.8800   -0.5847    0.2490 C.3     1  LIG1       -0.0194
     12 C           0.0887   -0.9572    1.4513 C.3     1  LIG1       -0.0257
     13 H           0.3400   -2.0181    1.2840 H       1  LIG1        0.0315
     14 C           1.4840   -0.3032    1.3776 C.3     1  LIG1       -0.0306
     15 C           1.8802    0.2252    0.0347 C.2     1  LIG1       -0.0836
     16 C           1.0132    0.7449   -0.8610 C.2     1  LIG1       -0.0626
     17 C          -0.4666    0.8114   -0.4649 C.3     1  LIG1       -0.0051
     18 C          -1.3573    1.1369   -1.6986 C.3     1  LIG1       -0.0424
     19 C          -0.8739    2.3530   -2.5076 C.3     1  LIG1       -0.0359
     20 C           0.5269    2.1144   -3.1174 C.3     1  LIG1        0.0745
     21 C           1.5262    1.5296   -2.0738 C.3     1  LIG1       -0.0008
     22 H           1.8337    2.4419   -1.5256 H       1  LIG1        0.0359
     23 C           2.8784    1.0741   -2.7238 C.3     1  LIG1       -0.0337
     24 H           3.6580    1.2355   -1.9665 H       1  LIG1        0.0307
     25 C           3.2548    1.9557   -3.9461 C.3     1  LIG1       -0.0407
     26 H           2.8566    1.4912   -4.8501 H       1  LIG1        0.0301
     27 C           2.6797    3.3809   -3.8507 C.3     1  LIG1       -0.0492
     28 C           1.1653    3.4719   -3.5593 C.3     1  LIG1       -0.0364
     29 C           4.7743    2.0134   -4.1468 C.3     1  LIG1       -0.0622
     30 C           2.9515   -0.4201   -3.0869 C.3     1  LIG1       -0.0616
     31 C           0.2715    1.2444   -4.3831 C.2     1  LIG1        0.3136
     32 O           0.0684    2.0512   -5.4748 O.3     1  LIG1       -0.4675
     33 C           0.7755    1.6822   -6.6576 C.3     1  LIG1        0.0817
     34 O           0.2062    0.0347   -4.4268 O.2     1  LIG1       -0.2502
     35 C          -0.6108    2.0242    0.5008 C.3     1  LIG1       -0.0553
     36 C          -0.7452   -1.7563   -0.7903 C.3     1  LIG1       -0.0585
     37 C          -0.9761    0.4127    3.4014 C.3     1  LIG1       -0.0590
     38 O          -0.6318   -4.1913    4.8011 O.3     1  LIG1       -0.3912
     39 C          -3.2512   -1.4954    4.9662 C.3     1  LIG1        0.0522
     40 O          -4.3516   -0.9970    4.2256 O.3     1  LIG1       -0.3944
     41 H          -2.6777   -4.5426    3.3827 H       1  LIG1        0.0237
     42 H          -4.1127   -3.5276    3.2985 H       1  LIG1        0.0237
     43 H          -3.6046   -4.2053    4.8485 H       1  LIG1        0.0237
     44 H           0.7272   -2.3209    5.8934 H       1  LIG1        0.0290
     45 H          -0.4392   -1.0167    5.8153 H       1  LIG1        0.0290
     46 H           1.0108   -2.3928    3.5014 H       1  LIG1        0.0271
     47 H           1.2757   -0.7670    4.0904 H       1  LIG1        0.0271
     48 H          -1.2526   -2.9251    2.4468 H       1  LIG1        0.0313
     49 H          -3.7420   -1.4496    2.0790 H       1  LIG1        0.0268
     50 H          -2.9155   -2.6310    1.1259 H       1  LIG1        0.0268
     51 H          -2.6578    0.3592    1.1225 H       1  LIG1        0.0271
     52 H          -3.0170   -0.7030   -0.1831 H       1  LIG1        0.0271
     53 H           2.2313   -1.0532    1.6703 H       1  LIG1        0.0310
     54 H           1.5926    0.5113    2.1005 H       1  LIG1        0.0310
     55 H           2.9519    0.2698   -0.1351 H       1  LIG1        0.0572
     56 H          -2.3844    1.3382   -1.3682 H       1  LIG1        0.0274
     57 H          -1.4237    0.2831   -2.3771 H       1  LIG1        0.0274
     58 H          -0.8693    3.2503   -1.8801 H       1  LIG1        0.0276
     59 H          -1.6105    2.5606   -3.2949 H       1  LIG1        0.0276
     60 H           2.8922    3.9225   -4.7813 H       1  LIG1        0.0268
     61 H           3.2117    3.9259   -3.0600 H       1  LIG1        0.0268
     62 H           0.6575    3.9237   -4.4202 H       1  LIG1        0.0276
     63 H           1.0288    4.2141   -2.7621 H       1  LIG1        0.0276
     64 H           5.2743    2.4480   -3.2750 H       1  LIG1        0.0233
     65 H           5.0257    2.6233   -5.0209 H       1  LIG1        0.0233
     66 H           5.1912    1.0153   -4.3143 H       1  LIG1        0.0233
     67 H           3.9665   -0.6950   -3.3912 H       1  LIG1        0.0233
     68 H           2.3026   -0.6853   -3.9210 H       1  LIG1        0.0233
     69 H           2.6895   -1.0667   -2.2460 H       1  LIG1        0.0233
     70 H           0.0849    1.3001   -7.4103 H       1  LIG1        0.0661
     71 H           1.5698    0.9560   -6.4690 H       1  LIG1        0.0661
     72 H           1.2408    2.5988   -7.0398 H       1  LIG1        0.0661
     73 H          -1.6559    2.2277    0.7520 H       1  LIG1        0.0238
     74 H          -0.2003    2.9458    0.0743 H       1  LIG1        0.0238
     75 H          -0.0613    1.8915    1.4290 H       1  LIG1        0.0238
     76 H          -0.9651   -2.7254   -0.3262 H       1  LIG1        0.0235
     77 H           0.2637   -1.8270   -1.2086 H       1  LIG1        0.0235
     78 H          -1.4464   -1.6564   -1.6236 H       1  LIG1        0.0235
     79 H          -1.2726    0.4238    4.4485 H       1  LIG1        0.0235
     80 H          -1.8089    0.8478    2.8543 H       1  LIG1        0.0235
     81 H          -0.1364    1.1115    3.3579 H       1  LIG1        0.0235
     82 H          -0.2226   -4.1050    3.9248 H       1  LIG1        0.2098
     83 H          -3.6616   -1.9627    5.8708 H       1  LIG1        0.0563
     84 H          -2.6887   -0.6354    5.3228 H       1  LIG1        0.0563
     85 H          -5.0011   -1.7156    4.1373 H       1  LIG1        0.2094
@<TRIPOS>BOND
     1     2     3    1
     2     3     5    1
     3     5     6    1
     4     6     7    1
     5     7     8    1
     6     8     9    1
     7     9    10    1
     8    10    11    1
     9    11    12    1
    10    12    14    1
    11    14    15    1
    12    15    16    2
    13    16    17    1
    14    17    18    1
    15    18    19    1
    16    19    20    1
    17    20    21    1
    18    16    21    1
    19    21    23    1
    20    23    25    1
    21    25    27    1
    22    27    28    1
    23    28    20    1
    24    31    32    1
    25    32    33    1
    26    31    34    2
    27    11    17    1
    28    12     7    1
    29     8     2    1
    30    39    40    1
    31     3     4    1
    32     3    38    1
    33     7    37    1
    34    11    36    1
    35    12    13    1
    36    17    35    1
    37    20    31    1
    38    21    22    1
    39     2    39    1
    40     2     1    1
    41    23    30    1
    42    23    24    1
    43    25    29    1
    44    25    26    1
    45     1    41    1
    46     1    42    1
    47     1    43    1
    48     5    44    1
    49     5    45    1
    50     6    46    1
    51     6    47    1
    52     8    48    1
    53     9    49    1
    54     9    50    1
    55    10    51    1
    56    10    52    1
    57    14    53    1
    58    14    54    1
    59    15    55    1
    60    18    56    1
    61    18    57    1
    62    19    58    1
    63    19    59    1
    64    27    60    1
    65    27    61    1
    66    28    62    1
    67    28    63    1
    68    29    64    1
    69    29    65    1
    70    29    66    1
    71    30    67    1
    72    30    68    1
    73    30    69    1
    74    33    70    1
    75    33    71    1
    76    33    72    1
    77    35    73    1
    78    35    74    1
    79    35    75    1
    80    36    76    1
    81    36    77    1
    82    36    78    1
    83    37    79    1
    84    37    80    1
    85    37    81    1
    86    38    82    1
    87    39    83    1
    88    39    84    1
    89    40    85    1
