REMARK  Name = NuBBE_1772
REMARK  6 active torsions:
REMARK  status: ('A' for Active; 'I' for Inactive)
REMARK    1  A    between atoms: C_2  and  C_3
REMARK    2  A    between atoms: C_3  and  C_5
REMARK    3  A    between atoms: C_10  and  O_16
REMARK    4  A    between atoms: C_11  and  O_15
REMARK    5  A    between atoms: C_17  and  O_22
REMARK    6  A    between atoms: C_19  and  O_21
REMARK                            x       y       z     vdW  Elec       q    Type
REMARK                         _______ _______ _______ _____ _____    ______ ____
ROOT
ATOM      1  C   LIG A   1      -0.224  -0.527   0.308  0.00  0.00    +0.169 C 
ATOM      2  C   LIG A   1      -1.522  -0.562   0.659  0.00  0.00    +0.058 C 
ATOM      3  C   LIG A   1      -2.304   0.669   0.680  0.00  0.00    -0.011 A 
ATOM      4  C   LIG A   1      -3.701   0.652   0.788  0.00  0.00    +0.012 A 
ATOM      5  C   LIG A   1      -4.422   1.850   0.795  0.00  0.00    +0.050 A 
ATOM      6  C   LIG A   1      -3.733   3.054   0.710  0.00  0.00    +0.159 A 
ATOM      7  C   LIG A   1      -2.341   3.070   0.612  0.00  0.00    +0.165 A 
ATOM      8  C   LIG A   1      -1.616   1.883   0.577  0.00  0.00    +0.042 A 
ATOM      9  C   LIG A   1      -0.118   1.856   0.514  0.00  0.00    +0.269 C 
ATOM     10  O   LIG A   1       0.442   0.639  -0.016  0.00  0.00    -0.483 OA
ENDROOT
BRANCH   1  11
ATOM     11  C   LIG A   1       0.471  -1.854   0.161  0.00  0.00    +0.231 C 
ATOM     12  O   LIG A   1      -0.126  -2.916   0.343  0.00  0.00    -0.283 OA
BRANCH  11  14
ATOM     13  C   LIG A   1       2.843  -0.963   0.008  0.00  0.00    +0.019 A 
ATOM     14  C   LIG A   1       1.881  -1.932  -0.308  0.00  0.00    +0.067 A 
ATOM     15  C   LIG A   1       2.274  -3.042  -1.079  0.00  0.00    +0.131 A 
ATOM     16  C   LIG A   1       3.571  -3.152  -1.579  0.00  0.00    +0.091 A 
ATOM     17  C   LIG A   1       4.496  -2.159  -1.284  0.00  0.00    +0.120 A 
ATOM     18  C   LIG A   1       4.146  -1.075  -0.487  0.00  0.00    +0.046 A 
BRANCH  17  19
ATOM     19  O   LIG A   1       5.775  -2.218  -1.750  0.00  0.00    -0.507 OA
ATOM     20  H   LIG A   1       5.867  -3.015  -2.300  0.00  0.00    +0.292 HD
ENDBRANCH  17  19
BRANCH  15  21
ATOM     21  O   LIG A   1       1.427  -4.078  -1.384  0.00  0.00    -0.506 OA
ATOM     22  H   LIG A   1       0.633  -3.991  -0.809  0.00  0.00    +0.292 HD
ENDBRANCH  15  21
ENDBRANCH  11  14
ENDBRANCH   1  11
BRANCH   7  23
ATOM     23  O   LIG A   1      -1.694   4.273   0.556  0.00  0.00    -0.503 OA
ATOM     24  H   LIG A   1      -2.410   4.940   0.588  0.00  0.00    +0.292 HD
ENDBRANCH   7  23
BRANCH   6  25
ATOM     25  O   LIG A   1      -4.380   4.258   0.722  0.00  0.00    -0.503 OA
ATOM     26  H   LIG A   1      -5.337   4.088   0.768  0.00  0.00    +0.292 HD
ENDBRANCH   6  25
TORSDOF 6
