@<TRIPOS>MOLECULE
NuBBE_113
 47 49 0 0 0
SMALL
GASTEIGER

@<TRIPOS>ATOM
      1 O          -0.7417   -3.1977    2.6464 O.2     1  LIG1       -0.2452
      2 C          -0.9513   -3.3260    1.4499 C.2     1  LIG1        0.3384
      3 C          -0.2962   -2.4698    0.4371 C.2     1  LIG1        0.0747
      4 C           0.7222   -1.6970    0.8388 C.2     1  LIG1        0.0981
      5 O           1.4560   -0.8684    0.0276 O.2     1  LIG1       -0.4699
      6 C           0.8432   -0.5533   -1.2404 C.3     1  LIG1        0.2102
      7 H           1.6107   -0.0811   -1.8665 H       1  LIG1        0.1062
      8 O          -0.2585    0.3649   -1.1134 O.3     1  LIG1       -0.3093
      9 C           0.1226    1.6434   -0.5731 C.3     1  LIG1        0.1918
     10 H           0.8828    2.0866   -1.2295 H       1  LIG1        0.0939
     11 C          -1.1349    2.5459   -0.5205 C.3     1  LIG1        0.1342
     12 H          -1.9740    1.9833   -0.0928 H       1  LIG1        0.0671
     13 O          -1.5534    2.9507   -1.8361 O.3     1  LIG1       -0.3841
     14 O           0.6435    1.4541    0.7381 O.3     1  LIG1       -0.3404
     15 C           1.0046    2.6406    1.4279 C.3     1  LIG1        0.1130
     16 H           1.7471    3.2091    0.8515 H       1  LIG1        0.0647
     17 C           1.6468    2.2115    2.7526 C.3     1  LIG1        0.0730
     18 O           2.0136    3.3452    3.5335 O.3     1  LIG1       -0.3924
     19 C          -0.2459    3.4914    1.6621 C.3     1  LIG1        0.1119
     20 H          -0.9699    2.9490    2.2830 H       1  LIG1        0.0647
     21 O           0.0329    4.7314    2.3208 O.3     1  LIG1       -0.3865
     22 C          -0.8820    3.8095    0.3098 C.3     1  LIG1        0.1141
     23 H          -0.2510    4.5113   -0.2504 H       1  LIG1        0.0648
     24 O          -2.1280    4.5003    0.5146 O.3     1  LIG1       -0.3864
     25 C           0.3491   -1.8598   -1.9300 C.3     1  LIG1        0.0467
     26 H          -0.1682   -1.5848   -2.8599 H       1  LIG1        0.0410
     27 C           1.5277   -2.7589   -2.2795 C.2     1  LIG1       -0.0816
     28 C           1.8435   -3.1523   -3.5204 C.2     1  LIG1       -0.1022
     29 C          -0.7088   -2.5204   -1.0000 C.3     1  LIG1        0.0088
     30 H          -1.6229   -1.9138   -1.0877 H       1  LIG1        0.0361
     31 C          -1.0826   -3.9547   -1.3556 C.3     1  LIG1       -0.0106
     32 C          -2.1753   -4.3923   -0.3968 C.3     1  LIG1        0.0934
     33 O          -1.7691   -4.3001    0.9800 O.3     1  LIG1       -0.4613
     34 H           1.0979   -1.6579    1.8548 H       1  LIG1        0.1029
     35 H          -2.2703    3.5988   -1.6808 H       1  LIG1        0.2101
     36 H           2.5372    1.6019    2.5605 H       1  LIG1        0.0584
     37 H           0.9507    1.5969    3.3343 H       1  LIG1        0.0584
     38 H           2.4378    2.9944    4.3395 H       1  LIG1        0.2095
     39 H           0.7074    4.5353    3.0097 H       1  LIG1        0.2100
     40 H          -1.9436    5.1374    1.2365 H       1  LIG1        0.2100
     41 H           2.1658   -3.0824   -1.4566 H       1  LIG1        0.0571
     42 H           1.2594   -2.8575   -4.3865 H       1  LIG1        0.0532
     43 H           2.7110   -3.7832   -3.6968 H       1  LIG1        0.0532
     44 H          -0.2207   -4.6245   -1.2426 H       1  LIG1        0.0304
     45 H          -1.4366   -4.0277   -2.3893 H       1  LIG1        0.0304
     46 H          -2.4440   -5.4365   -0.5859 H       1  LIG1        0.0698
     47 H          -3.0847   -3.7928   -0.5178 H       1  LIG1        0.0698
@<TRIPOS>BOND
     1     2     3    1
     2     3     4    2
     3     4     5    1
     4     5     6    1
     5     9    11    1
     6     9    14    1
     7    14    15    1
     8    15    16    1
     9    15    17    1
    10    17    18    1
    11    15    19    1
    12    19    22    1
    13    22    23    1
    14    11    22    1
    15    22    24    1
    16     6    25    1
    17    27    28    2
    18    25    29    1
    19     3    29    1
    20    29    31    1
    21    31    32    1
    22    32    33    1
    23     2    33    1
    24     1     2    2
    25     6     7    1
    26     6     8    1
    27    25    26    1
    28    25    27    1
    29    29    30    1
    30     9    10    1
    31     9     8    1
    32    11    13    1
    33    11    12    1
    34    19    21    1
    35    19    20    1
    36     4    34    1
    37    13    35    1
    38    17    36    1
    39    17    37    1
    40    18    38    1
    41    21    39    1
    42    24    40    1
    43    27    41    1
    44    28    42    1
    45    28    43    1
    46    31    44    1
    47    31    45    1
    48    32    46    1
    49    32    47    1
