@<TRIPOS>MOLECULE
NuBBE_1819
 50 52 0 0 0
SMALL
GASTEIGER

@<TRIPOS>ATOM
      1 O          -3.8646    2.2908    1.6256 O.3     1  LIG1       -0.5066
      2 C          -2.6071    2.1625    1.1165 C.ar    1  LIG1        0.1209
      3 C          -2.1109    0.9374    0.7058 C.ar    1  LIG1        0.0224
      4 C          -0.8272    0.8250    0.1607 C.ar    1  LIG1        0.1387
      5 O          -0.3298   -0.3685   -0.3300 O.3     1  LIG1       -0.4600
      6 C          -0.8182   -1.6243    0.2106 C.3     1  LIG1        0.2308
      7 H          -1.0304   -1.4852    1.2782 H       1  LIG1        0.1084
      8 C          -2.0612   -2.1600   -0.5751 C.3     1  LIG1        0.1454
      9 H          -2.1191   -1.6842   -1.5601 H       1  LIG1        0.0683
     10 O          -3.2809   -1.8258    0.1300 O.3     1  LIG1       -0.3829
     11 C          -2.0629   -3.6949   -0.7162 C.3     1  LIG1        0.1152
     12 H          -3.1085   -4.0239   -0.7828 H       1  LIG1        0.0648
     13 O          -1.4484   -4.1138   -1.9283 O.3     1  LIG1       -0.3864
     14 C          -1.4547   -4.3318    0.5418 C.3     1  LIG1        0.1120
     15 H          -1.4646   -5.4261    0.4827 H       1  LIG1        0.0647
     16 O          -2.2825   -3.9629    1.6674 O.3     1  LIG1       -0.3865
     17 C          -0.0216   -3.8122    0.8051 C.3     1  LIG1        0.1140
     18 H           0.1269   -3.6265    1.8760 H       1  LIG1        0.0647
     19 C           1.0238   -4.8432    0.3526 C.3     1  LIG1        0.0731
     20 O           0.8893   -5.1035   -1.0462 O.3     1  LIG1       -0.3924
     21 O           0.2551   -2.5779    0.1078 O.3     1  LIG1       -0.3313
     22 C           0.0096    1.9900    0.0500 C.ar    1  LIG1        0.0662
     23 C           1.3595    2.0431   -0.4356 C.ar    1  LIG1        0.1387
     24 O           1.9461    0.8781   -0.8774 O.3     1  LIG1       -0.5053
     25 C          -1.8320    3.2951    1.0193 C.ar    1  LIG1       -0.0121
     26 C          -0.5366    3.2181    0.5053 C.ar    1  LIG1       -0.0071
     27 C           0.2075    4.3954    0.4707 C.ar    1  LIG1       -0.0500
     28 C           1.5346    4.4307    0.0204 C.ar    1  LIG1       -0.0359
     29 C           2.2145    5.7767    0.0537 C.3     1  LIG1       -0.0389
     30 C           2.1330    3.2279   -0.4274 C.ar    1  LIG1        0.0621
     31 C           3.5885    3.2344   -0.8111 C.2     1  LIG1        0.1639
     32 C           4.1180    2.2871   -1.8621 C.3     1  LIG1       -0.0013
     33 O           4.3722    4.0313   -0.2585 O.2     1  LIG1       -0.2922
     34 H          -4.3423    1.4524    1.5064 H       1  LIG1        0.2921
     35 H          -2.7612    0.0927    0.8208 H       1  LIG1        0.0691
     36 H          -3.2224   -2.2730    1.0000 H       1  LIG1        0.2102
     37 H          -0.5212   -4.3727   -1.7434 H       1  LIG1        0.2100
     38 H          -3.0368   -4.5851    1.6725 H       1  LIG1        0.2100
     39 H           2.0404   -4.4819    0.5394 H       1  LIG1        0.0584
     40 H           0.8912   -5.7911    0.8858 H       1  LIG1        0.0584
     41 H           1.6827   -4.7296   -1.4762 H       1  LIG1        0.2095
     42 H           1.2901    0.1571   -0.8061 H       1  LIG1        0.2922
     43 H          -2.2483    4.2403    1.3602 H       1  LIG1        0.0660
     44 H          -0.2500    5.3192    0.8279 H       1  LIG1        0.0626
     45 H           1.5372    6.5516    0.4367 H       1  LIG1        0.0278
     46 H           2.5074    6.0862   -0.9536 H       1  LIG1        0.0278
     47 H           3.0755    5.7768    0.7265 H       1  LIG1        0.0278
     48 H           4.1449    1.2616   -1.4947 H       1  LIG1        0.0309
     49 H           5.1550    2.5616   -2.0889 H       1  LIG1        0.0309
     50 H           3.5407    2.3751   -2.7831 H       1  LIG1        0.0309
@<TRIPOS>BOND
     1     1     2    1
     2     2     3   ar
     3     3     4   ar
     4     4     5    1
     5     5     6    1
     6     6     7    1
     7     6     8    1
     8     8    11    1
     9    11    14    1
    10    14    15    1
    11    14    16    1
    12    14    17    1
    13    19    20    1
    14    17    21    1
    15     6    21    1
    16     4    22   ar
    17    22    23   ar
    18    23    24    1
    19     2    25   ar
    20    25    26   ar
    21    22    26   ar
    22    26    27   ar
    23    27    28   ar
    24    28    29    1
    25    28    30   ar
    26    23    30   ar
    27    30    31    1
    28    31    32    1
    29    31    33    2
    30    11    13    1
    31    11    12    1
    32     8    10    1
    33     8     9    1
    34    17    19    1
    35    17    18    1
    36     1    34    1
    37     3    35    1
    38    10    36    1
    39    13    37    1
    40    16    38    1
    41    19    39    1
    42    19    40    1
    43    20    41    1
    44    24    42    1
    45    25    43    1
    46    27    44    1
    47    29    45    1
    48    29    46    1
    49    29    47    1
    50    32    48    1
    51    32    49    1
    52    32    50    1
