@<TRIPOS>MOLECULE
NuBBE_1034
 81 85 0 0 0
SMALL
GASTEIGER

@<TRIPOS>ATOM
      1 O          -3.4400    0.1480   -6.0593 O.3     1  LIG1       -0.3912
      2 C          -2.2920    0.2464   -5.2168 C.3     1  LIG1        0.0606
      3 C          -1.9157   -1.1506   -4.7377 C.3     1  LIG1       -0.0258
      4 C          -0.7223   -1.1352   -3.7845 C.3     1  LIG1       -0.0447
      5 C          -0.8973   -0.1972   -2.5412 C.3     1  LIG1       -0.0250
      6 C          -1.3099    1.2177   -3.0859 C.3     1  LIG1       -0.0278
      7 H          -0.4674    1.5383   -3.7223 H       1  LIG1        0.0312
      8 C          -2.5469    1.2551   -4.0596 C.3     1  LIG1       -0.0056
      9 C          -2.6686    2.6643   -4.7047 C.3     1  LIG1       -0.0572
     10 C          -3.8985    0.9870   -3.3669 C.3     1  LIG1       -0.0572
     11 C          -1.3562    2.2419   -1.9419 C.3     1  LIG1       -0.0486
     12 C           0.0300    2.4446   -1.3301 C.3     1  LIG1       -0.0463
     13 C           0.7676    1.1680   -0.8293 C.3     1  LIG1       -0.0194
     14 C           0.5139   -0.0450   -1.8156 C.3     1  LIG1       -0.0257
     15 C           1.1144   -1.3562   -1.2732 C.3     1  LIG1       -0.0306
     16 C           1.1599   -1.5196    0.2094 C.2     1  LIG1       -0.0836
     17 C           0.9204   -0.5845    1.1459 C.2     1  LIG1       -0.0626
     18 C           0.4857    0.8465    0.7487 C.3     1  LIG1       -0.0051
     19 C           1.2448    1.8739    1.6592 C.3     1  LIG1       -0.0424
     20 C           1.1849    1.5909    3.1638 C.3     1  LIG1       -0.0359
     21 C           1.6895    0.1750    3.5275 C.3     1  LIG1        0.0743
     22 C           0.9637   -0.9024    2.6623 C.3     1  LIG1       -0.0008
     23 C           1.3100   -2.3678    3.1190 C.3     1  LIG1       -0.0337
     24 H           0.6563   -3.0497    2.5572 H       1  LIG1        0.0307
     25 C           0.9960   -2.5792    4.6271 C.3     1  LIG1       -0.0407
     26 C          -0.5125   -2.6784    4.8926 C.3     1  LIG1       -0.0622
     27 C           1.6411   -1.4948    5.5016 C.3     1  LIG1       -0.0492
     28 C           1.3425   -0.0743    5.0233 C.3     1  LIG1       -0.0364
     29 H           1.4162   -3.5463    4.9363 H       1  LIG1        0.0301
     30 C           2.7519   -2.8343    2.8462 C.3     1  LIG1       -0.0616
     31 H          -0.0979   -0.8134    2.9325 H       1  LIG1        0.0359
     32 C           3.2073    0.1914    3.2998 C.2     1  LIG1        0.3115
     33 O           3.9222    0.5581    4.3825 O.3     1  LIG1       -0.4802
     34 O           3.8010   -0.0097    2.2527 O.2     1  LIG1       -0.2504
     35 C          -1.0145    0.9904    1.1118 C.3     1  LIG1       -0.0553
     36 H           1.1576    0.1793   -2.6821 H       1  LIG1        0.0315
     37 C           2.2994    1.5028   -1.0009 C.3     1  LIG1       -0.0585
     38 C          -1.9505   -0.8491   -1.6201 C.3     1  LIG1       -0.0590
     39 H          -3.2198   -0.4574   -6.7877 H       1  LIG1        0.2098
     40 H          -1.4732    0.6257   -5.8428 H       1  LIG1        0.0599
     41 H          -1.6675   -1.7728   -5.6077 H       1  LIG1        0.0290
     42 H          -2.7829   -1.6455   -4.2876 H       1  LIG1        0.0290
     43 H           0.1599   -0.8235   -4.3594 H       1  LIG1        0.0271
     44 H          -0.5321   -2.1674   -3.4702 H       1  LIG1        0.0271
     45 H          -1.7146    2.9866   -5.1365 H       1  LIG1        0.0236
     46 H          -2.9858    3.4213   -3.9806 H       1  LIG1        0.0236
     47 H          -3.4124    2.6740   -5.5099 H       1  LIG1        0.0236
     48 H          -4.0186   -0.0529   -3.0605 H       1  LIG1        0.0236
     49 H          -4.7370    1.2058   -4.0392 H       1  LIG1        0.0236
     50 H          -4.0307    1.6202   -2.4838 H       1  LIG1        0.0236
     51 H          -2.0890    1.9613   -1.1846 H       1  LIG1        0.0268
     52 H          -1.6779    3.2204   -2.3114 H       1  LIG1        0.0268
     53 H          -0.0347    3.1956   -0.5353 H       1  LIG1        0.0271
     54 H           0.6386    2.9237   -2.1111 H       1  LIG1        0.0271
     55 H           2.1495   -1.4405   -1.6317 H       1  LIG1        0.0310
     56 H           0.5985   -2.2281   -1.6852 H       1  LIG1        0.0310
     57 H           1.4157   -2.5336    0.4986 H       1  LIG1        0.0572
     58 H           0.8546    2.8846    1.4893 H       1  LIG1        0.0274
     59 H           2.3066    1.9172    1.4060 H       1  LIG1        0.0274
     60 H           0.1621    1.7417    3.5274 H       1  LIG1        0.0276
     61 H           1.7911    2.3484    3.6794 H       1  LIG1        0.0276
     62 H          -1.0444   -1.7487    4.6739 H       1  LIG1        0.0233
     63 H          -0.6988   -2.9242    5.9438 H       1  LIG1        0.0233
     64 H          -0.9592   -3.4729    4.2854 H       1  LIG1        0.0233
     65 H           2.7262   -1.6455    5.5312 H       1  LIG1        0.0268
     66 H           1.3007   -1.6025    6.5390 H       1  LIG1        0.0268
     67 H           1.8688    0.6360    5.6733 H       1  LIG1        0.0276
     68 H           0.2751    0.1256    5.1858 H       1  LIG1        0.0276
     69 H           3.4732   -2.4172    3.5531 H       1  LIG1        0.0233
     70 H           3.0984   -2.5919    1.8400 H       1  LIG1        0.0233
     71 H           2.8103   -3.9243    2.9504 H       1  LIG1        0.0233
     72 H           4.8461    0.5626    4.0545 H       1  LIG1        0.2951
     73 H          -1.3966    1.9909    0.8934 H       1  LIG1        0.0238
     74 H          -1.2170    0.8366    2.1758 H       1  LIG1        0.0238
     75 H          -1.6304    0.2546    0.6085 H       1  LIG1        0.0238
     76 H           2.5826    1.5726   -2.0585 H       1  LIG1        0.0235
     77 H           2.9418    0.7435   -0.5441 H       1  LIG1        0.0235
     78 H           2.5526    2.4793   -0.5736 H       1  LIG1        0.0235
     79 H          -2.5919   -0.1172   -1.1291 H       1  LIG1        0.0235
     80 H          -1.4977   -1.4750   -0.8475 H       1  LIG1        0.0235
     81 H          -2.6263   -1.5192   -2.1583 H       1  LIG1        0.0235
@<TRIPOS>BOND
     1     2     3    1
     2     3     4    1
     3     4     5    1
     4     5     6    1
     5     6     8    1
     6     2     8    1
     7     6    11    1
     8    11    12    1
     9    12    13    1
    10    13    14    1
    11    14    15    1
    12    15    16    1
    13    16    17    2
    14    17    18    1
    15    18    19    1
    16    19    20    1
    17    20    21    1
    18    21    22    1
    19    22    23    1
    20    23    25    1
    21    25    27    1
    22    27    28    1
    23    17    22    1
    24    28    21    1
    25    32    33    1
    26    32    34    2
    27    18    13    1
    28    14     5    1
    29     1     2    1
    30     5    38    1
    31     6     7    1
    32     8     9    1
    33     8    10    1
    34    13    37    1
    35    14    36    1
    36    18    35    1
    37    21    32    1
    38    22    31    1
    39    23    24    1
    40    23    30    1
    41    25    26    1
    42    25    29    1
    43     1    39    1
    44     2    40    1
    45     3    41    1
    46     3    42    1
    47     4    43    1
    48     4    44    1
    49     9    45    1
    50     9    46    1
    51     9    47    1
    52    10    48    1
    53    10    49    1
    54    10    50    1
    55    11    51    1
    56    11    52    1
    57    12    53    1
    58    12    54    1
    59    15    55    1
    60    15    56    1
    61    16    57    1
    62    19    58    1
    63    19    59    1
    64    20    60    1
    65    20    61    1
    66    26    62    1
    67    26    63    1
    68    26    64    1
    69    27    65    1
    70    27    66    1
    71    28    67    1
    72    28    68    1
    73    30    69    1
    74    30    70    1
    75    30    71    1
    76    33    72    1
    77    35    73    1
    78    35    74    1
    79    35    75    1
    80    37    76    1
    81    37    77    1
    82    37    78    1
    83    38    79    1
    84    38    80    1
    85    38    81    1
