@<TRIPOS>MOLECULE
NuBBE_1719
 61 64 0 0 0
SMALL
GASTEIGER

@<TRIPOS>ATOM
      1 C          -2.4005    0.4003    1.3373 C.3     1  LIG1       -0.0589
      2 C          -0.8700    0.6881    1.1896 C.3     1  LIG1       -0.0217
      3 C          -0.5119    1.0030   -0.3192 C.3     1  LIG1       -0.0220
      4 H           0.5563    1.2311   -0.3793 H       1  LIG1        0.0314
      5 C          -0.7492   -0.2431   -1.2555 C.3     1  LIG1        0.0093
      6 H          -1.8279   -0.4467   -1.2153 H       1  LIG1        0.0341
      7 C          -0.4591    0.0166   -2.7933 C.3     1  LIG1        0.0901
      8 H          -1.0368   -0.7205   -3.3695 H       1  LIG1        0.0467
      9 C           1.0013   -0.1693   -3.2142 C.2     1  LIG1        0.3148
     10 O           1.4451   -1.2042   -3.7027 O.2     1  LIG1       -0.2502
     11 O           1.7364    0.9419   -2.9244 O.3     1  LIG1       -0.4675
     12 C           3.1464    0.7573   -2.9467 C.3     1  LIG1        0.0817
     13 C          -0.9268    1.3759   -3.2090 C.ar    1  LIG1        0.0076
     14 C          -1.2212    2.3616   -2.3031 C.ar    1  LIG1        0.1091
     15 C          -1.2374    2.2898   -0.8324 C.3     1  LIG1        0.0095
     16 O          -1.5194    3.5292   -2.9192 O.2     1  LIG1       -0.4675
     17 C          -1.4002    3.2920   -4.2539 C.ar    1  LIG1        0.0924
     18 C          -1.0544    1.9779   -4.4861 C.ar    1  LIG1       -0.0197
     19 C          -0.0433   -1.5153   -0.7296 C.3     1  LIG1        0.0965
     20 H          -0.4438   -2.3559   -1.3101 H       1  LIG1        0.0633
     21 C          -0.2005   -1.8004    0.7800 C.3     1  LIG1        0.1328
     22 H           0.5553   -2.5341    1.0788 H       1  LIG1        0.0763
     23 C          -0.0604   -0.5624    1.7236 C.3     1  LIG1        0.0094
     24 H          -0.6021   -0.8504    2.6402 H       1  LIG1        0.0348
     25 C           1.4119   -0.2813    2.2721 C.3     1  LIG1       -0.0281
     26 C           1.8329   -1.4304    3.2296 C.3     1  LIG1       -0.0594
     27 C           2.5292   -0.1824    1.2188 C.3     1  LIG1       -0.0594
     28 C           1.4414    1.0163    3.1169 C.3     1  LIG1       -0.0475
     29 C           0.8304    2.2033    2.3953 C.3     1  LIG1       -0.0520
     30 C          -0.6302    1.9138    2.1169 C.3     1  LIG1       -0.0469
     31 O          -1.5018   -2.3938    1.0198 O.3     1  LIG1       -0.4586
     32 C          -1.5989   -3.7352    0.7981 C.2     1  LIG1        0.3043
     33 O          -0.7200   -4.4404    0.3455 O.2     1  LIG1       -0.2512
     34 C          -2.9778   -4.2126    1.1523 C.3     1  LIG1        0.0332
     35 O           1.3455   -1.4536   -1.0084 O.3     1  LIG1       -0.3878
     36 H          -2.7739   -0.3541    0.6438 H       1  LIG1        0.0235
     37 H          -3.0022    1.3018    1.1823 H       1  LIG1        0.0235
     38 H          -2.6361    0.0502    2.3499 H       1  LIG1        0.0235
     39 H           3.4988    0.3937   -3.9162 H       1  LIG1        0.0661
     40 H           3.4301    0.0726   -2.1432 H       1  LIG1        0.0661
     41 H           3.6069    1.7287   -2.7470 H       1  LIG1        0.0661
     42 H          -2.2835    2.3152   -0.5175 H       1  LIG1        0.0346
     43 H          -0.7457    3.1794   -0.4229 H       1  LIG1        0.0346
     44 H          -1.5739    4.1451   -4.8945 H       1  LIG1        0.1029
     45 H          -0.8692    1.5320   -5.4535 H       1  LIG1        0.0652
     46 H           1.0974   -1.5755    4.0283 H       1  LIG1        0.0235
     47 H           2.7952   -1.2086    3.7071 H       1  LIG1        0.0235
     48 H           1.9502   -2.3834    2.7047 H       1  LIG1        0.0235
     49 H           2.3003    0.5153    0.4143 H       1  LIG1        0.0235
     50 H           2.7669   -1.1603    0.7925 H       1  LIG1        0.0235
     51 H           3.4649    0.1681    1.6726 H       1  LIG1        0.0235
     52 H           2.4703    1.2660    3.4068 H       1  LIG1        0.0271
     53 H           0.8979    0.8569    4.0583 H       1  LIG1        0.0271
     54 H           0.9052    3.0892    3.0371 H       1  LIG1        0.0266
     55 H           1.3720    2.4373    1.4737 H       1  LIG1        0.0266
     56 H          -1.1102    2.8151    1.7216 H       1  LIG1        0.0271
     57 H          -1.1242    1.7350    3.0834 H       1  LIG1        0.0271
     58 H          -3.6722   -3.9661    0.3465 H       1  LIG1        0.0342
     59 H          -3.3045   -3.7559    2.0903 H       1  LIG1        0.0342
     60 H          -2.9550   -5.2963    1.2980 H       1  LIG1        0.0342
     61 H           1.6559   -2.3675   -1.1596 H       1  LIG1        0.2099
@<TRIPOS>BOND
     1     2     3    1
     2     3     5    1
     3     5     7    1
     4     9    10    2
     5     9    11    1
     6    11    12    1
     7     7    13    1
     8    13    14   ar
     9    14    15    1
    10     3    15    1
    11    14    16   ar
    12    16    17   ar
    13    17    18   ar
    14    13    18   ar
    15     5    19    1
    16    19    21    1
    17    21    23    1
    18     2    23    1
    19    23    25    1
    20    25    28    1
    21    28    29    1
    22    29    30    1
    23     2    30    1
    24    31    32    1
    25    32    33    2
    26    32    34    1
    27     1     2    1
    28     3     4    1
    29     5     6    1
    30    21    22    1
    31    21    31    1
    32    23    24    1
    33    25    26    1
    34    25    27    1
    35     7     9    1
    36     7     8    1
    37    19    35    1
    38    19    20    1
    39     1    36    1
    40     1    37    1
    41     1    38    1
    42    12    39    1
    43    12    40    1
    44    12    41    1
    45    15    42    1
    46    15    43    1
    47    17    44    1
    48    18    45    1
    49    26    46    1
    50    26    47    1
    51    26    48    1
    52    27    49    1
    53    27    50    1
    54    27    51    1
    55    28    52    1
    56    28    53    1
    57    29    54    1
    58    29    55    1
    59    30    56    1
    60    30    57    1
    61    34    58    1
    62    34    59    1
    63    34    60    1
    64    35    61    1
