REMARK  Name = NuBBE_2213
REMARK  4 active torsions:
REMARK  status: ('A' for Active; 'I' for Inactive)
REMARK    1  A    between atoms: C_1  and  O_3
REMARK    2  A    between atoms: C_1  and  C_4
REMARK    3  A    between atoms: C_10  and  C_13
REMARK    4  A    between atoms: C_14  and  O_17
REMARK                            x       y       z     vdW  Elec       q    Type
REMARK                         _______ _______ _______ _____ _____    ______ ____
ROOT
ATOM      1  C   LIG A   1      -1.064  -1.242  -0.282  0.00  0.00    +0.063 A 
ATOM      2  C   LIG A   1      -0.323  -0.047  -0.271  0.00  0.00    -0.012 A 
ATOM      3  C   LIG A   1       1.076  -0.121  -0.396  0.00  0.00    +0.104 A 
ATOM      4  C   LIG A   1       1.892   1.119  -0.446  0.00  0.00    +0.343 C 
ATOM      5  O   LIG A   1       3.078   1.062  -0.753  0.00  0.00    -0.245 OA
ATOM      6  O   LIG A   1       1.275   2.291  -0.164  0.00  0.00    -0.458 OA
ATOM      7  C   LIG A   1      -0.025   2.313   0.458  0.00  0.00    +0.178 C 
ATOM      8  C   LIG A   1      -0.963   1.313  -0.211  0.00  0.00    +0.081 C 
ATOM      9  C   LIG A   1       0.118   2.118   1.966  0.00  0.00    +0.052 C 
ATOM     10  C   LIG A   1       1.706  -1.372  -0.509  0.00  0.00    +0.131 A 
ATOM     11  C   LIG A   1       0.961  -2.548  -0.484  0.00  0.00    +0.047 A 
ATOM     12  C   LIG A   1      -0.425  -2.487  -0.371  0.00  0.00    +0.019 A 
ENDROOT
BRANCH   1  13
ATOM     13  C   LIG A   1      -2.538  -1.233  -0.184  0.00  0.00    +0.337 C 
ATOM     14  O   LIG A   1      -3.145  -0.773   0.765  0.00  0.00    -0.245 OA
BRANCH  13  15
ATOM     15  O   LIG A   1      -3.117  -1.759  -1.282  0.00  0.00    -0.477 OA
ATOM     16  H   LIG A   1      -2.497  -2.026  -1.988  0.00  0.00    +0.295 HD
ENDBRANCH  13  15
ENDBRANCH   1  13
BRANCH  10  17
ATOM     17  O   LIG A   1       3.058  -1.527  -0.652  0.00  0.00    -0.506 OA
ATOM     18  H   LIG A   1       3.475  -0.639  -0.735  0.00  0.00    +0.292 HD
ENDBRANCH  10  17
TORSDOF 3
