REMARK  Name = NuBBE_1360
REMARK  3 active torsions:
REMARK  status: ('A' for Active; 'I' for Inactive)
REMARK    1  A    between atoms: C_2  and  C_3
REMARK    2  A    between atoms: C_8  and  C_9
REMARK    3  A    between atoms: C_15  and  O_17
REMARK                            x       y       z     vdW  Elec       q    Type
REMARK                         _______ _______ _______ _____ _____    ______ ____
ROOT
ATOM      1  C   LIG A   1      -0.757   0.036  -1.442  0.00  0.00    +0.089 C 
ATOM      2  C   LIG A   1      -1.791   0.492  -0.346  0.00  0.00    +0.028 C 
ATOM      3  C   LIG A   1      -1.190   0.731   1.073  0.00  0.00    +0.064 C 
ATOM      4  C   LIG A   1      -2.115   1.541   1.997  0.00  0.00    +0.050 C 
ATOM      5  C   LIG A   1      -1.333   2.037   3.220  0.00  0.00    +0.117 C 
ATOM      6  C   LIG A   1      -0.123   1.157   3.552  0.00  0.00    +0.046 C 
ATOM      7  C   LIG A   1      -0.395  -0.299   3.179  0.00  0.00    +0.087 C 
ATOM      8  N   LIG A   1      -0.737  -0.496   1.757  0.00  0.00    -0.299 NA
ATOM      9  C   LIG A   1      -1.665  -1.631   1.618  0.00  0.00    +0.089 C 
ATOM     10  C   LIG A   1      -2.901  -0.554  -0.262  0.00  0.00    +0.013 C 
ATOM     11  C   LIG A   1      -2.248  -1.851   0.208  0.00  0.00    +0.021 C 
ATOM     12  C   LIG A   1      -1.251  -2.324  -0.877  0.00  0.00    +0.062 C 
ATOM     13  N   LIG A   1      -0.218  -1.332  -1.241  0.00  0.00    -0.292 NA
ATOM     14  C   LIG A   1       0.537  -1.806  -2.420  0.00  0.00    +0.085 C 
ATOM     15  C   LIG A   1       1.252  -3.123  -2.120  0.00  0.00    +0.015 C 
ATOM     16  C   LIG A   1       0.278  -4.189  -1.637  0.00  0.00    +0.003 C 
ATOM     17  C   LIG A   1      -0.574  -3.652  -0.490  0.00  0.00    +0.019 C 
ENDROOT
BRANCH   1  25
ATOM     18  O   LIG A   1       4.435   2.863  -0.016  0.00  0.00    -0.276 OA
ATOM     19  C   LIG A   1       3.612   1.946  -0.041  0.00  0.00    +0.216 C 
ATOM     20  C   LIG A   1       3.768   0.772   0.899  0.00  0.00    +0.110 C 
ATOM     21  N   LIG A   1       2.507   1.943  -0.901  0.00  0.00    -0.278 N 
ATOM     22  C   LIG A   1       2.337   3.109  -1.771  0.00  0.00    +0.113 C 
ATOM     23  C   LIG A   1       1.474   2.812  -2.991  0.00  0.00    +0.024 C 
ATOM     24  C   LIG A   1       0.148   2.184  -2.575  0.00  0.00    +0.035 C 
ATOM     25  C   LIG A   1       0.363   1.075  -1.579  0.00  0.00    -0.038 C 
ATOM     26  C   LIG A   1       1.497   0.999  -0.856  0.00  0.00    +0.078 C 
ENDBRANCH   1  25
BRANCH   5  27
ATOM     27  O   LIG A   1      -2.225   2.095   4.333  0.00  0.00    -0.392 OA
ATOM     28  H   LIG A   1      -1.740   2.495   5.076  0.00  0.00    +0.210 HD
ENDBRANCH   5  27
TORSDOF 2
