@<TRIPOS>MOLECULE
NuBBE_1730
 90 94 0 0 0
SMALL
GASTEIGER

@<TRIPOS>ATOM
      1 C          -1.5333   -0.1599    0.0135 C.3     1  LIG1       -0.0588
      2 C          -0.3833   -0.6351   -0.9305 C.3     1  LIG1       -0.0231
      3 C           0.7776   -1.3467   -0.1436 C.3     1  LIG1       -0.0294
      4 H           1.4723   -1.6963   -0.9223 H       1  LIG1        0.0312
      5 C           0.3922   -2.7030    0.5896 C.3     1  LIG1       -0.0252
      6 C          -0.5231   -2.4307    1.8049 C.3     1  LIG1       -0.0590
      7 C          -0.2371   -3.6687   -0.4855 C.3     1  LIG1       -0.0268
      8 H           0.5532   -3.8069   -1.2426 H       1  LIG1        0.0312
      9 C          -1.3989   -3.0017   -1.2531 C.3     1  LIG1       -0.0486
     10 C          -0.9888   -1.6781   -1.9113 C.3     1  LIG1       -0.0466
     11 C          -0.5565   -5.1255    0.0165 C.3     1  LIG1        0.0055
     12 C          -1.8784   -5.2187    0.8180 C.3     1  LIG1       -0.0562
     13 C          -0.7686   -6.0582   -1.2153 C.3     1  LIG1       -0.0562
     14 C           0.6615   -5.7259    0.7998 C.3     1  LIG1        0.1084
     15 H           1.3901   -6.0959    0.0661 H       1  LIG1        0.0739
     16 C           1.4223   -4.7743    1.7194 C.3     1  LIG1       -0.0146
     17 C           1.6844   -3.4036    1.1019 C.3     1  LIG1       -0.0437
     18 O           0.1670   -6.8056    1.6219 O.3     1  LIG1       -0.4610
     19 C           0.6638   -8.0531    1.4237 C.2     1  LIG1        0.3042
     20 O           1.6599   -8.3324    0.7859 O.2     1  LIG1       -0.2512
     21 C          -0.2222   -9.0515    2.1071 C.3     1  LIG1        0.0332
     22 C           1.6404   -0.3653    0.6908 C.3     1  LIG1       -0.0489
     23 C           1.2501    1.1109    0.6355 C.3     1  LIG1       -0.0491
     24 C           0.9064    1.6484   -0.7563 C.3     1  LIG1       -0.0297
     25 H           1.8599    1.9567   -1.2019 H       1  LIG1        0.0310
     26 C           0.2396    0.6088   -1.7226 C.3     1  LIG1       -0.0232
     27 C           1.3383    0.1953   -2.7484 C.3     1  LIG1       -0.0588
     28 C          -0.8201    1.4196   -2.5248 C.3     1  LIG1       -0.0465
     29 C          -0.5895    2.8863   -2.1810 C.3     1  LIG1       -0.0468
     30 C          -0.0323    2.8823   -0.7514 C.3     1  LIG1       -0.0088
     31 H          -0.8845    2.6826   -0.0863 H       1  LIG1        0.0331
     32 C           0.5821    4.2455   -0.3167 C.3     1  LIG1        0.0704
     33 C           1.7583    4.6951   -1.2001 C.3     1  LIG1       -0.0355
     34 O          -0.4360    5.2742   -0.4483 O.3     1  LIG1       -0.3673
     35 C          -0.5003    6.0596    0.7689 C.3     1  LIG1        0.0876
     36 H          -1.3871    5.7157    1.3170 H       1  LIG1        0.0625
     37 C           0.7497    5.7060    1.5604 C.3     1  LIG1       -0.0213
     38 C           0.9768    4.2692    1.1630 C.3     1  LIG1       -0.0213
     39 C          -0.6477    7.5640    0.4304 C.3     1  LIG1        0.0865
     40 C          -1.9275    7.8314   -0.3676 C.3     1  LIG1       -0.0339
     41 C          -0.6288    8.4329    1.6896 C.3     1  LIG1       -0.0339
     42 O           0.4540    7.9734   -0.3929 O.3     1  LIG1       -0.3866
     43 H          -2.3090   -0.9156    0.1496 H       1  LIG1        0.0235
     44 H          -2.0762    0.7080   -0.3618 H       1  LIG1        0.0235
     45 H          -1.1874    0.1074    1.0115 H       1  LIG1        0.0235
     46 H          -0.2101   -1.5418    2.3602 H       1  LIG1        0.0235
     47 H          -0.5168   -3.2365    2.5399 H       1  LIG1        0.0235
     48 H          -1.5680   -2.3007    1.5250 H       1  LIG1        0.0235
     49 H          -2.2638   -2.8518   -0.6030 H       1  LIG1        0.0268
     50 H          -1.7445   -3.6586   -2.0581 H       1  LIG1        0.0268
     51 H          -1.8593   -1.2558   -2.4272 H       1  LIG1        0.0271
     52 H          -0.2665   -1.9344   -2.6929 H       1  LIG1        0.0271
     53 H          -2.1267   -6.2580    1.0650 H       1  LIG1        0.0236
     54 H          -2.7292   -4.8456    0.2388 H       1  LIG1        0.0236
     55 H          -1.8468   -4.6757    1.7612 H       1  LIG1        0.0236
     56 H          -1.6465   -5.7764   -1.8038 H       1  LIG1        0.0236
     57 H          -0.9200   -7.0986   -0.9044 H       1  LIG1        0.0236
     58 H           0.1014   -6.0389   -1.8816 H       1  LIG1        0.0236
     59 H           2.3878   -5.2348    1.9712 H       1  LIG1        0.0301
     60 H           0.9163   -4.6849    2.6862 H       1  LIG1        0.0301
     61 H           2.3925   -3.5240    0.2706 H       1  LIG1        0.0272
     62 H           2.1960   -2.7877    1.8496 H       1  LIG1        0.0272
     63 H          -1.2469   -8.6674    2.1591 H       1  LIG1        0.0342
     64 H           0.1451   -9.2559    3.1131 H       1  LIG1        0.0342
     65 H          -0.2518   -9.9673    1.5119 H       1  LIG1        0.0342
     66 H           2.6773   -0.4501    0.3362 H       1  LIG1        0.0268
     67 H           1.6799   -0.6552    1.7452 H       1  LIG1        0.0268
     68 H           2.0895    1.6879    1.0421 H       1  LIG1        0.0268
     69 H           0.4292    1.2913    1.3356 H       1  LIG1        0.0268
     70 H           2.2100   -0.2591   -2.2695 H       1  LIG1        0.0235
     71 H           1.7106    1.0747   -3.2904 H       1  LIG1        0.0235
     72 H           0.9632   -0.4919   -3.5107 H       1  LIG1        0.0235
     73 H          -1.8493    1.1433   -2.2847 H       1  LIG1        0.0271
     74 H          -0.7334    1.2673   -3.6075 H       1  LIG1        0.0271
     75 H          -1.5180    3.4618   -2.2570 H       1  LIG1        0.0269
     76 H           0.1226    3.3050   -2.8974 H       1  LIG1        0.0269
     77 H           1.4446    4.8501   -2.2370 H       1  LIG1        0.0257
     78 H           2.5871    3.9833   -1.1824 H       1  LIG1        0.0257
     79 H           2.1536    5.6637   -0.8768 H       1  LIG1        0.0257
     80 H           0.6136    5.8304    2.6388 H       1  LIG1        0.0292
     81 H           1.6086    6.3166    1.2613 H       1  LIG1        0.0292
     82 H           0.3073    3.6377    1.7590 H       1  LIG1        0.0294
     83 H           2.0051    3.9462    1.3476 H       1  LIG1        0.0294
     84 H          -2.8201    7.5357    0.1925 H       1  LIG1        0.0258
     85 H          -1.9205    7.2964   -1.3236 H       1  LIG1        0.0258
     86 H          -2.0125    8.8961   -0.6162 H       1  LIG1        0.0258
     87 H          -1.4378    8.1635    2.3760 H       1  LIG1        0.0258
     88 H          -0.7313    9.4936    1.4325 H       1  LIG1        0.0258
     89 H           0.3248    8.3454    2.2218 H       1  LIG1        0.0258
     90 H           0.4704    7.3411   -1.1370 H       1  LIG1        0.2102
@<TRIPOS>BOND
     1     1     2    1
     2     2     3    1
     3     3     4    1
     4     3     5    1
     5     5     6    1
     6     5     7    1
     7     7     8    1
     8     7     9    1
     9     9    10    1
    10     2    10    1
    11     7    11    1
    12    11    12    1
    13    11    13    1
    14    11    14    1
    15    14    16    1
    16    16    17    1
    17     5    17    1
    18    18    19    1
    19    19    20    2
    20    19    21    1
    21     3    22    1
    22    22    23    1
    23    23    24    1
    24    24    25    1
    25    24    26    1
    26     2    26    1
    27    26    27    1
    28    26    28    1
    29    28    29    1
    30    29    30    1
    31    30    31    1
    32    24    30    1
    33    30    32    1
    34    32    33    1
    35    32    34    1
    36    34    35    1
    37    35    36    1
    38    35    37    1
    39    37    38    1
    40    32    38    1
    41    35    39    1
    42    39    40    1
    43    39    41    1
    44    39    42    1
    45    14    18    1
    46    14    15    1
    47     1    43    1
    48     1    44    1
    49     1    45    1
    50     6    46    1
    51     6    47    1
    52     6    48    1
    53     9    49    1
    54     9    50    1
    55    10    51    1
    56    10    52    1
    57    12    53    1
    58    12    54    1
    59    12    55    1
    60    13    56    1
    61    13    57    1
    62    13    58    1
    63    16    59    1
    64    16    60    1
    65    17    61    1
    66    17    62    1
    67    21    63    1
    68    21    64    1
    69    21    65    1
    70    22    66    1
    71    22    67    1
    72    23    68    1
    73    23    69    1
    74    27    70    1
    75    27    71    1
    76    27    72    1
    77    28    73    1
    78    28    74    1
    79    29    75    1
    80    29    76    1
    81    33    77    1
    82    33    78    1
    83    33    79    1
    84    37    80    1
    85    37    81    1
    86    38    82    1
    87    38    83    1
    88    40    84    1
    89    40    85    1
    90    40    86    1
    91    41    87    1
    92    41    88    1
    93    41    89    1
    94    42    90    1
