@<TRIPOS>MOLECULE
NuBBE_1982
 20 19 0 0 0
SMALL
GASTEIGER

@<TRIPOS>ATOM
      1 S          -1.2331   -0.8138    1.6204 S.3     1  LIG1       -0.0126
      2 S          -0.9319    1.1142    2.2636 S.3     1  LIG1       -0.0126
      3 S           0.2407    2.0294    0.8426 S.3     1  LIG1       -0.0770
      4 C          -0.8189    2.1156   -0.6300 C.3     1  LIG1        0.0226
      5 C          -2.0366    2.9549   -0.4122 C.2     1  LIG1       -0.0805
      6 C          -3.2499    2.4483   -0.1558 C.2     1  LIG1       -0.1018
      7 S           0.5445   -1.8219    1.8648 S.3     1  LIG1       -0.0770
      8 C           1.2703   -1.7388    0.1947 C.3     1  LIG1        0.0226
      9 C           2.5978   -2.4509    0.1447 C.2     1  LIG1       -0.0805
     10 C           2.9063   -3.3945   -0.7460 C.2     1  LIG1       -0.1018
     11 H          -1.0739    1.1020   -0.9570 H       1  LIG1        0.0427
     12 H          -0.2273    2.5587   -1.4383 H       1  LIG1        0.0427
     13 H          -1.9205    4.0307   -0.5183 H       1  LIG1        0.0575
     14 H          -3.4059    1.3783   -0.0427 H       1  LIG1        0.0532
     15 H          -4.1134    3.0948   -0.0231 H       1  LIG1        0.0532
     16 H           1.4252   -0.6943   -0.0881 H       1  LIG1        0.0427
     17 H           0.5753   -2.1952   -0.5167 H       1  LIG1        0.0427
     18 H           3.3628   -2.1318    0.8588 H       1  LIG1        0.0575
     19 H           2.1919   -3.7370   -1.4899 H       1  LIG1        0.0532
     20 H           3.8966   -3.8488   -0.7714 H       1  LIG1        0.0532
@<TRIPOS>BOND
     1     1     2    1
     2     2     3    1
     3     3     4    1
     4     4     5    1
     5     5     6    2
     6     1     7    1
     7     7     8    1
     8     8     9    1
     9     9    10    2
    10     4    11    1
    11     4    12    1
    12     5    13    1
    13     6    14    1
    14     6    15    1
    15     8    16    1
    16     8    17    1
    17     9    18    1
    18    10    19    1
    19    10    20    1
