@<TRIPOS>MOLECULE
NuBBE_237
 76 78 0 0 0
SMALL
GASTEIGER

@<TRIPOS>ATOM
      1 C           1.4539    3.4549    1.7731 C.3     1  LIG1       -0.0618
      2 C           0.2565    2.5410    2.0354 C.3     1  LIG1       -0.0355
      3 H          -0.3734    3.1664    2.6878 H       1  LIG1        0.0304
      4 C           0.6221    1.3317    2.9021 C.3     1  LIG1       -0.0227
      5 H          -0.2943    0.8596    3.2733 H       1  LIG1        0.0293
      6 H           1.1400    1.6829    3.8056 H       1  LIG1        0.0293
      7 C           1.4448    0.2591    2.2019 C.3     1  LIG1        0.0710
      8 H           1.2075   -0.6893    2.7025 H       1  LIG1        0.0604
      9 O           2.8170    0.5144    2.5155 O.3     1  LIG1       -0.3907
     10 C           1.2289    0.0933    0.6586 C.3     1  LIG1        0.0892
     11 C           1.3679   -1.3841    0.3302 C.2     1  LIG1        0.0124
     12 C           2.8295   -1.7442    0.3629 C.3     1  LIG1        0.2315
     13 H           3.1545   -2.0301    1.3679 H       1  LIG1        0.1111
     14 O           3.1615   -2.7476   -0.5954 O.3     1  LIG1       -0.4311
     15 C           2.9352   -4.0254   -0.1663 C.2     1  LIG1        0.3063
     16 C           3.2848   -5.0107   -1.2434 C.3     1  LIG1        0.0333
     17 O           2.4929   -4.3461    0.9107 O.2     1  LIG1       -0.2511
     18 O           3.5061   -0.5273    0.0407 O.3     1  LIG1       -0.2971
     19 C           2.5169    0.5015   -0.1596 C.3     1  LIG1        0.2204
     20 H           2.9293    1.4545    0.1761 H       1  LIG1        0.1068
     21 O           2.2420    0.5996   -1.5689 O.3     1  LIG1       -0.4341
     22 C           3.2664    1.0675   -2.3266 C.2     1  LIG1        0.3061
     23 C           2.8803    1.0318   -3.7704 C.3     1  LIG1        0.0333
     24 O           4.3596    1.4532   -1.9215 O.2     1  LIG1       -0.2511
     25 C           0.3789   -2.2001   -0.0483 C.2     1  LIG1       -0.0381
     26 C          -1.0464   -1.8371   -0.1334 C.3     1  LIG1        0.1220
     27 H          -1.4660   -2.2712   -1.0508 H       1  LIG1        0.0779
     28 O          -1.6699   -2.4515    1.0197 O.3     1  LIG1       -0.4570
     29 C          -2.0667   -3.7481    0.8305 C.2     1  LIG1        0.3102
     30 C          -2.2206   -4.4828    2.1613 C.3     1  LIG1        0.0509
     31 C          -3.6619   -4.3828    2.6368 C.3     1  LIG1       -0.0525
     32 C          -1.7985   -5.9557    2.0399 C.3     1  LIG1       -0.0525
     33 O          -2.2547   -4.2806   -0.2641 O.2     1  LIG1       -0.2505
     34 C          -1.2743   -0.3203   -0.2292 C.3     1  LIG1       -0.0075
     35 C          -0.1295    0.7158    0.1329 C.3     1  LIG1       -0.0138
     36 H           0.1471    1.0603   -0.8712 H       1  LIG1        0.0319
     37 C          -0.6351    2.1038    0.8077 C.3     1  LIG1       -0.0219
     38 C          -2.0639    2.0037    1.4347 C.3     1  LIG1       -0.0587
     39 C          -0.6952    3.2630   -0.2959 C.3     1  LIG1       -0.0283
     40 C          -1.6404    3.0444   -1.4694 C.2     1  LIG1       -0.0806
     41 C          -1.9789    3.8750   -2.4828 C.2     1  LIG1       -0.0549
     42 C          -1.4388    5.2154   -2.6743 C.2     1  LIG1       -0.0662
     43 C          -2.0406    6.1926   -3.3725 C.2     1  LIG1       -0.0985
     44 C          -2.9432    3.4001   -3.5522 C.3     1  LIG1       -0.0400
     45 H           2.1391    3.0722    1.0239 H       1  LIG1        0.0233
     46 H           2.0202    3.6165    2.6990 H       1  LIG1        0.0233
     47 H           1.1180    4.4437    1.4430 H       1  LIG1        0.0233
     48 H           2.9260    0.4849    3.4825 H       1  LIG1        0.2098
     49 H           3.2524   -4.5459   -2.2323 H       1  LIG1        0.0342
     50 H           2.5433   -5.8178   -1.2379 H       1  LIG1        0.0342
     51 H           4.2770   -5.4101   -1.0451 H       1  LIG1        0.0342
     52 H           2.8636    0.0003   -4.1308 H       1  LIG1        0.0342
     53 H           3.6045    1.6065   -4.3550 H       1  LIG1        0.0342
     54 H           1.8991    1.4982   -3.8932 H       1  LIG1        0.0342
     55 H           0.5729   -3.2363   -0.2983 H       1  LIG1        0.0610
     56 H          -1.5526   -4.0143    2.8938 H       1  LIG1        0.0408
     57 H          -4.3451   -4.8813    1.9397 H       1  LIG1        0.0237
     58 H          -3.9704   -3.3358    2.7122 H       1  LIG1        0.0237
     59 H          -3.7837   -4.8476    3.6209 H       1  LIG1        0.0237
     60 H          -2.3888   -6.4894    1.2858 H       1  LIG1        0.0237
     61 H          -1.9269   -6.4812    2.9930 H       1  LIG1        0.0237
     62 H          -0.7450   -6.0417    1.7514 H       1  LIG1        0.0237
     63 H          -2.2300   -0.1084    0.2427 H       1  LIG1        0.0307
     64 H          -1.4547   -0.1440   -1.3034 H       1  LIG1        0.0307
     65 H          -2.0837    1.3455    2.3104 H       1  LIG1        0.0235
     66 H          -2.8353    1.6643    0.7442 H       1  LIG1        0.0235
     67 H          -2.3948    2.9922    1.7786 H       1  LIG1        0.0235
     68 H          -0.9759    4.2004    0.2027 H       1  LIG1        0.0313
     69 H           0.3133    3.3972   -0.7057 H       1  LIG1        0.0313
     70 H          -2.1331    2.0754   -1.4714 H       1  LIG1        0.0575
     71 H          -0.4707    5.4324   -2.2291 H       1  LIG1        0.0614
     72 H          -3.0180    6.0775   -3.8335 H       1  LIG1        0.0535
     73 H          -1.5737    7.1659   -3.4886 H       1  LIG1        0.0535
     74 H          -3.1443    2.3259   -3.4872 H       1  LIG1        0.0277
     75 H          -2.5317    3.5811   -4.5536 H       1  LIG1        0.0277
     76 H          -3.9020    3.9230   -3.4704 H       1  LIG1        0.0277
@<TRIPOS>BOND
     1     2     4    1
     2     4     7    1
     3     7    10    1
     4    10    11    1
     5    11    12    1
     6    14    15    1
     7    15    16    1
     8    15    17    2
     9    12    18    1
    10    18    19    1
    11    10    19    1
    12    21    22    1
    13    22    23    1
    14    22    24    2
    15    11    25    2
    16    25    26    1
    17    28    29    1
    18    29    30    1
    19    30    31    1
    20    30    32    1
    21    29    33    2
    22    26    34    1
    23    34    35    1
    24    10    35    1
    25    35    37    1
    26     2    37    1
    27    39    40    1
    28    40    41    2
    29    41    42    1
    30    42    43    2
    31    41    44    1
    32     4     5    1
    33     4     6    1
    34     7     8    1
    35     7     9    1
    36    12    13    1
    37    12    14    1
    38    19    20    1
    39    19    21    1
    40    26    27    1
    41    26    28    1
    42    35    36    1
    43    37    38    1
    44    37    39    1
    45     2     3    1
    46     2     1    1
    47     1    45    1
    48     1    46    1
    49     1    47    1
    50     9    48    1
    51    16    49    1
    52    16    50    1
    53    16    51    1
    54    23    52    1
    55    23    53    1
    56    23    54    1
    57    25    55    1
    58    30    56    1
    59    31    57    1
    60    31    58    1
    61    31    59    1
    62    32    60    1
    63    32    61    1
    64    32    62    1
    65    34    63    1
    66    34    64    1
    67    38    65    1
    68    38    66    1
    69    38    67    1
    70    39    68    1
    71    39    69    1
    72    40    70    1
    73    42    71    1
    74    43    72    1
    75    43    73    1
    76    44    74    1
    77    44    75    1
    78    44    76    1
