REMARK  Name = NuBBE_384
REMARK  11 active torsions:
REMARK  status: ('A' for Active; 'I' for Inactive)
REMARK    1  A    between atoms: C_3  and  O_4
REMARK    2  A    between atoms: C_5  and  C_6
REMARK    3  A    between atoms: C_12  and  C_13
REMARK    4  A    between atoms: C_15  and  C_28
REMARK    5  A    between atoms: C_17  and  O_19
REMARK    6  A    between atoms: C_20  and  C_21
REMARK    7  A    between atoms: C_20  and  C_22
REMARK    8  A    between atoms: C_22  and  O_23
REMARK    9  A    between atoms: O_23  and  C_24
REMARK   10  A    between atoms: C_31  and  C_32
REMARK   11  A    between atoms: C_35  and  C_36
REMARK                            x       y       z     vdW  Elec       q    Type
REMARK                         _______ _______ _______ _____ _____    ______ ____
ROOT
ATOM      1  O   LIG A   1      -6.863  -1.962   0.173  0.00  0.00    -0.284 OA
ATOM      2  C   LIG A   1      -5.778  -2.274   0.657  0.00  0.00    +0.221 C 
ATOM      3  C   LIG A   1      -5.648  -3.541   1.436  0.00  0.00    +0.167 C 
ATOM      4  C   LIG A   1      -4.446  -3.953   1.882  0.00  0.00    +0.002 C 
ATOM      5  C   LIG A   1      -4.291  -5.208   2.697  0.00  0.00    +0.048 C 
ATOM      6  C   LIG A   1      -3.255  -3.170   1.514  0.00  0.00    -0.014 C 
ATOM      7  C   LIG A   1      -2.005  -3.670   1.617  0.00  0.00    +0.009 C 
ATOM      8  C   LIG A   1      -0.853  -3.011   1.030  0.00  0.00    +0.005 C 
ATOM      9  C   LIG A   1      -0.893  -1.751   0.540  0.00  0.00    -0.034 C 
ATOM     10  C   LIG A   1       0.199  -1.146  -0.290  0.00  0.00    -0.038 C 
ATOM     11  C   LIG A   1       1.278  -1.810  -0.810  0.00  0.00    -0.068 C 
ATOM     12  C   LIG A   1       1.442  -3.311  -0.935  0.00  0.00    +0.039 C 
ATOM     13  C   LIG A   1       2.527  -1.117  -1.385  0.00  0.00    +0.045 C 
ATOM     14  C   LIG A   1       2.573   0.431  -1.429  0.00  0.00    +0.036 C 
ATOM     15  C   LIG A   1       3.933   0.976  -0.959  0.00  0.00    +0.169 C 
ATOM     16  C   LIG A   1       4.056   2.505  -0.812  0.00  0.00    +0.197 C 
ATOM     17  C   LIG A   1       2.934   3.083   0.064  0.00  0.00    +0.098 C 
ATOM     18  C   LIG A   1       3.196   2.794   1.557  0.00  0.00    +0.026 C 
ATOM     19  C   LIG A   1       1.549   2.518  -0.363  0.00  0.00    +0.026 C 
ATOM     20  O   LIG A   1       4.936   0.269  -0.830  0.00  0.00    -0.294 OA
ATOM     21  C   LIG A   1       2.506   0.900  -2.906  0.00  0.00    +0.019 C 
ATOM     22  C   LIG A   1       1.509   0.984  -0.443  0.00  0.00    +0.014 C 
ATOM     23  C   LIG A   1       0.082   0.357  -0.659  0.00  0.00    -0.003 C 
ATOM     24  C   LIG A   1      -0.402   0.447  -2.136  0.00  0.00    +0.016 C 
ATOM     25  C   LIG A   1      -0.960   1.138   0.173  0.00  0.00    +0.013 C 
ATOM     26  C   LIG A   1      -2.283   0.403   0.288  0.00  0.00    +0.017 C 
ATOM     27  C   LIG A   1      -2.114  -0.924   1.042  0.00  0.00    +0.019 C 
ATOM     28  C   LIG A   1      -1.878  -0.546   2.546  0.00  0.00    +0.021 C 
ATOM     29  C   LIG A   1      -3.396  -1.792   1.000  0.00  0.00    -0.026 C 
ATOM     30  C   LIG A   1      -4.601  -1.387   0.559  0.00  0.00    +0.059 C 
ENDROOT
BRANCH   3  31
ATOM     31  O   LIG A   1      -6.812  -4.256   1.658  0.00  0.00    -0.503 OA
ATOM     32  H   LIG A   1      -7.506  -3.757   1.177  0.00  0.00    +0.292 HD
ENDBRANCH   3  31
BRANCH  16  33
ATOM     33  O   LIG A   1       5.345   2.819  -0.283  0.00  0.00    -0.383 OA
ATOM     34  H   LIG A   1       5.926   2.057  -0.488  0.00  0.00    +0.210 HD
ENDBRANCH  16  33
BRANCH  17  35
ATOM     35  C   LIG A   1       2.928   4.609  -0.141  0.00  0.00    +0.316 C 
ATOM     36  O   LIG A   1       3.492   5.421   0.564  0.00  0.00    -0.250 OA
BRANCH  35  37
ATOM     37  O   LIG A   1       2.229   4.916  -1.275  0.00  0.00    -0.468 OA
ATOM     38  C   LIG A   1       2.348   6.244  -1.784  0.00  0.00    +0.280 C 
ENDBRANCH  35  37
ENDBRANCH  17  35
TORSDOF 4
