@<TRIPOS>MOLECULE
NuBBE_1344
 43 45 0 0 0
SMALL
GASTEIGER

@<TRIPOS>ATOM
      1 C          -4.2250    0.4072    2.5510 C.3     1  LIG1        0.0789
      2 O          -2.8280    0.1125    2.5433 O.3     1  LIG1       -0.4930
      3 C          -2.0489    0.8732    1.7041 C.ar    1  LIG1        0.1443
      4 C          -0.8929    0.2951    1.1133 C.ar    1  LIG1        0.1003
      5 C           0.0157    1.1533    0.4564 C.ar    1  LIG1        0.0447
      6 C          -0.2706    2.5246    0.3286 C.ar    1  LIG1       -0.0489
      7 C          -1.4291    3.0665    0.8671 C.ar    1  LIG1       -0.0575
      8 C          -2.3047    2.2478    1.5687 C.ar    1  LIG1       -0.0179
      9 N          -0.5762   -1.1083    1.1417 N.ar    1  LIG1       -0.2700
     10 C          -1.5822   -2.1222    1.4112 C.3     1  LIG1        0.1726
     11 O          -1.6433   -3.0356    0.3000 O.3     1  LIG1       -0.4432
     12 C          -2.5319   -2.7266   -0.6704 C.2     1  LIG1        0.3056
     13 C          -2.3829   -3.6732   -1.8161 C.3     1  LIG1        0.0333
     14 O          -3.3399   -1.8023   -0.6436 O.2     1  LIG1       -0.2511
     15 C           0.6808   -1.5953    0.7865 C.ar    1  LIG1        0.2651
     16 C           1.6114   -0.6596    0.0879 C.ar    1  LIG1        0.0817
     17 C           1.2693    0.6216   -0.0976 C.ar    1  LIG1        0.1432
     18 O           2.0406    1.5329   -0.7897 O.3     1  LIG1       -0.4808
     19 C           3.3027    1.1241   -1.3565 C.3     1  LIG1        0.1235
     20 C           4.3635    2.0172   -0.7089 C.3     1  LIG1       -0.0215
     21 C           3.2160    1.4080   -2.8592 C.3     1  LIG1       -0.0215
     22 C           3.6578   -0.3267   -1.1343 C.2     1  LIG1       -0.0407
     23 C           2.8576   -1.1532   -0.4526 C.2     1  LIG1       -0.0461
     24 O           1.0263   -2.7666    0.9532 O.2     1  LIG1       -0.2668
     25 H          -4.7472   -0.4764    2.9326 H       1  LIG1        0.0660
     26 H          -4.6141    0.6147    1.5479 H       1  LIG1        0.0660
     27 H          -4.4361    1.2353    3.2344 H       1  LIG1        0.0660
     28 H           0.4184    3.1878   -0.1908 H       1  LIG1        0.0625
     29 H          -1.6282    4.1300    0.7661 H       1  LIG1        0.0619
     30 H          -3.1672    2.7121    2.0365 H       1  LIG1        0.0655
     31 H          -2.5829   -1.7401    1.5766 H       1  LIG1        0.0945
     32 H          -1.2952   -2.6948    2.2998 H       1  LIG1        0.0945
     33 H          -2.5034   -4.7023   -1.4675 H       1  LIG1        0.0342
     34 H          -1.4023   -3.5363   -2.2797 H       1  LIG1        0.0342
     35 H          -3.1569   -3.4671   -2.5613 H       1  LIG1        0.0342
     36 H           4.4062    1.8456    0.3737 H       1  LIG1        0.0271
     37 H           4.1123    3.0762   -0.8413 H       1  LIG1        0.0271
     38 H           5.3605    1.8412   -1.1258 H       1  LIG1        0.0271
     39 H           2.4361    0.7955   -3.3283 H       1  LIG1        0.0271
     40 H           4.1638    1.2069   -3.3702 H       1  LIG1        0.0271
     41 H           2.9380    2.4523   -3.0433 H       1  LIG1        0.0271
     42 H           4.5925   -0.6992   -1.5441 H       1  LIG1        0.0611
     43 H           3.1197   -2.1958   -0.2994 H       1  LIG1        0.0624
@<TRIPOS>BOND
     1     1     2    1
     2     2     3    1
     3     3     4   ar
     4     4     5   ar
     5     5     6   ar
     6     6     7   ar
     7     7     8   ar
     8     3     8   ar
     9     4     9   ar
    10     9    10    1
    11    10    11    1
    12    11    12    1
    13    12    13    1
    14    12    14    2
    15     9    15   ar
    16    15    16   ar
    17    16    17   ar
    18     5    17   ar
    19    17    18    1
    20    18    19    1
    21    19    20    1
    22    19    21    1
    23    19    22    1
    24    22    23    2
    25    16    23    1
    26    15    24    2
    27     1    25    1
    28     1    26    1
    29     1    27    1
    30     6    28    1
    31     7    29    1
    32     8    30    1
    33    10    31    1
    34    10    32    1
    35    13    33    1
    36    13    34    1
    37    13    35    1
    38    20    36    1
    39    20    37    1
    40    20    38    1
    41    21    39    1
    42    21    40    1
    43    21    41    1
    44    22    42    1
    45    23    43    1
