@<TRIPOS>MOLECULE
NuBBE_1778
 55 58 0 0 0
SMALL
GASTEIGER

@<TRIPOS>ATOM
      1 O          -1.2217    1.2545    0.5397 O.3     1  LIG1       -0.5057
      2 C           0.1087    1.1352    0.8698 C.ar    1  LIG1        0.1343
      3 C           0.8432    2.3337    0.9080 C.ar    1  LIG1        0.0335
      4 C           0.1881    3.6723    0.6536 C.3     1  LIG1        0.0858
      5 O           0.9695    4.7526    1.1857 O.3     1  LIG1       -0.3613
      6 C           2.3240    4.7599    0.7527 C.3     1  LIG1        0.1190
      7 C           3.0031    5.9613    1.3955 C.3     1  LIG1       -0.0314
      8 C           3.0471    3.4710    1.1314 C.2     1  LIG1        0.1918
      9 O           4.2579    3.3938    1.3010 O.2     1  LIG1       -0.2893
     10 C          -0.1463    3.9224   -0.8162 C.3     1  LIG1       -0.0343
     11 C           2.2062    2.2518    1.1911 C.ar    1  LIG1        0.0297
     12 C           2.8007    1.0251    1.5060 C.ar    1  LIG1       -0.0426
     13 C           2.0529   -0.1609    1.5190 C.ar    1  LIG1       -0.0067
     14 C           2.6811   -1.3637    1.8755 C.ar    1  LIG1       -0.0121
     15 C           1.9632   -2.5498    1.8886 C.ar    1  LIG1        0.1209
     16 O           2.5422   -3.7326    2.2403 O.3     1  LIG1       -0.5066
     17 C           0.6292   -2.5764    1.5205 C.ar    1  LIG1        0.0224
     18 C          -0.0097   -1.3982    1.1270 C.ar    1  LIG1        0.1386
     19 O          -1.2896   -1.3670    0.6230 O.3     1  LIG1       -0.4600
     20 C          -2.0302   -2.5910    0.4772 C.3     1  LIG1        0.2308
     21 H          -2.1625   -3.0268    1.4758 H       1  LIG1        0.1084
     22 C          -3.4370   -2.2549   -0.0664 C.3     1  LIG1        0.1454
     23 H          -3.8521   -1.4250    0.5174 H       1  LIG1        0.0683
     24 O          -4.3248   -3.3710    0.0930 O.3     1  LIG1       -0.3829
     25 C          -3.3598   -1.8399   -1.5450 C.3     1  LIG1        0.1152
     26 H          -4.3803   -1.7595   -1.9414 H       1  LIG1        0.0648
     27 O          -2.7403   -0.5604   -1.6856 O.3     1  LIG1       -0.3864
     28 C          -2.6161   -2.9031   -2.3689 C.3     1  LIG1        0.1120
     29 H          -2.4629   -2.5477   -3.3938 H       1  LIG1        0.0647
     30 O          -3.4732   -4.0638   -2.4399 O.3     1  LIG1       -0.3865
     31 C          -1.2809   -3.3283   -1.7300 C.3     1  LIG1        0.1140
     32 H          -1.0239   -4.3038   -2.1647 H       1  LIG1        0.0647
     33 C          -0.1067   -2.4020   -2.0671 C.3     1  LIG1        0.0731
     34 O           0.1377   -2.4145   -3.4721 O.3     1  LIG1       -0.3924
     35 O          -1.3990   -3.5948   -0.3280 O.3     1  LIG1       -0.3313
     36 C           0.6808   -0.1431    1.1628 C.ar    1  LIG1        0.0659
     37 H          -1.5536    0.3531    0.3584 H       1  LIG1        0.2922
     38 H          -0.7469    3.7097    1.2258 H       1  LIG1        0.0645
     39 H           2.3717    4.8749   -0.3357 H       1  LIG1        0.0676
     40 H           3.0121    5.8680    2.4873 H       1  LIG1        0.0259
     41 H           2.4608    6.8827    1.1573 H       1  LIG1        0.0259
     42 H           4.0377    6.0673    1.0537 H       1  LIG1        0.0259
     43 H           0.7326    3.8119   -1.4596 H       1  LIG1        0.0258
     44 H          -0.5205    4.9430   -0.9524 H       1  LIG1        0.0258
     45 H          -0.9077    3.2259   -1.1803 H       1  LIG1        0.0258
     46 H           3.8647    1.0018    1.7421 H       1  LIG1        0.0631
     47 H           3.7330   -1.3660    2.1491 H       1  LIG1        0.0660
     48 H           3.4634   -3.5723    2.5031 H       1  LIG1        0.2921
     49 H           0.1273   -3.5382    1.5241 H       1  LIG1        0.0691
     50 H          -4.1025   -4.0130   -0.6175 H       1  LIG1        0.2102
     51 H          -3.4303    0.1110   -1.5279 H       1  LIG1        0.2100
     52 H          -3.0847   -4.6516   -3.1158 H       1  LIG1        0.2100
     53 H          -0.2853   -1.3703   -1.7604 H       1  LIG1        0.0584
     54 H           0.8003   -2.7526   -1.5623 H       1  LIG1        0.0584
     55 H           0.9096   -1.8407   -3.6246 H       1  LIG1        0.2095
@<TRIPOS>BOND
     1     1     2    1
     2     2     3   ar
     3     3     4    1
     4     4     5    1
     5     5     6    1
     6     6     7    1
     7     6     8    1
     8     8     9    2
     9     4    10    1
    10     3    11   ar
    11     8    11    1
    12    11    12   ar
    13    12    13   ar
    14    13    14   ar
    15    14    15   ar
    16    15    16    1
    17    15    17   ar
    18    17    18   ar
    19    18    19    1
    20    19    20    1
    21    20    21    1
    22    20    22    1
    23    22    25    1
    24    25    28    1
    25    28    29    1
    26    28    30    1
    27    28    31    1
    28    33    34    1
    29    31    35    1
    30    20    35    1
    31    18    36   ar
    32    13    36   ar
    33     2    36   ar
    34    22    24    1
    35    22    23    1
    36    25    27    1
    37    25    26    1
    38    31    33    1
    39    31    32    1
    40     1    37    1
    41     4    38    1
    42     6    39    1
    43     7    40    1
    44     7    41    1
    45     7    42    1
    46    10    43    1
    47    10    44    1
    48    10    45    1
    49    12    46    1
    50    14    47    1
    51    16    48    1
    52    17    49    1
    53    24    50    1
    54    27    51    1
    55    30    52    1
    56    33    53    1
    57    33    54    1
    58    34    55    1
