@<TRIPOS>MOLECULE
NuBBE_946
 56 59 0 0 0
SMALL
GASTEIGER

@<TRIPOS>ATOM
      1 C          -2.9149    1.1386   -3.9102 C.3     1  LIG1        0.0369
      2 O          -2.4703    0.9303   -2.5764 O.3     1  LIG1       -0.3768
      3 C          -1.2934    1.6622   -2.2512 C.3     1  LIG1        0.0921
      4 H          -1.4726    2.7327   -2.4219 H       1  LIG1        0.0626
      5 C          -0.8531    1.4191   -0.7894 C.3     1  LIG1        0.0996
      6 C          -1.4774    2.4531    0.1479 C.3     1  LIG1       -0.0331
      7 C          -1.1388   -0.0244   -0.3039 C.3     1  LIG1        0.0165
      8 C          -0.0793   -0.6144    0.6555 C.3     1  LIG1        0.1162
      9 H           0.5827    0.1394    1.0944 H       1  LIG1        0.0742
     10 O          -0.7893   -1.2910    1.7451 O.3     1  LIG1       -0.4603
     11 C          -1.2665   -0.5319    2.7694 C.2     1  LIG1        0.3099
     12 C          -1.8041   -1.4187    3.8769 C.3     1  LIG1        0.0508
     13 C          -0.6838   -1.6736    4.8784 C.3     1  LIG1       -0.0525
     14 C          -3.0057   -0.7739    4.5620 C.3     1  LIG1       -0.0525
     15 O          -1.2085    0.6868    2.8220 O.2     1  LIG1       -0.2505
     16 C           0.7346   -1.7401   -0.0192 C.3     1  LIG1        0.0670
     17 H           0.0097   -2.5645   -0.1500 H       1  LIG1        0.0424
     18 C           1.8618   -2.3864    0.7196 C.2     1  LIG1        0.0397
     19 C           2.2948   -2.2656    1.9784 C.2     1  LIG1       -0.0882
     20 C           1.4086   -1.5649   -1.3771 C.3     1  LIG1        0.1426
     21 H           0.6587   -1.5611   -2.1715 H       1  LIG1        0.0769
     22 O           2.1237   -2.8272   -1.5120 O.3     1  LIG1       -0.4546
     23 C           2.5556   -3.2394   -0.2818 C.2     1  LIG1        0.3355
     24 O           3.3478   -4.1292   -0.0574 O.2     1  LIG1       -0.2453
     25 C           2.4454   -0.4845   -1.5878 C.3     1  LIG1        0.1308
     26 H           3.3828   -0.7349   -1.0979 H       1  LIG1        0.0664
     27 C           2.3589    0.9626   -2.1169 C.3     1  LIG1        0.1501
     28 O           2.5008   -0.1447   -2.9972 O.3     1  LIG1       -0.3557
     29 C           3.6195    1.7846   -2.0368 C.3     1  LIG1       -0.0281
     30 C           1.0523    1.7077   -2.0965 C.3     1  LIG1        0.2022
     31 O           0.5637    1.6427   -0.7624 O.3     1  LIG1       -0.3371
     32 O           1.2391    3.0913   -2.3709 O.3     1  LIG1       -0.3622
     33 C          -0.0542    1.2237   -3.0167 C.3     1  LIG1        0.0332
     34 H          -3.8792    0.6367   -4.0282 H       1  LIG1        0.0524
     35 H          -2.2114    0.6968   -4.6213 H       1  LIG1        0.0524
     36 H          -3.0471    2.2045   -4.1172 H       1  LIG1        0.0524
     37 H          -2.5594    2.3233    0.2401 H       1  LIG1        0.0258
     38 H          -1.2798    3.4707   -0.2095 H       1  LIG1        0.0258
     39 H          -1.0222    2.4073    1.1406 H       1  LIG1        0.0258
     40 H          -1.2110   -0.6898   -1.1727 H       1  LIG1        0.0330
     41 H          -2.1434   -0.0646    0.1371 H       1  LIG1        0.0330
     42 H          -2.1345   -2.3689    3.4399 H       1  LIG1        0.0408
     43 H          -0.3260   -0.7354    5.3179 H       1  LIG1        0.0237
     44 H           0.1712   -2.1545    4.3934 H       1  LIG1        0.0237
     45 H          -1.0213   -2.3248    5.6906 H       1  LIG1        0.0237
     46 H          -2.7436    0.1901    5.0119 H       1  LIG1        0.0237
     47 H          -3.3917   -1.4214    5.3571 H       1  LIG1        0.0237
     48 H          -3.8153   -0.5962    3.8465 H       1  LIG1        0.0237
     49 H           1.8077   -1.6132    2.6932 H       1  LIG1        0.0540
     50 H           3.1596   -2.8260    2.3269 H       1  LIG1        0.0540
     51 H           4.5169    1.1557   -2.0390 H       1  LIG1        0.0260
     52 H           3.6348    2.3773   -1.1167 H       1  LIG1        0.0260
     53 H           3.6964    2.4607   -2.8948 H       1  LIG1        0.0260
     54 H           1.6509    3.4432   -1.5633 H       1  LIG1        0.2128
     55 H          -0.0721    0.1428   -3.1658 H       1  LIG1        0.0344
     56 H          -0.0082    1.6814   -4.0111 H       1  LIG1        0.0344
@<TRIPOS>BOND
     1     1     2    1
     2     2     3    1
     3     3     4    1
     4     3     5    1
     5     5     6    1
     6     5     7    1
     7     7     8    1
     8    10    11    1
     9    11    12    1
    10    12    13    1
    11    12    14    1
    12    11    15    2
    13     8    16    1
    14    16    17    1
    15    16    18    1
    16    18    19    2
    17    16    20    1
    18    20    21    1
    19    20    22    1
    20    22    23    1
    21    18    23    1
    22    23    24    2
    23    20    25    1
    24    25    26    1
    25    25    27    1
    26    27    28    1
    27    25    28    1
    28    27    29    1
    29    27    30    1
    30    30    31    1
    31     5    31    1
    32    30    32    1
    33    30    33    1
    34     3    33    1
    35     8    10    1
    36     8     9    1
    37     1    34    1
    38     1    35    1
    39     1    36    1
    40     6    37    1
    41     6    38    1
    42     6    39    1
    43     7    40    1
    44     7    41    1
    45    12    42    1
    46    13    43    1
    47    13    44    1
    48    13    45    1
    49    14    46    1
    50    14    47    1
    51    14    48    1
    52    19    49    1
    53    19    50    1
    54    29    51    1
    55    29    52    1
    56    29    53    1
    57    32    54    1
    58    33    55    1
    59    33    56    1
