@<TRIPOS>MOLECULE
NuBBE_853
 56 59 0 0 0
SMALL
GASTEIGER

@<TRIPOS>ATOM
      1 O          -0.3886    3.7097    1.1932 O.2     1  LIG1       -0.2891
      2 C           0.7805    3.3793    1.1939 C.2     1  LIG1        0.1961
      3 C           1.8448    4.1566    1.9913 C.3     1  LIG1        0.1537
      4 O           1.3844    5.4299    2.4047 O.3     1  LIG1       -0.3783
      5 C           3.1042    4.2465    1.1614 C.3     1  LIG1        0.0189
      6 C           3.5404    2.7890    1.2521 C.3     1  LIG1        0.1191
      7 H           4.5754    2.6422    0.9347 H       1  LIG1        0.0678
      8 O           3.3948    2.4693    2.6540 O.3     1  LIG1       -0.3655
      9 C           2.3319    3.3067    3.1691 C.3     1  LIG1        0.0847
     10 C           1.2583    2.1733    0.4350 C.2     1  LIG1        0.0384
     11 C           2.5783    1.8819    0.5022 C.2     1  LIG1        0.1337
     12 O           3.1550    0.7566   -0.0966 O.2     1  LIG1       -0.4869
     13 C           2.2667    0.0753   -1.0034 C.3     1  LIG1        0.1112
     14 C           2.3528    0.8102   -2.3570 C.3     1  LIG1       -0.0247
     15 C           0.8901   -0.0784   -0.3283 C.3     1  LIG1        0.0093
     16 C           0.2329    1.2854   -0.2169 C.3     1  LIG1       -0.0140
     17 H           1.0749   -0.4026    0.7114 H       1  LIG1        0.0348
     18 C           0.1411   -1.2297   -1.0302 C.3     1  LIG1       -0.0133
     19 H          -0.5789   -0.8410   -1.7600 H       1  LIG1        0.0350
     20 C          -0.5892   -2.1094   -0.0021 C.2     1  LIG1       -0.0730
     21 C           0.2042   -3.2434    0.6205 C.3     1  LIG1       -0.0435
     22 C          -1.8528   -1.9409    0.4450 C.2     1  LIG1       -0.0831
     23 C          -2.9294   -0.9550    0.0586 C.3     1  LIG1       -0.0144
     24 C          -4.3601   -1.5454    0.1990 C.3     1  LIG1        0.0579
     25 CL         -5.5723   -0.2635   -0.1317 Cl      1  LIG1       -0.1168
     26 C          -4.6230   -2.8044   -0.6220 C.2     1  LIG1       -0.0619
     27 C          -5.0715   -2.6822   -2.0532 C.3     1  LIG1       -0.0427
     28 C          -4.4342   -4.0273   -0.0880 C.2     1  LIG1       -0.0983
     29 C           1.2856   -1.9568   -1.7992 C.3     1  LIG1       -0.0425
     30 C           2.6027   -1.4022   -1.2223 C.3     1  LIG1       -0.0123
     31 H           0.4248    5.3362    2.5705 H       1  LIG1        0.2109
     32 H           3.8320    4.9169    1.6339 H       1  LIG1        0.0327
     33 H           2.9348    4.5971    0.1370 H       1  LIG1        0.0327
     34 H           2.7455    3.9181    3.9781 H       1  LIG1        0.0593
     35 H           1.5516    2.6641    3.5908 H       1  LIG1        0.0593
     36 H           2.2016    1.8894   -2.2589 H       1  LIG1        0.0268
     37 H           1.6439    0.4369   -3.0990 H       1  LIG1        0.0268
     38 H           3.3653    0.6965   -2.7683 H       1  LIG1        0.0268
     39 H          -0.6766    1.2164    0.3838 H       1  LIG1        0.0319
     40 H          -0.0421    1.6858   -1.2002 H       1  LIG1        0.0319
     41 H          -0.3466   -3.7550    1.4175 H       1  LIG1        0.0274
     42 H           1.1327   -2.8712    1.0609 H       1  LIG1        0.0274
     43 H           0.4359   -4.0108   -0.1237 H       1  LIG1        0.0274
     44 H          -2.1824   -2.6192    1.2349 H       1  LIG1        0.0572
     45 H          -2.7705   -0.5656   -0.9517 H       1  LIG1        0.0325
     46 H          -2.8537   -0.1095    0.7556 H       1  LIG1        0.0325
     47 H          -4.5278   -1.7873    1.2572 H       1  LIG1        0.0514
     48 H          -4.2683   -2.2723   -2.6713 H       1  LIG1        0.0275
     49 H          -5.9568   -2.0475   -2.1511 H       1  LIG1        0.0275
     50 H          -5.3537   -3.6569   -2.4693 H       1  LIG1        0.0275
     51 H          -4.0915   -4.1613    0.9340 H       1  LIG1        0.0535
     52 H          -4.5752   -4.9334   -0.6706 H       1  LIG1        0.0535
     53 H           1.2159   -1.6996   -2.8635 H       1  LIG1        0.0272
     54 H           1.2542   -3.0471   -1.7671 H       1  LIG1        0.0272
     55 H           3.4481   -1.5594   -1.8998 H       1  LIG1        0.0304
     56 H           2.8597   -1.8910   -0.2747 H       1  LIG1        0.0304
@<TRIPOS>BOND
     1     1     2    2
     2     2     3    1
     3     3     4    1
     4     3     5    1
     5     5     6    1
     6     6     7    1
     7     6     8    1
     8     8     9    1
     9     3     9    1
    10     2    10    1
    11    10    11    2
    12     6    11    1
    13    11    12    1
    14    12    13    1
    15    13    14    1
    16    13    15    1
    17    15    16    1
    18    10    16    1
    19    15    17    1
    20    15    18    1
    21    20    21    1
    22    20    22    2
    23    22    23    1
    24    23    24    1
    25    24    25    1
    26    24    26    1
    27    26    27    1
    28    26    28    2
    29    18    29    1
    30    29    30    1
    31    13    30    1
    32    18    20    1
    33    18    19    1
    34     4    31    1
    35     5    32    1
    36     5    33    1
    37     9    34    1
    38     9    35    1
    39    14    36    1
    40    14    37    1
    41    14    38    1
    42    16    39    1
    43    16    40    1
    44    21    41    1
    45    21    42    1
    46    21    43    1
    47    22    44    1
    48    23    45    1
    49    23    46    1
    50    24    47    1
    51    27    48    1
    52    27    49    1
    53    27    50    1
    54    28    51    1
    55    28    52    1
    56    29    53    1
    57    29    54    1
    58    30    55    1
    59    30    56    1
