@<TRIPOS>MOLECULE
NuBBE_1346
 42 43 0 0 0
SMALL
GASTEIGER

@<TRIPOS>ATOM
      1 O           1.7286    1.7124    0.9606 O.2     1  LIG1       -0.2505
      2 C           1.8477    0.4905    0.8903 C.2     1  LIG1        0.3120
      3 O           0.9644   -0.4099    1.3989 O.3     1  LIG1       -0.4563
      4 C          -0.1638    0.1366    2.1088 C.3     1  LIG1        0.1280
      5 H           0.1637    0.9867    2.7226 H       1  LIG1        0.0785
      6 C          -1.2515    0.6046    1.1374 C.3     1  LIG1       -0.0049
      7 C          -1.8269   -0.5543    0.2925 C.3     1  LIG1       -0.0166
      8 H          -1.0638   -0.8602   -0.4375 H       1  LIG1        0.0347
      9 C          -3.0900   -0.1289   -0.5146 C.3     1  LIG1       -0.0403
     10 H          -3.4442   -1.0054   -1.0757 H       1  LIG1        0.0301
     11 C          -4.2531    0.3379    0.3690 C.3     1  LIG1       -0.0621
     12 C          -2.7666    0.9562   -1.5499 C.3     1  LIG1       -0.0621
     13 C          -2.0900   -1.7723    1.1561 C.2     1  LIG1       -0.0802
     14 C          -1.6031   -1.9273    2.3969 C.2     1  LIG1       -0.0593
     15 C          -0.7155   -0.9554    3.0105 C.2     1  LIG1       -0.0146
     16 C          -0.4260   -1.0196    4.3203 C.2     1  LIG1       -0.0920
     17 C           3.0210   -0.2264    0.2625 C.3     1  LIG1        0.0701
     18 C           3.2205    0.0866   -1.2005 C.ar    1  LIG1       -0.0368
     19 C           2.2458   -0.2450   -2.1530 C.ar    1  LIG1       -0.0581
     20 C           2.4413    0.0639   -3.5021 C.ar    1  LIG1       -0.0615
     21 C           3.6133    0.6962   -3.9137 C.ar    1  LIG1       -0.0617
     22 C           4.5957    1.0128   -2.9789 C.ar    1  LIG1       -0.0615
     23 C           4.4027    0.7060   -1.6310 C.ar    1  LIG1       -0.0581
     24 H          -0.8488    1.3715    0.4689 H       1  LIG1        0.0310
     25 H          -2.0427    1.0786    1.7299 H       1  LIG1        0.0310
     26 H          -5.1324    0.5655   -0.2430 H       1  LIG1        0.0233
     27 H          -4.0065    1.2483    0.9231 H       1  LIG1        0.0233
     28 H          -4.5433   -0.4344    1.0876 H       1  LIG1        0.0233
     29 H          -3.6713    1.2652   -2.0847 H       1  LIG1        0.0233
     30 H          -2.0528    0.5837   -2.2921 H       1  LIG1        0.0233
     31 H          -2.3424    1.8530   -1.0889 H       1  LIG1        0.0233
     32 H          -2.7092   -2.5631    0.7372 H       1  LIG1        0.0575
     33 H          -1.8702   -2.8123    2.9702 H       1  LIG1        0.0618
     34 H          -0.8349   -1.7932    4.9631 H       1  LIG1        0.0539
     35 H           0.2289   -0.2912    4.7889 H       1  LIG1        0.0539
     36 H           2.9163   -1.3108    0.3898 H       1  LIG1        0.0426
     37 H           3.9071    0.0587    0.8439 H       1  LIG1        0.0426
     38 H           1.3239   -0.7398   -1.8548 H       1  LIG1        0.0620
     39 H           1.6758   -0.1822   -4.2336 H       1  LIG1        0.0618
     40 H           3.7604    0.9454   -4.9613 H       1  LIG1        0.0618
     41 H           5.5102    1.5069   -3.2965 H       1  LIG1        0.0618
     42 H           5.1816    0.9642   -0.9170 H       1  LIG1        0.0620
@<TRIPOS>BOND
     1     1     2    2
     2     2     3    1
     3     4     6    1
     4     6     7    1
     5     9    10    1
     6     9    11    1
     7     9    12    1
     8     7    13    1
     9    13    14    2
    10    14    15    1
    11     4    15    1
    12    15    16    2
    13     2    17    1
    14    17    18    1
    15    18    19   ar
    16    19    20   ar
    17    20    21   ar
    18    21    22   ar
    19    22    23   ar
    20    18    23   ar
    21     7     9    1
    22     7     8    1
    23     4     5    1
    24     4     3    1
    25     6    24    1
    26     6    25    1
    27    11    26    1
    28    11    27    1
    29    11    28    1
    30    12    29    1
    31    12    30    1
    32    12    31    1
    33    13    32    1
    34    14    33    1
    35    16    34    1
    36    16    35    1
    37    17    36    1
    38    17    37    1
    39    19    38    1
    40    20    39    1
    41    21    40    1
    42    22    41    1
    43    23    42    1
