@<TRIPOS>MOLECULE
NuBBE_345
 53 56 0 0 0
SMALL
GASTEIGER

@<TRIPOS>ATOM
      1 C          -3.4416    2.7905    2.6427 C.3     1  LIG1       -0.0135
      2 S          -2.0278    1.8812    3.2664 S.3     1  LIG1       -0.1285
      3 C          -0.9496    2.0627    1.8532 C.ar    1  LIG1        0.0095
      4 C           0.0637    3.0125    1.9020 C.ar    1  LIG1       -0.0464
      5 C           0.9345    3.1367    0.8295 C.ar    1  LIG1       -0.0336
      6 C           0.8367    2.2788   -0.2471 C.ar    1  LIG1        0.1149
      7 S           1.8323    2.4725   -1.6696 S.O2    1  LIG1        0.0286
      8 C           0.7962    2.0081   -3.0101 C.ar    1  LIG1        0.1149
      9 C           1.0082    2.5661   -4.2663 C.ar    1  LIG1       -0.0346
     10 C           0.1499    2.2285   -5.3014 C.ar    1  LIG1       -0.0598
     11 C          -0.9246    1.3698   -5.0573 C.ar    1  LIG1       -0.0599
     12 C          -1.0979    0.7809   -3.7926 C.ar    1  LIG1       -0.0385
     13 C          -0.2007    1.0549   -2.7491 C.ar    1  LIG1        0.0595
     14 N          -0.3217    0.4825   -1.4633 N.pl3   1  LIG1       -0.2970
     15 C          -0.2161   -1.0159   -1.3444 C.3     1  LIG1        0.0188
     16 C           0.9523   -1.6237   -0.5058 C.3     1  LIG1       -0.0212
     17 C           0.9386   -1.4882    1.0514 C.3     1  LIG1        0.0116
     18 H           1.0566   -0.4245    1.2842 H       1  LIG1        0.0463
     19 N          -0.1594   -2.0891    1.8039 N.3     1  LIG1       -0.3023
     20 C          -1.2800   -1.2950    2.1538 C.3     1  LIG1       -0.0125
     21 C          -0.4601   -3.4775    1.6012 C.3     1  LIG1       -0.0011
     22 C           0.6915   -4.2473    2.2098 C.3     1  LIG1       -0.0402
     23 C           2.0450   -3.6884    1.7578 C.3     1  LIG1       -0.0505
     24 C           2.1544   -2.1544    1.7282 C.3     1  LIG1       -0.0373
     25 C          -0.1540    1.2765   -0.3259 C.ar    1  LIG1        0.0606
     26 C          -1.0812    1.2549    0.7118 C.ar    1  LIG1       -0.0251
     27 O           2.0636    3.9216   -1.7914 O.2     1  LIG1       -0.1642
     28 O           2.9123    1.5475   -1.6072 O.2     1  LIG1       -0.1642
     29 H          -4.2164    2.8059    3.4114 H       1  LIG1        0.0344
     30 H          -3.8423    2.3193    1.7418 H       1  LIG1        0.0344
     31 H          -3.1332    3.8139    2.4229 H       1  LIG1        0.0344
     32 H           0.1451    3.6847    2.7500 H       1  LIG1        0.0629
     33 H           1.6680    3.9413    0.8151 H       1  LIG1        0.0638
     34 H           1.8631    3.2173   -4.4371 H       1  LIG1        0.0637
     35 H           0.3392    2.6060   -6.3036 H       1  LIG1        0.0618
     36 H          -1.6003    1.1220   -5.8743 H       1  LIG1        0.0618
     37 H          -1.9460    0.1165   -3.6402 H       1  LIG1        0.0637
     38 H          -0.0795   -1.4281   -2.3589 H       1  LIG1        0.0468
     39 H          -1.1653   -1.4332   -0.9959 H       1  LIG1        0.0468
     40 H           1.9091   -1.2483   -0.8975 H       1  LIG1        0.0296
     41 H           0.9724   -2.6988   -0.7391 H       1  LIG1        0.0296
     42 H          -0.8716   -0.3758    2.5483 H       1  LIG1        0.0391
     43 H          -1.8792   -1.7010    2.9712 H       1  LIG1        0.0391
     44 H          -1.9326   -1.1874    1.2908 H       1  LIG1        0.0391
     45 H          -0.6104   -3.7103    0.5440 H       1  LIG1        0.0426
     46 H          -1.3857   -3.7609    2.1193 H       1  LIG1        0.0426
     47 H           0.6105   -5.2981    1.9141 H       1  LIG1        0.0278
     48 H           0.6125   -4.2219    3.3067 H       1  LIG1        0.0278
     49 H           2.2116   -4.0464    0.7396 H       1  LIG1        0.0266
     50 H           2.8260   -4.0988    2.4029 H       1  LIG1        0.0266
     51 H           3.0821   -1.8504    1.2314 H       1  LIG1        0.0280
     52 H           2.2295   -1.7786    2.7623 H       1  LIG1        0.0280
     53 H          -1.9279    0.5892    0.6103 H       1  LIG1        0.0648
@<TRIPOS>BOND
     1     1     2    1
     2     2     3    1
     3     3     4   ar
     4     4     5   ar
     5     5     6   ar
     6     6     7    1
     7     7     8    1
     8     8     9   ar
     9     9    10   ar
    10    10    11   ar
    11    11    12   ar
    12    12    13   ar
    13     8    13   ar
    14    13    14    1
    15    14    15    1
    16    15    16    1
    17    16    17    1
    18    17    18    1
    19    17    19    1
    20    19    20    1
    21    19    21    1
    22    21    22    1
    23    22    23    1
    24    23    24    1
    25    17    24    1
    26    14    25    1
    27     6    25   ar
    28    25    26   ar
    29     3    26   ar
    30     7    27    2
    31     7    28    2
    32     1    29    1
    33     1    30    1
    34     1    31    1
    35     4    32    1
    36     5    33    1
    37     9    34    1
    38    10    35    1
    39    11    36    1
    40    12    37    1
    41    15    38    1
    42    15    39    1
    43    16    40    1
    44    16    41    1
    45    20    42    1
    46    20    43    1
    47    20    44    1
    48    21    45    1
    49    21    46    1
    50    22    47    1
    51    22    48    1
    52    23    49    1
    53    23    50    1
    54    24    51    1
    55    24    52    1
    56    26    53    1
