@<TRIPOS>MOLECULE
NuBBE_2227
 34 38 0 0 0
SMALL
GASTEIGER

@<TRIPOS>ATOM
      1 O          -1.3603    2.1039    0.7429 O.3     1  LIG1       -0.4945
      2 C          -2.2296    3.1465    0.3071 C.3     1  LIG1        0.0788
      3 C          -0.0831    2.1507    0.2377 C.ar    1  LIG1        0.1286
      4 C           0.5882    0.9313   -0.0275 C.ar    1  LIG1        0.0389
      5 C          -0.0390   -0.4242   -0.0348 C.ar    1  LIG1        0.0416
      6 C           0.7951   -1.5687    0.1103 C.ar    1  LIG1        0.0229
      7 C           2.1875   -1.4893    0.0707 C.ar    1  LIG1        0.1193
      8 C           2.8243   -0.1908   -0.2654 C.2     1  LIG1        0.2125
      9 O           4.0192   -0.1059   -0.5322 O.2     1  LIG1       -0.2850
     10 C           1.9817    1.0302   -0.2437 C.ar    1  LIG1        0.0352
     11 C           2.6412    2.2668   -0.3468 C.ar    1  LIG1       -0.0501
     12 C           1.9372    3.4463   -0.1698 C.ar    1  LIG1       -0.0576
     13 C           0.5878    3.3862    0.1552 C.ar    1  LIG1       -0.0193
     14 N           3.0338   -2.5433    0.2286 N.ar    1  LIG1       -0.2511
     15 C           2.4786   -3.7515    0.4214 C.ar    1  LIG1        0.0290
     16 C           1.1139   -3.9702    0.4317 C.ar    1  LIG1       -0.0357
     17 C           0.2561   -2.8802    0.2528 C.ar    1  LIG1       -0.0100
     18 C          -1.1236   -3.0756    0.1773 C.ar    1  LIG1       -0.0083
     19 C          -1.9101   -1.9808   -0.0928 C.ar    1  LIG1        0.1674
     20 C          -1.3933   -0.7048   -0.2155 C.ar    1  LIG1        0.1747
     21 O          -2.3721    0.1655   -0.6014 O.3     1  LIG1       -0.4520
     22 C          -3.5456   -0.6615   -0.5746 C.3     1  LIG1        0.2333
     23 O          -3.2543   -2.0404   -0.3002 O.3     1  LIG1       -0.4526
     24 H          -3.2590    2.8078    0.4602 H       1  LIG1        0.0660
     25 H          -2.1045    3.3652   -0.7592 H       1  LIG1        0.0660
     26 H          -2.0846    4.0465    0.9122 H       1  LIG1        0.0660
     27 H           3.7142    2.3052   -0.5292 H       1  LIG1        0.0625
     28 H           2.4494    4.4033   -0.2240 H       1  LIG1        0.0619
     29 H           0.0814    4.3182    0.3883 H       1  LIG1        0.0654
     30 H           3.1811   -4.5703    0.5507 H       1  LIG1        0.0830
     31 H           0.7345   -4.9796    0.5583 H       1  LIG1        0.0639
     32 H          -1.5739   -4.0592    0.2642 H       1  LIG1        0.0661
     33 H          -4.0443   -0.5944   -1.5479 H       1  LIG1        0.1166
     34 H          -4.2281   -0.2829    0.1953 H       1  LIG1        0.1166
@<TRIPOS>BOND
     1     1     2    1
     2     1     3    1
     3     3     4   ar
     4     4     5    1
     5     5     6   ar
     6     6     7   ar
     7     7     8    1
     8     8     9    2
     9     8    10    1
    10     4    10   ar
    11    10    11   ar
    12    11    12   ar
    13    12    13   ar
    14     3    13   ar
    15     7    14   ar
    16    14    15   ar
    17    15    16   ar
    18    16    17   ar
    19     6    17   ar
    20    17    18   ar
    21    18    19   ar
    22    19    20   ar
    23     5    20   ar
    24    20    21    1
    25    21    22    1
    26    22    23    1
    27    19    23    1
    28     2    24    1
    29     2    25    1
    30     2    26    1
    31    11    27    1
    32    12    28    1
    33    13    29    1
    34    15    30    1
    35    16    31    1
    36    18    32    1
    37    22    33    1
    38    22    34    1
