REMARK  Name = NuBBE_1083
REMARK  5 active torsions:
REMARK  status: ('A' for Active; 'I' for Inactive)
REMARK    1  A    between atoms: C_1  and  C_2
REMARK    2  A    between atoms: C_9  and  C_12
REMARK    3  A    between atoms: C_13  and  C_17
REMARK    4  A    between atoms: C_17  and  C_18
REMARK    5  A    between atoms: C_17  and  C_19
REMARK                            x       y       z     vdW  Elec       q    Type
REMARK                         _______ _______ _______ _____ _____    ______ ____
ROOT
ATOM      1  C   LIG A   1      -0.405  -2.162   2.517  0.00  0.00    +0.008 C 
ATOM      2  C   LIG A   1      -0.925  -1.369   1.314  0.00  0.00    -0.007 C 
ATOM      3  C   LIG A   1      -0.332   0.025   1.248  0.00  0.00    -0.013 C 
ATOM      4  C   LIG A   1       0.108   0.602  -0.094  0.00  0.00    +0.007 C 
ATOM      5  C   LIG A   1       1.142   0.257   0.957  0.00  0.00    +0.025 C 
ATOM      6  C   LIG A   1       1.561   1.291   1.924  0.00  0.00    -0.073 C 
ATOM      7  C   LIG A   1       0.557   1.724   2.710  0.00  0.00    -0.027 C 
ATOM      8  C   LIG A   1      -0.724   1.009   2.356  0.00  0.00    +0.035 C 
ATOM      9  C   LIG A   1       2.971   1.767   1.959  0.00  0.00    +0.039 C 
ATOM     10  C   LIG A   1       0.043  -0.224  -1.364  0.00  0.00    -0.004 C 
ATOM     11  C   LIG A   1      -0.983  -1.359  -1.219  0.00  0.00    +0.004 C 
ATOM     12  C   LIG A   1      -0.691  -2.183   0.032  0.00  0.00    +0.004 C 
ENDROOT
BRANCH  10  13
ATOM     13  C   LIG A   1      -0.186   0.671  -2.615  0.00  0.00    -0.014 C 
ATOM     14  C   LIG A   1       0.130  -0.082  -3.912  0.00  0.00    +0.007 C 
ATOM     15  C   LIG A   1      -1.595   1.268  -2.700  0.00  0.00    +0.007 C 
ENDBRANCH  10  13
TORSDOF 1
