@<TRIPOS>MOLECULE
NuBBE_1540
 39 41 0 0 0
SMALL
GASTEIGER

@<TRIPOS>ATOM
      1 C          -1.7654   -1.7253   -0.5633 C.3     1  LIG1       -0.0593
      2 C          -0.3049   -2.1116   -0.4763 C.3     1  LIG1       -0.0281
      3 C          -0.1739   -3.6158   -0.3377 C.3     1  LIG1       -0.0593
      4 C           0.6908   -1.2607    0.3052 C.3     1  LIG1       -0.0255
      5 H           1.4079   -1.8373    0.8933 H       1  LIG1        0.0315
      6 C           0.8540   -1.3815   -1.2073 C.3     1  LIG1       -0.0317
      7 H           1.7066   -1.9940   -1.5048 H       1  LIG1        0.0309
      8 C           0.5569   -0.4134   -2.3263 C.3     1  LIG1       -0.0492
      9 C           0.8104    1.1047   -2.1945 C.3     1  LIG1       -0.0499
     10 C           0.9607    1.7221   -0.7932 C.3     1  LIG1       -0.0405
     11 H           1.9576    1.4173   -0.4479 H       1  LIG1        0.0301
     12 C          -0.1274    1.1404    0.1249 C.3     1  LIG1       -0.0314
     13 H          -0.8605    0.7229   -0.5517 H       1  LIG1        0.0309
     14 C           0.5163    0.0598    0.9902 C.3     1  LIG1       -0.0135
     15 H           1.5379    0.3888    1.2387 H       1  LIG1        0.0351
     16 C          -0.1857    0.1280    2.3086 C.2     1  LIG1       -0.0730
     17 C           0.0487   -0.6998    3.3521 C.2     1  LIG1       -0.0992
     18 C          -1.0446    1.3454    2.4077 C.3     1  LIG1       -0.0314
     19 C          -1.0006    2.0062    1.0342 C.3     1  LIG1       -0.0457
     20 C           1.0094    3.2457   -0.8404 C.3     1  LIG1       -0.0621
     21 H          -1.9900   -0.6807   -0.7453 H       1  LIG1        0.0235
     22 H          -2.2748   -2.0030    0.3668 H       1  LIG1        0.0235
     23 H          -2.2465   -2.2725   -1.3817 H       1  LIG1        0.0235
     24 H           0.8689   -3.9450   -0.3317 H       1  LIG1        0.0235
     25 H          -0.6809   -4.1164   -1.1702 H       1  LIG1        0.0235
     26 H          -0.6422   -3.9472    0.5957 H       1  LIG1        0.0235
     27 H          -0.4658   -0.5723   -2.6868 H       1  LIG1        0.0268
     28 H           1.1775   -0.7384   -3.1759 H       1  LIG1        0.0268
     29 H          -0.0277    1.6057   -2.7018 H       1  LIG1        0.0268
     30 H           1.6927    1.3728   -2.7907 H       1  LIG1        0.0268
     31 H           0.7540   -1.5152    3.2713 H       1  LIG1        0.0534
     32 H          -0.4260   -0.5369    4.3101 H       1  LIG1        0.0534
     33 H          -0.6422    2.0412    3.1528 H       1  LIG1        0.0310
     34 H          -2.0711    1.0880    2.6889 H       1  LIG1        0.0310
     35 H          -0.7076    3.0539    1.1011 H       1  LIG1        0.0271
     36 H          -2.0244    2.0121    0.6285 H       1  LIG1        0.0271
     37 H           0.0902    3.6721   -1.2509 H       1  LIG1        0.0233
     38 H           1.8507    3.5841   -1.4547 H       1  LIG1        0.0233
     39 H           1.1713    3.6556    0.1630 H       1  LIG1        0.0233
@<TRIPOS>BOND
     1     2     4    1
     2     4     6    1
     3     2     6    1
     4     6     8    1
     5     8     9    1
     6     9    10    1
     7    10    12    1
     8    12    14    1
     9     4    14    1
    10    14    16    1
    11    16    18    1
    12    18    19    1
    13    12    19    1
    14     1     2    1
    15     2     3    1
    16     4     5    1
    17     6     7    1
    18    12    13    1
    19    14    15    1
    20    16    17    2
    21    10    20    1
    22    10    11    1
    23     1    21    1
    24     1    22    1
    25     1    23    1
    26     3    24    1
    27     3    25    1
    28     3    26    1
    29     8    27    1
    30     8    28    1
    31     9    29    1
    32     9    30    1
    33    17    31    1
    34    17    32    1
    35    18    33    1
    36    18    34    1
    37    19    35    1
    38    19    36    1
    39    20    37    1
    40    20    38    1
    41    20    39    1
