@<TRIPOS>MOLECULE
NuBBE_387
 99 104 0 0 0
SMALL
GASTEIGER

@<TRIPOS>ATOM
      1 C          -1.2107    2.9350   -0.1094 C.3     1  LIG1       -0.0553
      2 C           0.0177    2.9592    0.8552 C.3     1  LIG1       -0.0051
      3 C           0.2629    1.5123    1.5727 C.3     1  LIG1       -0.0194
      4 C          -1.0135    1.0550    2.3369 C.3     1  LIG1       -0.0463
      5 C          -1.0811   -0.4343    2.6752 C.3     1  LIG1       -0.0486
      6 C          -0.8990   -1.2386    1.3817 C.3     1  LIG1       -0.0267
      7 C          -1.4791   -2.6825    1.3412 C.3     1  LIG1        0.0080
      8 C          -0.6491   -3.7153    2.1182 C.3     1  LIG1       -0.0561
      9 C          -1.6323   -3.0442   -0.1730 C.3     1  LIG1        0.1344
     10 H          -2.5735   -2.5857   -0.5172 H       1  LIG1        0.0766
     11 C          -0.5298   -2.4989   -1.1181 C.3     1  LIG1        0.0931
     12 H          -0.2348   -3.2839   -1.8271 H       1  LIG1        0.0630
     13 C           0.7429   -2.0017   -0.4339 C.3     1  LIG1       -0.0174
     14 C           0.5595   -1.0738    0.8187 C.3     1  LIG1       -0.0226
     15 C           0.6807    0.4748    0.4494 C.3     1  LIG1       -0.0257
     16 C           2.0085    0.9315   -0.1793 C.3     1  LIG1       -0.0306
     17 C           2.0740    2.4129   -0.4577 C.2     1  LIG1       -0.0836
     18 C           1.2334    3.3751   -0.0099 C.2     1  LIG1       -0.0626
     19 C           1.3380    4.8818   -0.4424 C.3     1  LIG1       -0.0008
     20 C           0.8838    5.9111    0.6630 C.3     1  LIG1        0.0743
     21 C           0.4372    7.2319    0.0177 C.2     1  LIG1        0.3115
     22 O           0.6177    8.3168    0.7986 O.3     1  LIG1       -0.4802
     23 O          -0.1149    7.3646   -1.0642 O.2     1  LIG1       -0.2504
     24 C          -0.3862    5.4407    1.4079 C.3     1  LIG1       -0.0359
     25 C          -0.2674    4.0242    1.9446 C.3     1  LIG1       -0.0424
     26 C           2.0204    6.1508    1.6856 C.3     1  LIG1       -0.0364
     27 C           3.3247    6.6086    1.0424 C.3     1  LIG1       -0.0492
     28 C           3.8274    5.6478   -0.0381 C.3     1  LIG1       -0.0407
     29 H           4.6424    6.1573   -0.5705 H       1  LIG1        0.0301
     30 C           2.7271    5.2967   -1.0743 C.3     1  LIG1       -0.0337
     31 H           3.0990    4.4798   -1.6977 H       1  LIG1        0.0307
     32 C           2.5977    6.4407   -2.0992 C.3     1  LIG1       -0.0616
     33 C           4.4729    4.4166    0.6050 C.3     1  LIG1       -0.0622
     34 C           1.6740   -1.5180    1.8069 C.3     1  LIG1       -0.0589
     35 O          -1.0425   -1.4290   -1.9193 O.3     1  LIG1       -0.3881
     36 O          -1.6952   -4.4756   -0.3557 O.3     1  LIG1       -0.4551
     37 C          -2.8135   -4.9422   -0.9712 C.2     1  LIG1        0.3323
     38 C          -2.4930   -6.2933   -1.4582 C.2     1  LIG1        0.0231
     39 C          -3.2200   -6.8103   -2.4692 C.2     1  LIG1       -0.0478
     40 C          -2.9669   -8.1225   -3.0697 C.ar    1  LIG1       -0.0246
     41 C          -3.2618   -8.3252   -4.4262 C.ar    1  LIG1       -0.0511
     42 C          -3.0900   -9.5831   -5.0133 C.ar    1  LIG1       -0.0196
     43 C          -2.6286  -10.6413   -4.2385 C.ar    1  LIG1        0.1169
     44 C          -2.3330  -10.4615   -2.8943 C.ar    1  LIG1       -0.0196
     45 C          -2.5066   -9.2071   -2.3095 C.ar    1  LIG1       -0.0511
     46 O          -2.4602  -11.8882   -4.7614 O.3     1  LIG1       -0.5068
     47 O          -3.8685   -4.3395   -1.1700 O.2     1  LIG1       -0.2456
     48 C          -2.9011   -2.7221    1.9648 C.3     1  LIG1       -0.0561
     49 C           1.3912    1.6568    2.6473 C.3     1  LIG1       -0.0585
     50 H          -1.1662    2.1308   -0.8471 H       1  LIG1        0.0238
     51 H          -1.2953    3.8568   -0.6948 H       1  LIG1        0.0238
     52 H          -2.1560    2.8393    0.4329 H       1  LIG1        0.0238
     53 H          -1.9069    1.2719    1.7445 H       1  LIG1        0.0271
     54 H          -1.1364    1.6257    3.2652 H       1  LIG1        0.0271
     55 H          -2.0664   -0.6027    3.1185 H       1  LIG1        0.0268
     56 H          -0.3610   -0.7011    3.4510 H       1  LIG1        0.0268
     57 H          -1.5520   -0.7096    0.6656 H       1  LIG1        0.0312
     58 H           0.2539   -4.0130    1.5827 H       1  LIG1        0.0236
     59 H          -1.2183   -4.6379    2.2851 H       1  LIG1        0.0236
     60 H          -0.3655   -3.3322    3.1042 H       1  LIG1        0.0236
     61 H           1.3745   -1.5108   -1.1802 H       1  LIG1        0.0297
     62 H           1.2990   -2.9050   -0.1523 H       1  LIG1        0.0297
     63 H          -0.0502    0.5775   -0.3599 H       1  LIG1        0.0315
     64 H           2.1658    0.4190   -1.1339 H       1  LIG1        0.0310
     65 H           2.8647    0.6808    0.4540 H       1  LIG1        0.0310
     66 H           2.9038    2.6490   -1.1128 H       1  LIG1        0.0572
     67 H           0.6079    4.9486   -1.2629 H       1  LIG1        0.0359
     68 H           0.2848    9.0659    0.2595 H       1  LIG1        0.2951
     69 H          -1.2705    5.5233    0.7628 H       1  LIG1        0.0276
     70 H          -0.5950    6.1111    2.2536 H       1  LIG1        0.0276
     71 H          -1.1982    3.7819    2.4715 H       1  LIG1        0.0274
     72 H           0.5110    4.0263    2.7109 H       1  LIG1        0.0274
     73 H           2.2179    5.2400    2.2597 H       1  LIG1        0.0276
     74 H           1.7211    6.9006    2.4299 H       1  LIG1        0.0276
     75 H           3.1958    7.6081    0.6119 H       1  LIG1        0.0268
     76 H           4.0832    6.7198    1.8272 H       1  LIG1        0.0268
     77 H           1.7478    6.2794   -2.7702 H       1  LIG1        0.0233
     78 H           3.4953    6.4732   -2.7290 H       1  LIG1        0.0233
     79 H           2.5028    7.4243   -1.6341 H       1  LIG1        0.0233
     80 H           3.7829    3.8683    1.2497 H       1  LIG1        0.0233
     81 H           5.3242    4.7162    1.2265 H       1  LIG1        0.0233
     82 H           4.8563    3.7334   -0.1592 H       1  LIG1        0.0233
     83 H           1.7937   -2.6038    1.8494 H       1  LIG1        0.0235
     84 H           1.4974   -1.2264    2.8396 H       1  LIG1        0.0235
     85 H           2.6547   -1.1378    1.5088 H       1  LIG1        0.0235
     86 H          -1.6924   -1.8163   -2.5337 H       1  LIG1        0.2099
     87 H          -1.6345   -6.7994   -1.0311 H       1  LIG1        0.0689
     88 H          -4.0400   -6.2350   -2.8959 H       1  LIG1        0.0626
     89 H          -3.6288   -7.5051   -5.0400 H       1  LIG1        0.0625
     90 H          -3.3270   -9.7159   -6.0641 H       1  LIG1        0.0654
     91 H          -1.9825  -11.2979   -2.2966 H       1  LIG1        0.0654
     92 H          -2.2960   -9.0968   -1.2492 H       1  LIG1        0.0625
     93 H          -2.7318  -11.8722   -5.6934 H       1  LIG1        0.2921
     94 H          -3.5477   -1.9497    1.5321 H       1  LIG1        0.0236
     95 H          -2.8735   -2.5717    3.0494 H       1  LIG1        0.0236
     96 H          -3.3852   -3.6903    1.7951 H       1  LIG1        0.0236
     97 H           1.0334    2.1768    3.5425 H       1  LIG1        0.0235
     98 H           2.2584    2.2131    2.2823 H       1  LIG1        0.0235
     99 H           1.7660    0.7051    3.0096 H       1  LIG1        0.0235
@<TRIPOS>BOND
     1     2     3    1
     2     3     4    1
     3     4     5    1
     4     5     6    1
     5     6     7    1
     6     7     9    1
     7     9    11    1
     8    11    13    1
     9    13    14    1
    10    14    15    1
    11    15    16    1
    12    16    17    1
    13    17    18    2
    14     2    18    1
    15    18    19    1
    16    19    20    1
    17    21    22    1
    18    21    23    2
    19    20    24    1
    20    24    25    1
    21     2    25    1
    22    20    26    1
    23    26    27    1
    24    27    28    1
    25    28    30    1
    26    19    30    1
    27     6    14    1
    28    36    37    1
    29    37    38    1
    30    38    39    2
    31    39    40    1
    32    40    41   ar
    33    41    42   ar
    34    42    43   ar
    35    43    44   ar
    36    44    45   ar
    37    40    45   ar
    38    43    46    1
    39    37    47    2
    40    15     3    1
    41     1     2    1
    42     3    49    1
    43     7     8    1
    44     7    48    1
    45     9    10    1
    46     9    36    1
    47    14    34    1
    48    20    21    1
    49    28    29    1
    50    28    33    1
    51    30    31    1
    52    30    32    1
    53    11    35    1
    54    11    12    1
    55     1    50    1
    56     1    51    1
    57     1    52    1
    58     4    53    1
    59     4    54    1
    60     5    55    1
    61     5    56    1
    62     6    57    1
    63     8    58    1
    64     8    59    1
    65     8    60    1
    66    13    61    1
    67    13    62    1
    68    15    63    1
    69    16    64    1
    70    16    65    1
    71    17    66    1
    72    19    67    1
    73    22    68    1
    74    24    69    1
    75    24    70    1
    76    25    71    1
    77    25    72    1
    78    26    73    1
    79    26    74    1
    80    27    75    1
    81    27    76    1
    82    32    77    1
    83    32    78    1
    84    32    79    1
    85    33    80    1
    86    33    81    1
    87    33    82    1
    88    34    83    1
    89    34    84    1
    90    34    85    1
    91    35    86    1
    92    38    87    1
    93    39    88    1
    94    41    89    1
    95    42    90    1
    96    44    91    1
    97    45    92    1
    98    46    93    1
    99    48    94    1
   100    48    95    1
   101    48    96    1
   102    49    97    1
   103    49    98    1
   104    49    99    1
