@<TRIPOS>MOLECULE
NuBBE_1709
 25 27 0 0 0
SMALL
GASTEIGER

@<TRIPOS>ATOM
      1 O          -2.4726    0.1662   -0.0018 O.2     1  LIG1       -0.2863
      2 C          -1.2466    0.1518   -0.0010 C.ar    1  LIG1        0.2038
      3 C          -0.4864    1.4074   -0.0005 C.ar    1  LIG1        0.1058
      4 C          -1.1277    2.6504   -0.0005 C.ar    1  LIG1        0.1312
      5 O          -2.4895    2.7852   -0.0014 O.3     1  LIG1       -0.5059
      6 C          -0.3789    3.8235    0.0004 C.ar    1  LIG1       -0.0192
      7 C           1.0152    3.7568    0.0013 C.ar    1  LIG1       -0.0548
      8 C           1.6573    2.5158    0.0012 C.ar    1  LIG1       -0.0184
      9 C           0.9059    1.3377    0.0003 C.ar    1  LIG1        0.1428
     10 O           1.6157    0.1605    0.0002 O.2     1  LIG1       -0.4545
     11 C           0.9147   -1.0206   -0.0000 C.ar    1  LIG1        0.1395
     12 C           1.6695   -2.1960    0.0003 C.ar    1  LIG1       -0.0152
     13 C           1.0304   -3.4393    0.0003 C.ar    1  LIG1       -0.0167
     14 C          -0.3616   -3.4960   -0.0001 C.ar    1  LIG1        0.1178
     15 O          -1.0233   -4.6873   -0.0001 O.3     1  LIG1       -0.5067
     16 C          -1.1245   -2.3345   -0.0004 C.ar    1  LIG1       -0.0058
     17 C          -0.4768   -1.0976   -0.0004 C.ar    1  LIG1        0.0681
     18 H          -2.8808    1.8815   -0.0020 H       1  LIG1        0.2922
     19 H          -0.8825    4.7869    0.0005 H       1  LIG1        0.0654
     20 H           1.6002    4.6736    0.0021 H       1  LIG1        0.0620
     21 H           2.7437    2.4705    0.0018 H       1  LIG1        0.0654
     22 H           2.7556   -2.1455    0.0006 H       1  LIG1        0.0656
     23 H           1.6298   -4.3450    0.0006 H       1  LIG1        0.0655
     24 H          -0.3767   -5.4121   -0.0006 H       1  LIG1        0.2921
     25 H          -2.2098   -2.3937   -0.0006 H       1  LIG1        0.0662
@<TRIPOS>BOND
     1     1     2    2
     2     2     3   ar
     3     3     4   ar
     4     4     5    1
     5     4     6   ar
     6     6     7   ar
     7     7     8   ar
     8     8     9   ar
     9     3     9   ar
    10     9    10   ar
    11    10    11   ar
    12    11    12   ar
    13    12    13   ar
    14    13    14   ar
    15    14    15    1
    16    14    16   ar
    17    16    17   ar
    18    11    17   ar
    19     2    17   ar
    20     5    18    1
    21     6    19    1
    22     7    20    1
    23     8    21    1
    24    12    22    1
    25    13    23    1
    26    15    24    1
    27    16    25    1
