REMARK  Name = NuBBE_2414
REMARK  6 active torsions:
REMARK  status: ('A' for Active; 'I' for Inactive)
REMARK    1  A    between atoms: C_1  and  C_3
REMARK    2  A    between atoms: C_1  and  C_12
REMARK    3  A    between atoms: C_4  and  C_5
REMARK    4  A    between atoms: C_8  and  O_11
REMARK    5  A    between atoms: C_13  and  O_14
REMARK    6  A    between atoms: C_16  and  O_19
REMARK                            x       y       z     vdW  Elec       q    Type
REMARK                         _______ _______ _______ _____ _____    ______ ____
ROOT
ATOM      1  C   LIG A   1       1.826  -0.295   0.201  0.00  0.00    +0.190 C 
ATOM      2  O   LIG A   1       2.906   0.149  -0.173  0.00  0.00    -0.287 OA
ENDROOT
BRANCH   1   3
ATOM      3  C   LIG A   1       1.782  -1.395   1.200  0.00  0.00    +0.063 A 
ATOM      4  C   LIG A   1       0.850  -2.442   1.160  0.00  0.00    +0.131 A 
ATOM      5  C   LIG A   1       0.860  -3.438   2.141  0.00  0.00    +0.091 A 
ATOM      6  C   LIG A   1       1.812  -3.387   3.155  0.00  0.00    +0.120 A 
ATOM      7  C   LIG A   1       2.761  -2.372   3.196  0.00  0.00    +0.046 A 
ATOM      8  C   LIG A   1       2.752  -1.379   2.215  0.00  0.00    +0.019 A 
BRANCH   4   9
ATOM      9  O   LIG A   1      -0.068  -2.515   0.148  0.00  0.00    -0.506 OA
ATOM     10  H   LIG A   1      -0.534  -3.367   0.191  0.00  0.00    +0.292 HD
ENDBRANCH   4   9
BRANCH   6  11
ATOM     11  O   LIG A   1       1.853  -4.327   4.142  0.00  0.00    -0.507 OA
ATOM     12  H   LIG A   1       1.132  -4.964   4.012  0.00  0.00    +0.292 HD
ENDBRANCH   6  11
ENDBRANCH   1   3
BRANCH   1  13
ATOM     13  C   LIG A   1       0.532   0.300  -0.234  0.00  0.00    +0.052 C 
ATOM     14  C   LIG A   1       0.508   1.207  -1.222  0.00  0.00    +0.012 C 
BRANCH  14  15
ATOM     15  C   LIG A   1      -0.703   1.908  -1.675  0.00  0.00    -0.025 A 
ATOM     16  C   LIG A   1      -1.978   1.325  -1.650  0.00  0.00    +0.011 A 
ATOM     17  C   LIG A   1      -3.102   2.043  -2.077  0.00  0.00    +0.046 A 
ATOM     18  C   LIG A   1      -2.946   3.343  -2.545  0.00  0.00    +0.117 A 
ATOM     19  C   LIG A   1      -1.689   3.928  -2.607  0.00  0.00    +0.046 A 
ATOM     20  C   LIG A   1      -0.570   3.210  -2.179  0.00  0.00    +0.011 A 
BRANCH  18  21
ATOM     21  O   LIG A   1      -4.013   4.085  -2.957  0.00  0.00    -0.507 OA
ATOM     22  H   LIG A   1      -4.822   3.563  -2.830  0.00  0.00    +0.292 HD
ENDBRANCH  18  21
ENDBRANCH  14  15
ENDBRANCH   1  13
TORSDOF 6
