@<TRIPOS>MOLECULE
NuBBE_2186
 46 48 0 0 0
SMALL
GASTEIGER

@<TRIPOS>ATOM
      1 C           2.2459   -0.1474   -0.1217 C.3     1  LIG1       -0.0112
      2 H           2.3368    0.8978    0.2053 H       1  LIG1        0.0350
      3 C           2.2454   -0.9577    1.1992 C.3     1  LIG1       -0.0209
      4 C           1.1615   -0.7051    2.2220 C.ar    1  LIG1       -0.0431
      5 C           0.3434    0.4314    2.2124 C.ar    1  LIG1       -0.0129
      6 C          -0.7133    0.4705    3.0973 C.ar    1  LIG1        0.1665
      7 C          -0.9363   -0.5305    4.0133 C.ar    1  LIG1        0.1662
      8 C          -0.0866   -1.6038    4.1347 C.ar    1  LIG1       -0.0159
      9 C           0.9782   -1.6803    3.2356 C.ar    1  LIG1       -0.0549
     10 O          -2.0645   -0.3255    4.7465 O.3     1  LIG1       -0.4526
     11 C          -2.5042    0.9390    4.2104 C.3     1  LIG1        0.2332
     12 O          -1.6595    1.4502    3.1592 O.3     1  LIG1       -0.4526
     13 C           3.5500   -0.4347   -0.8856 C.3     1  LIG1       -0.0580
     14 C           1.0218   -0.1833   -1.0424 C.ar    1  LIG1       -0.0021
     15 C           0.1593   -1.2719   -1.2526 C.ar    1  LIG1        0.1270
     16 O           0.3078   -2.4633   -0.5857 O.3     1  LIG1       -0.4947
     17 C           1.2001   -3.3660   -1.2488 C.3     1  LIG1        0.0788
     18 C          -1.0090   -1.1227   -2.0227 C.ar    1  LIG1        0.0221
     19 C          -1.3323    0.1160   -2.5942 C.ar    1  LIG1        0.1238
     20 C          -0.4968    1.2192   -2.4128 C.ar    1  LIG1       -0.0017
     21 C           0.6864    1.0388   -1.6844 C.ar    1  LIG1       -0.0479
     22 C          -0.8797    2.5898   -2.9599 C.3     1  LIG1       -0.0063
     23 C          -2.0918    3.2100   -2.2862 C.2     1  LIG1       -0.0867
     24 C          -3.3474    3.1926   -2.7622 C.2     1  LIG1       -0.1023
     25 O          -2.4784    0.2504   -3.3312 O.3     1  LIG1       -0.5064
     26 H           3.1927   -0.7507    1.7190 H       1  LIG1        0.0319
     27 H           2.2552   -2.0284    0.9700 H       1  LIG1        0.0319
     28 H           0.4903    1.2529    1.5196 H       1  LIG1        0.0658
     29 H          -0.2533   -2.3737    4.8826 H       1  LIG1        0.0655
     30 H           1.6636   -2.5241    3.3065 H       1  LIG1        0.0621
     31 H          -2.5161    1.6675    5.0290 H       1  LIG1        0.1166
     32 H          -3.5238    0.8254    3.8197 H       1  LIG1        0.1166
     33 H           4.3909   -0.5424   -0.1890 H       1  LIG1        0.0236
     34 H           3.8004    0.3992   -1.5522 H       1  LIG1        0.0236
     35 H           3.4960   -1.3461   -1.4885 H       1  LIG1        0.0236
     36 H           1.9074   -3.7542   -0.4965 H       1  LIG1        0.0660
     37 H           1.7627   -2.9162   -2.0746 H       1  LIG1        0.0660
     38 H           0.6323   -4.2163   -1.6456 H       1  LIG1        0.0660
     39 H          -1.6860   -1.9631   -2.1417 H       1  LIG1        0.0691
     40 H           1.3583    1.8892   -1.5615 H       1  LIG1        0.0625
     41 H          -1.0187    2.5259   -4.0435 H       1  LIG1        0.0357
     42 H          -0.0195    3.2904   -2.8270 H       1  LIG1        0.0357
     43 H          -1.8716    3.7642   -1.3790 H       1  LIG1        0.0570
     44 H          -3.5471    2.6711   -3.6648 H       1  LIG1        0.0532
     45 H          -4.1186    3.6543   -2.2250 H       1  LIG1        0.0532
     46 H          -3.0321   -0.5385   -3.2032 H       1  LIG1        0.2921
@<TRIPOS>BOND
     1     1     2    1
     2     1     3    1
     3     3     4    1
     4     4     5   ar
     5     5     6   ar
     6     6     7   ar
     7     7     8   ar
     8     8     9   ar
     9     4     9   ar
    10     7    10    1
    11    10    11    1
    12    11    12    1
    13     6    12    1
    14     1    13    1
    15     1    14    1
    16    14    15   ar
    17    15    16    1
    18    16    17    1
    19    15    18   ar
    20    18    19   ar
    21    19    20   ar
    22    20    21   ar
    23    14    21   ar
    24    20    22    1
    25    22    23    1
    26    23    24    2
    27    19    25    1
    28     3    26    1
    29     3    27    1
    30     5    28    1
    31     8    29    1
    32     9    30    1
    33    11    31    1
    34    11    32    1
    35    13    33    1
    36    13    34    1
    37    13    35    1
    38    17    36    1
    39    17    37    1
    40    17    38    1
    41    18    39    1
    42    21    40    1
    43    22    41    1
    44    22    42    1
    45    23    43    1
    46    24    44    1
    47    24    45    1
    48    25    46    1
