REMARK  Name = NuBBE_1935
REMARK  5 active torsions:
REMARK  status: ('A' for Active; 'I' for Inactive)
REMARK    1  A    between atoms: C_1  and  C_2
REMARK    2  A    between atoms: C_10  and  C_11
REMARK    3  A    between atoms: C_14  and  C_16
REMARK    4  A    between atoms: C_16  and  C_17
REMARK    5  A    between atoms: C_16  and  C_18
REMARK                            x       y       z     vdW  Elec       q    Type
REMARK                         _______ _______ _______ _____ _____    ______ ____
ROOT
ATOM      1  C   LIG A   1      -3.175   0.039   2.397  0.00  0.00    +0.039 C 
ATOM      2  C   LIG A   1      -1.791  -0.369   2.011  0.00  0.00    -0.073 C 
ATOM      3  C   LIG A   1      -1.112  -1.544   2.429  0.00  0.00    -0.027 C 
ATOM      4  C   LIG A   1       0.546  -1.875   1.852  0.00  0.00    +0.031 C 
ATOM      5  C   LIG A   1       1.199  -0.601   0.726  0.00  0.00    +0.003 C 
ATOM      6  C   LIG A   1       0.516   0.792  -0.134  0.00  0.00    +0.004 C 
ATOM      7  C   LIG A   1      -0.929   0.785   0.921  0.00  0.00    +0.024 C 
ATOM      8  C   LIG A   1       0.095  -0.088   1.348  0.00  0.00    -0.022 C 
ATOM      9  C   LIG A   1       0.469   0.542   2.762  0.00  0.00    +0.012 C 
ATOM     10  C   LIG A   1      -0.834  -1.129   0.005  0.00  0.00    +0.008 C 
ATOM     11  C   LIG A   1      -0.226  -0.990  -1.419  0.00  0.00    +0.004 C 
ATOM     12  C   LIG A   1       0.190   0.455  -1.573  0.00  0.00    -0.004 C 
ENDROOT
BRANCH  12  13
ATOM     13  C   LIG A   1       1.388   0.655  -2.524  0.00  0.00    -0.014 C 
ATOM     14  C   LIG A   1       1.716   2.142  -2.707  0.00  0.00    +0.007 C 
ATOM     15  C   LIG A   1       1.125   0.038  -3.903  0.00  0.00    +0.007 C 
ENDBRANCH  12  13
TORSDOF 1
