REMARK  Name = NuBBE_406
REMARK  3 active torsions:
REMARK  status: ('A' for Active; 'I' for Inactive)
REMARK    1  A    between atoms: C_1  and  C_2
REMARK    2  A    between atoms: C_4  and  O_5
REMARK    3  A    between atoms: C_16  and  O_17
REMARK                            x       y       z     vdW  Elec       q    Type
REMARK                         _______ _______ _______ _____ _____    ______ ____
ROOT
ATOM      1  C   LIG A   1      -4.589   1.152   0.006  0.00  0.00    +0.044 C 
ATOM      2  C   LIG A   1      -3.089   1.147   0.004  0.00  0.00    -0.046 A 
ATOM      3  C   LIG A   1      -2.356   2.337   0.002  0.00  0.00    +0.049 A 
ATOM      4  C   LIG A   1      -0.955   2.307  -0.000  0.00  0.00    +0.129 A 
ATOM      5  C   LIG A   1      -2.401  -0.068   0.004  0.00  0.00    +0.016 A 
ATOM      6  C   LIG A   1      -0.997  -0.097   0.002  0.00  0.00    +0.037 A 
ATOM      7  C   LIG A   1      -0.257   1.088   0.001  0.00  0.00    +0.074 A 
ATOM      8  C   LIG A   1       1.232   1.016  -0.001  0.00  0.00    +0.198 C 
ATOM      9  C   LIG A   1       1.893  -0.308  -0.002  0.00  0.00    +0.037 A 
ATOM     10  C   LIG A   1       1.139  -1.478  -0.001  0.00  0.00    +0.033 A 
ATOM     11  C   LIG A   1      -0.330  -1.413   0.002  0.00  0.00    +0.195 C 
ATOM     12  O   LIG A   1      -0.990  -2.446   0.004  0.00  0.00    -0.287 OA
ATOM     13  C   LIG A   1       1.774  -2.729  -0.001  0.00  0.00    +0.016 A 
ATOM     14  C   LIG A   1       3.167  -2.808  -0.004  0.00  0.00    +0.046 A 
ATOM     15  C   LIG A   1       3.913  -1.635  -0.005  0.00  0.00    +0.118 A 
ATOM     16  C   LIG A   1       3.292  -0.390  -0.004  0.00  0.00    +0.057 A 
ATOM     17  O   LIG A   1       1.940   2.014  -0.002  0.00  0.00    -0.286 OA
ENDROOT
BRANCH   4  18
ATOM     18  O   LIG A   1      -0.286   3.498  -0.003  0.00  0.00    -0.506 OA
ATOM     19  H   LIG A   1      -0.908   4.243  -0.007  0.00  0.00    +0.292 HD
ENDBRANCH   4  18
BRANCH  15  20
ATOM     20  O   LIG A   1       5.276  -1.665  -0.007  0.00  0.00    -0.507 OA
ATOM     21  H   LIG A   1       5.574  -2.590  -0.007  0.00  0.00    +0.292 HD
ENDBRANCH  15  20
TORSDOF 2
