@<TRIPOS>MOLECULE
NuBBE_1009
 23 24 0 0 0
SMALL
GASTEIGER

@<TRIPOS>ATOM
      1 O          -2.6968    1.2376    0.0004 O.2     1  LIG1       -0.2444
      2 C          -1.4679    1.2373    0.0008 C.ar    1  LIG1        0.3484
      3 C          -0.7343   -0.0453    0.0007 C.ar    1  LIG1        0.1118
      4 C          -1.4293   -1.2619   -0.0003 C.ar    1  LIG1        0.1768
      5 O          -2.7984   -1.3680   -0.0008 O.3     1  LIG1       -0.5027
      6 C          -0.7181   -2.4569   -0.0012 C.ar    1  LIG1        0.2014
      7 O          -1.3751   -3.6581   -0.0024 O.3     1  LIG1       -0.5009
      8 C           0.6705   -2.4512   -0.0009 C.ar    1  LIG1        0.1626
      9 O           1.3600   -3.6282   -0.0026 O.3     1  LIG1       -0.5032
     10 C           1.3723   -1.2529    0.0006 C.ar    1  LIG1       -0.0082
     11 C           0.6682   -0.0406    0.0012 C.ar    1  LIG1       -0.0007
     12 C           1.3832    1.2266    0.0018 C.ar    1  LIG1       -0.0156
     13 C           0.6831    2.3668    0.0014 C.ar    1  LIG1        0.1067
     14 C           1.3107    3.7239    0.0011 C.3     1  LIG1       -0.0062
     15 O          -0.7306    2.3852    0.0010 O.2     1  LIG1       -0.4270
     16 H          -3.1766   -0.4576   -0.0005 H       1  LIG1        0.2923
     17 H          -2.3254   -3.4159   -0.0018 H       1  LIG1        0.2924
     18 H           0.6701   -4.3231   -0.0047 H       1  LIG1        0.2923
     19 H           2.4590   -1.2752    0.0009 H       1  LIG1        0.0661
     20 H           2.4684    1.2211    0.0021 H       1  LIG1        0.0657
     21 H           2.4043    3.6690    0.0007 H       1  LIG1        0.0308
     22 H           1.0017    4.2838    0.8894 H       1  LIG1        0.0308
     23 H           1.0011    4.2836   -0.8871 H       1  LIG1        0.0308
@<TRIPOS>BOND
     1     1     2    2
     2     2     3   ar
     3     3     4   ar
     4     4     5    1
     5     4     6   ar
     6     6     7    1
     7     6     8   ar
     8     8     9    1
     9     8    10   ar
    10    10    11   ar
    11     3    11   ar
    12    11    12   ar
    13    12    13   ar
    14    13    14    1
    15    13    15   ar
    16     2    15   ar
    17     5    16    1
    18     7    17    1
    19     9    18    1
    20    10    19    1
    21    12    20    1
    22    14    21    1
    23    14    22    1
    24    14    23    1
