@<TRIPOS>MOLECULE
NuBBE_1717
 56 59 0 0 0
SMALL
GASTEIGER

@<TRIPOS>ATOM
      1 C          -2.5161   -0.2635    1.6268 C.3     1  LIG1       -0.0589
      2 C          -1.0685    0.2727    1.3881 C.3     1  LIG1       -0.0227
      3 C          -0.8824    0.6555   -0.1191 C.3     1  LIG1       -0.0221
      4 H           0.1718    0.9233   -0.2286 H       1  LIG1        0.0314
      5 C          -1.1647   -0.5592   -1.0878 C.3     1  LIG1        0.0082
      6 H          -2.2621   -0.6122   -1.1874 H       1  LIG1        0.0341
      7 C          -0.6619   -0.2841   -2.5448 C.3     1  LIG1        0.0901
      8 H          -1.0689   -1.0561   -3.2116 H       1  LIG1        0.0467
      9 C           0.8595   -0.2665   -2.6846 C.2     1  LIG1        0.3148
     10 O           1.6152    0.4974   -2.0841 O.2     1  LIG1       -0.2502
     11 O           1.2596   -1.1427   -3.6492 O.3     1  LIG1       -0.4675
     12 C           2.6103   -0.9845   -4.0862 C.3     1  LIG1        0.0817
     13 C          -1.2098    1.0425   -2.9851 C.ar    1  LIG1        0.0076
     14 C          -1.6300    1.9949   -2.0840 C.ar    1  LIG1        0.1091
     15 C          -1.6692    1.9165   -0.6019 C.3     1  LIG1        0.0095
     16 O          -2.0939    3.0981   -2.7157 O.2     1  LIG1       -0.4675
     17 C          -1.9620    2.8515   -4.0487 C.ar    1  LIG1        0.0924
     18 C          -1.4302    1.5980   -4.2668 C.ar    1  LIG1       -0.0197
     19 C          -0.7779   -1.9232   -0.5064 C.3     1  LIG1        0.0855
     20 H          -1.6655   -2.4175   -0.0970 H       1  LIG1        0.0622
     21 C           0.2810   -1.8465    0.5916 C.3     1  LIG1        0.0851
     22 H           1.2146   -1.6050    0.0834 H       1  LIG1        0.0622
     23 C          -0.0074   -0.8581    1.7660 C.3     1  LIG1       -0.0017
     24 H          -0.4969   -1.4407    2.5613 H       1  LIG1        0.0337
     25 C           1.3629   -0.3702    2.4313 C.3     1  LIG1       -0.0291
     26 C           1.9620   -1.5162    3.2857 C.3     1  LIG1       -0.0595
     27 C           2.4636    0.0433    1.4219 C.3     1  LIG1       -0.0595
     28 C           1.1289    0.8206    3.3818 C.3     1  LIG1       -0.0475
     29 C           0.4064    1.9612    2.6902 C.3     1  LIG1       -0.0521
     30 C          -0.9906    1.5031    2.3382 C.3     1  LIG1       -0.0470
     31 O           0.4691   -3.1812    1.0934 O.3     1  LIG1       -0.3889
     32 O          -0.3339   -2.8097   -1.5362 O.3     1  LIG1       -0.3889
     33 H          -2.7933   -1.1107    1.0024 H       1  LIG1        0.0235
     34 H          -3.2619    0.5197    1.4496 H       1  LIG1        0.0235
     35 H          -2.6422   -0.5929    2.6655 H       1  LIG1        0.0235
     36 H           3.2952   -0.7073   -3.2779 H       1  LIG1        0.0661
     37 H           2.6274   -0.2237   -4.8721 H       1  LIG1        0.0661
     38 H           2.9482   -1.9321   -4.5120 H       1  LIG1        0.0661
     39 H          -2.7148    1.8704   -0.2821 H       1  LIG1        0.0346
     40 H          -1.2221    2.8245   -0.1837 H       1  LIG1        0.0346
     41 H          -2.2888    3.6484   -4.7018 H       1  LIG1        0.1029
     42 H          -1.2304    1.1499   -5.2302 H       1  LIG1        0.0652
     43 H           1.2402   -1.8814    4.0247 H       1  LIG1        0.0235
     44 H           2.8487   -1.1762    3.8340 H       1  LIG1        0.0235
     45 H           2.2734   -2.3653    2.6699 H       1  LIG1        0.0235
     46 H           2.0965    0.7345    0.6620 H       1  LIG1        0.0235
     47 H           2.9061   -0.8186    0.9119 H       1  LIG1        0.0235
     48 H           3.2964    0.5413    1.9335 H       1  LIG1        0.0235
     49 H           2.0828    1.1897    3.7799 H       1  LIG1        0.0271
     50 H           0.5459    0.4941    4.2537 H       1  LIG1        0.0271
     51 H           0.3434    2.8139    3.3764 H       1  LIG1        0.0266
     52 H           0.9419    2.3126    1.8031 H       1  LIG1        0.0266
     53 H          -1.5591    2.3504    1.9412 H       1  LIG1        0.0271
     54 H          -1.4918    1.2592    3.2864 H       1  LIG1        0.0271
     55 H          -0.3185   -3.4210    1.6135 H       1  LIG1        0.2099
     56 H           0.1638   -3.5210   -1.0825 H       1  LIG1        0.2099
@<TRIPOS>BOND
     1     2     3    1
     2     3     5    1
     3     5     7    1
     4     9    10    2
     5     9    11    1
     6    11    12    1
     7     7    13    1
     8    13    14   ar
     9    14    15    1
    10     3    15    1
    11    14    16   ar
    12    16    17   ar
    13    17    18   ar
    14    13    18   ar
    15     5    19    1
    16    19    21    1
    17    21    23    1
    18     2    23    1
    19    23    25    1
    20    25    28    1
    21    28    29    1
    22    29    30    1
    23     2    30    1
    24     1     2    1
    25     3     4    1
    26     5     6    1
    27    21    22    1
    28    21    31    1
    29    23    24    1
    30    25    26    1
    31    25    27    1
    32     7     9    1
    33     7     8    1
    34    19    32    1
    35    19    20    1
    36     1    33    1
    37     1    34    1
    38     1    35    1
    39    12    36    1
    40    12    37    1
    41    12    38    1
    42    15    39    1
    43    15    40    1
    44    17    41    1
    45    18    42    1
    46    26    43    1
    47    26    44    1
    48    26    45    1
    49    27    46    1
    50    27    47    1
    51    27    48    1
    52    28    49    1
    53    28    50    1
    54    29    51    1
    55    29    52    1
    56    30    53    1
    57    30    54    1
    58    31    55    1
    59    32    56    1
