REMARK  Name = NuBBE_1722
REMARK  10 active torsions:
REMARK  status: ('A' for Active; 'I' for Inactive)
REMARK    1  A    between atoms: C_1  and  C_2
REMARK    2  A    between atoms: C_7  and  C_9
REMARK    3  A    between atoms: C_9  and  O_11
REMARK    4  A    between atoms: O_11  and  C_12
REMARK    5  A    between atoms: C_19  and  O_32
REMARK    6  A    between atoms: C_21  and  O_31
REMARK    7  A    between atoms: C_25  and  C_26
REMARK    8  A    between atoms: C_25  and  C_27
REMARK    9  A    between atoms: O_32  and  C_33
REMARK   10  A    between atoms: C_33  and  C_35
REMARK                            x       y       z     vdW  Elec       q    Type
REMARK                         _______ _______ _______ _____ _____    ______ ____
ROOT
ATOM      1  C   LIG A   1      -2.540  -0.560   1.560  0.00  0.00    +0.012 C 
ATOM      2  C   LIG A   1      -1.137   0.126   1.587  0.00  0.00    -0.023 C 
ATOM      3  C   LIG A   1      -0.879   0.910   0.258  0.00  0.00    +0.010 C 
ATOM      4  C   LIG A   1      -0.912  -0.009  -1.019  0.00  0.00    +0.054 C 
ATOM      5  C   LIG A   1      -0.296   0.732  -2.270  0.00  0.00    +0.138 C 
ATOM      6  C   LIG A   1      -1.036   2.035  -2.426  0.00  0.00    +0.008 A 
ATOM      7  C   LIG A   1      -1.675   2.639  -1.365  0.00  0.00    +0.109 A 
ATOM      8  C   LIG A   1      -1.800   2.160   0.035  0.00  0.00    +0.079 C 
ATOM      9  O   LIG A   1      -2.285   3.785  -1.745  0.00  0.00    -0.468 OA
ATOM     10  C   LIG A   1      -2.027   3.925  -3.075  0.00  0.00    +0.195 A 
ATOM     11  C   LIG A   1      -1.274   2.868  -3.544  0.00  0.00    +0.045 A 
ATOM     12  C   LIG A   1      -0.514  -1.480  -0.770  0.00  0.00    +0.210 C 
ATOM     13  C   LIG A   1       0.390  -1.714   0.451  0.00  0.00    +0.159 C 
ATOM     14  C   LIG A   1      -0.006  -0.976   1.778  0.00  0.00    +0.033 C 
ATOM     15  C   LIG A   1       1.299  -0.540   2.597  0.00  0.00    -0.029 C 
ATOM     16  C   LIG A   1       1.958  -1.799   3.218  0.00  0.00    +0.011 C 
ATOM     17  C   LIG A   1       2.397   0.153   1.752  0.00  0.00    +0.011 C 
ATOM     18  C   LIG A   1       0.946   0.404   3.766  0.00  0.00    +0.007 C 
ATOM     19  C   LIG A   1       0.110   1.587   3.312  0.00  0.00    +0.001 C 
ATOM     20  C   LIG A   1      -1.225   1.071   2.821  0.00  0.00    +0.007 C 
ENDROOT
BRANCH   5  21
ATOM     21  C   LIG A   1       1.213   1.004  -2.158  0.00  0.00    +0.315 C 
ATOM     22  O   LIG A   1       1.727   2.010  -1.701  0.00  0.00    -0.250 OA
BRANCH  21  23
ATOM     23  O   LIG A   1       1.913  -0.075  -2.619  0.00  0.00    -0.468 OA
ATOM     24  C   LIG A   1       3.322  -0.043  -2.371  0.00  0.00    +0.280 C 
ENDBRANCH  21  23
ENDBRANCH   5  21
BRANCH  13  25
ATOM     25  O   LIG A   1       0.448  -3.128   0.728  0.00  0.00    -0.388 OA
ATOM     26  H   LIG A   1      -0.448  -3.438   0.951  0.00  0.00    +0.210 HD
ENDBRANCH  13  25
BRANCH  12  27
ATOM     27  O   LIG A   1       0.054  -2.078  -1.959  0.00  0.00    -0.459 OA
BRANCH  27  28
ATOM     28  C   LIG A   1      -0.845  -2.569  -2.853  0.00  0.00    +0.304 C 
ATOM     29  O   LIG A   1      -2.061  -2.576  -2.689  0.00  0.00    -0.251 OA
ATOM     30  C   LIG A   1      -0.190  -3.089  -4.091  0.00  0.00    +0.136 C 
ENDBRANCH  27  28
ENDBRANCH  12  27
TORSDOF 5
