REMARK  Name = NuBBE_1463
REMARK  11 active torsions:
REMARK  status: ('A' for Active; 'I' for Inactive)
REMARK    1  A    between atoms: C_1  and  C_2
REMARK    2  A    between atoms: C_4  and  C_5
REMARK    3  A    between atoms: C_10  and  C_11
REMARK    4  A    between atoms: C_10  and  C_12
REMARK    5  A    between atoms: C_13  and  C_15
REMARK    6  A    between atoms: C_15  and  C_16
REMARK    7  A    between atoms: C_16  and  O_17
REMARK    8  A    between atoms: O_17  and  C_18
REMARK    9  A    between atoms: C_22  and  C_23
REMARK   10  A    between atoms: C_24  and  C_26
REMARK   11  A    between atoms: C_33  and  O_35
REMARK                            x       y       z     vdW  Elec       q    Type
REMARK                         _______ _______ _______ _____ _____    ______ ____
ROOT
ATOM      1  C   LIG A   1       2.302   1.286  -2.479  0.00  0.00    +0.057 C 
ATOM      2  C   LIG A   1       1.754   1.111  -1.092  0.00  0.00    +0.124 C 
ATOM      3  C   LIG A   1       0.816  -0.026  -0.718  0.00  0.00    +0.036 C 
ATOM      4  C   LIG A   1       1.624  -0.861   0.337  0.00  0.00    +0.040 C 
ATOM      5  C   LIG A   1       2.076  -2.200  -0.317  0.00  0.00    +0.020 C 
ATOM      6  C   LIG A   1       2.876  -0.008   0.537  0.00  0.00    +0.109 C 
ATOM      7  O   LIG A   1       2.855   1.180  -0.159  0.00  0.00    -0.488 OA
ATOM      8  C   LIG A   1       3.873  -0.290   1.375  0.00  0.00    +0.088 C 
ATOM      9  C   LIG A   1       3.506  -1.315   2.363  0.00  0.00    +0.165 C 
ATOM     10  C   LIG A   1       2.092  -1.164   2.955  0.00  0.00    +0.032 C 
ATOM     11  C   LIG A   1       2.078   0.183   3.726  0.00  0.00    +0.019 C 
ATOM     12  C   LIG A   1       1.909  -2.250   4.039  0.00  0.00    +0.019 C 
ATOM     13  C   LIG A   1       0.983  -1.132   1.771  0.00  0.00    +0.027 C 
ATOM     14  O   LIG A   1       4.315  -2.176   2.688  0.00  0.00    -0.292 OA
ATOM     15  C   LIG A   1       0.312   1.429  -0.641  0.00  0.00    +0.066 C 
ATOM     16  C   LIG A   1      -0.823   1.616  -1.705  0.00  0.00    +0.022 C 
ATOM     17  C   LIG A   1      -0.532   2.856  -2.589  0.00  0.00    +0.016 C 
ATOM     18  C   LIG A   1      -2.198   1.823  -0.974  0.00  0.00    +0.216 C 
ATOM     19  O   LIG A   1      -2.134   3.021  -0.168  0.00  0.00    -0.454 OA
ATOM     20  C   LIG A   1      -1.052   3.213   0.619  0.00  0.00    +0.337 C 
ATOM     21  C   LIG A   1      -0.047   2.059   0.702  0.00  0.00    +0.234 C 
ATOM     22  O   LIG A   1      -0.915   4.235   1.289  0.00  0.00    -0.248 OA
ATOM     23  C   LIG A   1      -0.824   0.296  -2.526  0.00  0.00    +0.012 C 
ATOM     24  C   LIG A   1       0.107  -0.726  -1.853  0.00  0.00    +0.013 C 
ENDROOT
BRANCH  18  25
ATOM     25  C   LIG A   1      -3.401   1.924  -1.889  0.00  0.00    +0.031 A 
ATOM     26  C   LIG A   1      -3.940   3.064  -2.462  0.00  0.00    +0.202 A 
ATOM     27  O   LIG A   1      -5.029   2.770  -3.216  0.00  0.00    -0.471 OA
ATOM     28  C   LIG A   1      -5.223   1.432  -3.121  0.00  0.00    +0.195 A 
ATOM     29  C   LIG A   1      -4.263   0.867  -2.315  0.00  0.00    +0.048 A 
ENDBRANCH  18  25
BRANCH  21  30
ATOM     30  O   LIG A   1       1.110   2.499   1.400  0.00  0.00    -0.380 OA
ATOM     31  H   LIG A   1       0.856   3.310   1.886  0.00  0.00    +0.210 HD
ENDBRANCH  21  30
BRANCH  13  32
ATOM     32  C   LIG A   1       0.093  -2.389   1.865  0.00  0.00    +0.126 C 
BRANCH  32  33
ATOM     33  C   LIG A   1      -1.127  -2.479   0.981  0.00  0.00    +0.307 C 
ATOM     34  O   LIG A   1      -1.804  -1.542   0.610  0.00  0.00    -0.251 OA
BRANCH  33  35
ATOM     35  O   LIG A   1      -1.411  -3.807   0.817  0.00  0.00    -0.468 OA
ATOM     36  C   LIG A   1      -2.730  -4.139   0.383  0.00  0.00    +0.280 C 
ENDBRANCH  33  35
ENDBRANCH  32  33
ENDBRANCH  13  32
TORSDOF 5
