REMARK  Name = NuBBE_1757
REMARK  5 active torsions:
REMARK  status: ('A' for Active; 'I' for Inactive)
REMARK    1  A    between atoms: C_1  and  O_3
REMARK    2  A    between atoms: C_1  and  C_5
REMARK    3  A    between atoms: O_3  and  C_4
REMARK    4  A    between atoms: C_14  and  C_16
REMARK    5  A    between atoms: C_16  and  C_17
REMARK                            x       y       z     vdW  Elec       q    Type
REMARK                         _______ _______ _______ _____ _____    ______ ____
ROOT
ATOM      1  C   LIG A   1      -0.593  -0.376  -0.790  0.00  0.00    +0.123 C 
ATOM      2  C   LIG A   1       0.924   0.075  -1.161  0.00  0.00    +0.082 C 
ATOM      3  N   LIG A   1       0.798   1.103  -2.159  0.00  0.00    -0.297 NA
ATOM      4  C   LIG A   1       0.068   0.454  -3.288  0.00  0.00    +0.088 C 
ATOM      5  C   LIG A   1      -0.092  -1.143  -3.065  0.00  0.00    +0.005 C 
ATOM      6  C   LIG A   1      -0.809  -1.560  -1.702  0.00  0.00    +0.030 C 
ATOM      7  C   LIG A   1       1.332  -1.687  -2.933  0.00  0.00    +0.010 C 
ATOM      8  C   LIG A   1       1.912  -1.038  -1.671  0.00  0.00    +0.008 C 
ATOM      9  C   LIG A   1       0.214   2.303  -1.480  0.00  0.00    +0.089 C 
ATOM     10  C   LIG A   1       0.130   2.429   0.143  0.00  0.00    +0.053 C 
ATOM     11  C   LIG A   1      -0.211   1.217   1.071  0.00  0.00    -0.017 A 
ATOM     12  C   LIG A   1      -0.517  -0.084   0.655  0.00  0.00    +0.039 A 
ATOM     13  N   LIG A   1      -0.682  -0.896   1.729  0.00  0.00    -0.357 N 
ATOM     14  H   LIG A   1      -0.923  -1.878   1.709  0.00  0.00    +0.166 HD
ATOM     15  C   LIG A   1      -0.409  -0.177   2.874  0.00  0.00    +0.047 A 
ATOM     16  C   LIG A   1      -0.124   1.144   2.496  0.00  0.00    +0.003 A 
ATOM     17  C   LIG A   1       0.213   2.072   3.500  0.00  0.00    +0.010 A 
ATOM     18  C   LIG A   1       0.262   1.657   4.836  0.00  0.00    +0.001 A 
ATOM     19  C   LIG A   1      -0.026   0.339   5.181  0.00  0.00    +0.002 A 
ATOM     20  C   LIG A   1      -0.373  -0.602   4.208  0.00  0.00    +0.026 A 
ENDROOT
BRANCH   1  21
ATOM     21  C   LIG A   1      -2.042   0.333  -1.058  0.00  0.00    +0.321 C 
ATOM     22  O   LIG A   1      -2.375   1.117  -1.929  0.00  0.00    -0.250 OA
BRANCH  21  23
ATOM     23  O   LIG A   1      -2.979  -0.220  -0.198  0.00  0.00    -0.467 OA
ATOM     24  C   LIG A   1      -4.295   0.314  -0.342  0.00  0.00    +0.280 C 
ENDBRANCH  21  23
ENDBRANCH   1  21
BRANCH   8  25
ATOM     25  C   LIG A   1       2.310  -2.093  -0.615  0.00  0.00    +0.002 C 
ATOM     26  C   LIG A   1       2.914  -1.516   0.659  0.00  0.00    +0.004 C 
ENDBRANCH   8  25
TORSDOF 3
