REMARK  Name = NuBBE_427
REMARK  5 active torsions:
REMARK  status: ('A' for Active; 'I' for Inactive)
REMARK    1  A    between atoms: C_2  and  C_8
REMARK    2  A    between atoms: C_9  and  C_10
REMARK    3  A    between atoms: C_11  and  C_12
REMARK    4  A    between atoms: C_12  and  C_13
REMARK    5  A    between atoms: C_13  and  C_14
REMARK                            x       y       z     vdW  Elec       q    Type
REMARK                         _______ _______ _______ _____ _____    ______ ____
ROOT
ATOM      1  C   LIG A   1      -0.216  -1.991   2.073  0.00  0.00    -0.004 C 
ATOM      2  C   LIG A   1       1.033  -2.422   2.319  0.00  0.00    -0.026 C 
ENDROOT
BRANCH   1   4
ATOM      3  C   LIG A   1      -1.776  -0.042   1.883  0.00  0.00    +0.067 C 
ATOM      4  C   LIG A   1      -0.706  -0.670   2.383  0.00  0.00    +0.005 C 
BRANCH   3   6
ATOM      5  O   LIG A   1      -3.204  -1.658   0.908  0.00  0.00    -0.271 OA
ATOM      6  C   LIG A   1      -2.718  -0.539   0.844  0.00  0.00    +0.239 C 
ATOM      7  N   LIG A   1      -3.026   0.378  -0.144  0.00  0.00    -0.298 N 
ATOM      8  C   LIG A   1      -2.459   1.704  -0.331  0.00  0.00    +0.108 C 
ATOM      9  C   LIG A   1      -3.418   2.390  -1.289  0.00  0.00    +0.020 C 
ATOM     10  C   LIG A   1      -3.923   1.246  -2.156  0.00  0.00    +0.020 C 
ATOM     11  C   LIG A   1      -3.978   0.061  -1.196  0.00  0.00    +0.108 C 
ENDBRANCH   3   6
ENDBRANCH   1   4
BRANCH   2  12
ATOM     12  C   LIG A   1       2.201  -1.614   2.833  0.00  0.00    +0.032 C 
BRANCH  12  13
ATOM     13  C   LIG A   1       3.378  -1.576   1.846  0.00  0.00    +0.039 C 
BRANCH  13  14
ATOM     14  C   LIG A   1       3.023  -0.947   0.517  0.00  0.00    -0.043 A 
ATOM     15  C   LIG A   1       2.524  -1.752  -0.535  0.00  0.00    +0.007 A 
ATOM     16  C   LIG A   1       2.154  -1.192  -1.760  0.00  0.00    +0.050 A 
ATOM     17  C   LIG A   1       2.313   0.166  -1.914  0.00  0.00    +0.166 A 
ATOM     18  C   LIG A   1       2.799   0.958  -0.899  0.00  0.00    +0.167 A 
ATOM     19  O   LIG A   1       2.889   2.266  -1.262  0.00  0.00    -0.453 OA
ATOM     20  C   LIG A   1       2.470   2.192  -2.641  0.00  0.00    +0.466 C 
ATOM     21  O   LIG A   1       2.033   0.877  -3.039  0.00  0.00    -0.453 OA
ATOM     22  C   LIG A   1       3.149   0.438   0.329  0.00  0.00    +0.053 A 
ENDBRANCH  13  14
ENDBRANCH  12  13
ENDBRANCH   2  12
TORSDOF 5
