REMARK  Name = NuBBE_2447
REMARK  3 active torsions:
REMARK  status: ('A' for Active; 'I' for Inactive)
REMARK    1  A    between atoms: C_6  and  C_11
REMARK    2  A    between atoms: C_8  and  O_10
REMARK    3  A    between atoms: C_18  and  O_21
REMARK                            x       y       z     vdW  Elec       q    Type
REMARK                         _______ _______ _______ _____ _____    ______ ____
ROOT
ATOM      1  O   LIG A   1      -2.278   0.046   2.313  0.00  0.00    -0.289 OA
ATOM      2  C   LIG A   1      -1.150   0.233   1.866  0.00  0.00    +0.199 C 
ATOM      3  C   LIG A   1      -0.284  -0.906   1.508  0.00  0.00    +0.062 A 
ATOM      4  C   LIG A   1       0.971  -0.653   0.950  0.00  0.00    +0.136 A 
ATOM      5  O   LIG A   1       1.442   0.605   0.676  0.00  0.00    -0.480 OA
ATOM      6  C   LIG A   1       0.407   1.601   0.483  0.00  0.00    +0.240 C 
ATOM      7  C   LIG A   1      -0.544   1.614   1.691  0.00  0.00    +0.230 C 
ATOM      8  C   LIG A   1       1.834  -1.712   0.666  0.00  0.00    +0.091 A 
ATOM      9  C   LIG A   1       1.417  -3.017   0.918  0.00  0.00    +0.120 A 
ATOM     10  C   LIG A   1       0.160  -3.277   1.455  0.00  0.00    +0.046 A 
ATOM     11  C   LIG A   1      -0.697  -2.218   1.756  0.00  0.00    +0.019 A 
ENDROOT
BRANCH   6  12
ATOM     12  C   LIG A   1      -0.181   1.496  -0.920  0.00  0.00    -0.004 A 
ATOM     13  C   LIG A   1      -1.560   1.466  -1.182  0.00  0.00    +0.007 A 
ATOM     14  C   LIG A   1      -2.036   1.378  -2.494  0.00  0.00    +0.000 A 
ATOM     15  C   LIG A   1      -1.146   1.327  -3.563  0.00  0.00    +0.000 A 
ATOM     16  C   LIG A   1       0.224   1.366  -3.325  0.00  0.00    +0.000 A 
ATOM     17  C   LIG A   1       0.701   1.453  -2.016  0.00  0.00    +0.007 A 
ENDBRANCH   6  12
BRANCH   7  18
ATOM     18  O   LIG A   1       0.154   2.005   2.879  0.00  0.00    -0.380 OA
ATOM     19  H   LIG A   1       0.939   1.434   2.965  0.00  0.00    +0.210 HD
ENDBRANCH   7  18
BRANCH   9  20
ATOM     20  O   LIG A   1       2.222  -4.083   0.648  0.00  0.00    -0.507 OA
ATOM     21  H   LIG A   1       3.053  -3.763   0.260  0.00  0.00    +0.292 HD
ENDBRANCH   9  20
TORSDOF 3
