@<TRIPOS>MOLECULE
NuBBE_850
 24 25 0 0 0
SMALL
GASTEIGER

@<TRIPOS>ATOM
      1 O          -1.5516    1.5883    2.4481 O.2     1  GLY1       -0.2739
      2 C          -0.8827    1.4879    1.4226 C.2     1  GLY1        0.2334
      3 CA         -0.4776    2.7182    0.5941 C.3     1  GLY1        0.0884
      4 N           0.4628    2.5130   -0.4987 N.am    1  GLY1       -0.3052
      5 C           0.5971    1.2817   -1.1052 C.2     2  ILE2        0.2342
      6 O           1.0387    1.1962   -2.2458 O.2     2  ILE2       -0.2738
      7 N          -0.6319    0.2869    0.8027 N.am    2  ILE2       -0.2884
      8 CA          0.4644    0.1064   -0.1356 C.3     2  ILE2        0.1048
      9 CB          0.1498   -1.2543   -0.7567 C.3     2  ILE2       -0.0153
     10 CG2         1.3453   -1.9445   -1.3935 C.3     2  ILE2       -0.0602
     11 CG1        -0.3948   -2.0297    0.4558 C.3     2  ILE2       -0.0324
     12 CD1        -1.1612   -0.9811    1.2580 C.3     2  ILE2        0.0158
     13 HA          1.3901    0.0662    0.4546 H       2  ILE2        0.0599
     14 HA1        -0.0380    3.4652    1.2611 H       1  GLY1        0.0558
     15 HA2        -1.3909    3.1282    0.1498 H       1  GLY1        0.0558
     16 H           0.6206    3.2896   -1.1289 H       1  GLY1        0.1492
     17 HB         -0.6469   -1.1509   -1.5055 H       2  ILE2        0.0321
     18 HG21        2.1791   -2.0359   -0.6900 H       2  ILE2        0.0233
     19 HG22        1.7006   -1.3888   -2.2665 H       2  ILE2        0.0233
     20 HG23        1.0732   -2.9515   -1.7273 H       2  ILE2        0.0233
     21 HG11        0.4311   -2.4219    1.0624 H       2  ILE2        0.0284
     22 HG12       -1.0271   -2.8750    0.1680 H       2  ILE2        0.0284
     23 HD11       -1.0164   -1.0941    2.3372 H       2  ILE2        0.0465
     24 HD12       -2.2337   -1.0002    1.0394 H       2  ILE2        0.0465
@<TRIPOS>BOND
     1     2     3    1
     2     3     4    1
     3     4     5   am
     4     2     7   am
     5     7     8    1
     6     8     9    1
     7     9    11    1
     8    11    12    1
     9     7    12    1
    10     5     8    1
    11     1     2    2
    12     5     6    2
    13     8    13    1
    14     9    10    1
    15     3    14    1
    16     3    15    1
    17     4    16    1
    18     9    17    1
    19    10    18    1
    20    10    19    1
    21    10    20    1
    22    11    21    1
    23    11    22    1
    24    12    23    1
    25    12    24    1
