@<TRIPOS>MOLECULE
NuBBE_2119
 35 34 0 0 0
SMALL
GASTEIGER

@<TRIPOS>ATOM
      1 C          -3.5683   -1.4747    3.1348 C.3     1  LIG1       -0.0653
      2 C          -3.9963   -0.2829    2.2890 C.3     1  LIG1       -0.0559
      3 C          -3.1887    0.9765    2.6203 C.3     1  LIG1       -0.0533
      4 C          -1.6642    0.8711    2.4132 C.3     1  LIG1       -0.0531
      5 C          -1.2628    0.6285    0.9474 C.3     1  LIG1       -0.0531
      6 C           0.2625    0.5781    0.6979 C.3     1  LIG1       -0.0531
      7 C           0.5918    0.2728   -0.7867 C.3     1  LIG1       -0.0531
      8 C           2.1026    0.1866   -1.1071 C.3     1  LIG1       -0.0531
      9 C           2.3951   -0.1098   -2.6000 C.3     1  LIG1       -0.0533
     10 C           3.8949   -0.3396   -2.8767 C.3     1  LIG1       -0.0559
     11 C           4.2283   -0.6179   -4.3428 C.3     1  LIG1       -0.0653
     12 H          -4.2948   -2.2891    3.0462 H       1  LIG1        0.0230
     13 H          -3.4935   -1.1990    4.1910 H       1  LIG1        0.0230
     14 H          -2.5975   -1.8568    2.8066 H       1  LIG1        0.0230
     15 H          -5.0556   -0.0803    2.4791 H       1  LIG1        0.0263
     16 H          -3.9126   -0.5322    1.2270 H       1  LIG1        0.0263
     17 H          -3.3822    1.2439    3.6659 H       1  LIG1        0.0265
     18 H          -3.5790    1.8112    2.0185 H       1  LIG1        0.0265
     19 H          -1.2644    0.0655    3.0497 H       1  LIG1        0.0265
     20 H          -1.2103    1.7980    2.7746 H       1  LIG1        0.0265
     21 H          -1.6920    1.4392    0.3362 H       1  LIG1        0.0265
     22 H          -1.7071   -0.3030    0.6038 H       1  LIG1        0.0265
     23 H           0.7009   -0.2095    1.3348 H       1  LIG1        0.0265
     24 H           0.7168    1.5245    0.9951 H       1  LIG1        0.0265
     25 H           0.1404    1.0568   -1.4128 H       1  LIG1        0.0265
     26 H           0.1182   -0.6713   -1.0656 H       1  LIG1        0.0265
     27 H           2.5475   -0.6076   -0.4923 H       1  LIG1        0.0265
     28 H           2.5917    1.1243   -0.8249 H       1  LIG1        0.0265
     29 H           2.0392    0.7274   -3.2135 H       1  LIG1        0.0265
     30 H           1.8379   -0.9997   -2.9148 H       1  LIG1        0.0265
     31 H           4.2456   -1.1923   -2.2836 H       1  LIG1        0.0263
     32 H           4.4697    0.5360   -2.5547 H       1  LIG1        0.0263
     33 H           3.7200   -1.5144   -4.7119 H       1  LIG1        0.0230
     34 H           5.3069   -0.7846   -4.4551 H       1  LIG1        0.0230
     35 H           3.9594    0.2241   -4.9888 H       1  LIG1        0.0230
@<TRIPOS>BOND
     1     1     2    1
     2     2     3    1
     3     3     4    1
     4     4     5    1
     5     5     6    1
     6     6     7    1
     7     7     8    1
     8     8     9    1
     9     9    10    1
    10    10    11    1
    11     1    12    1
    12     1    13    1
    13     1    14    1
    14     2    15    1
    15     2    16    1
    16     3    17    1
    17     3    18    1
    18     4    19    1
    19     4    20    1
    20     5    21    1
    21     5    22    1
    22     6    23    1
    23     6    24    1
    24     7    25    1
    25     7    26    1
    26     8    27    1
    27     8    28    1
    28     9    29    1
    29     9    30    1
    30    10    31    1
    31    10    32    1
    32    11    33    1
    33    11    34    1
    34    11    35    1
