REMARK  Name = NuBBE_1355
REMARK  14 active torsions:
REMARK  status: ('A' for Active; 'I' for Inactive)
REMARK    1  A    between atoms: C_1  and  C_2
REMARK    2  A    between atoms: C_2  and  C_3
REMARK    3  A    between atoms: C_4  and  O_6
REMARK    4  A    between atoms: O_6  and  C_7
REMARK    5  A    between atoms: C_7  and  C_8
REMARK    6  A    between atoms: C_12  and  C_13
REMARK    7  A    between atoms: C_17  and  C_18
REMARK    8  A    between atoms: C_23  and  C_24
REMARK    9  A    between atoms: C_26  and  O_28
REMARK   10  A    between atoms: O_28  and  C_29
REMARK   11  A    between atoms: C_29  and  C_30
REMARK   12  A    between atoms: C_32  and  C_33
REMARK   13  A    between atoms: C_35  and  C_37
REMARK   14  A    between atoms: C_38  and  C_40
REMARK                            x       y       z     vdW  Elec       q    Type
REMARK                         _______ _______ _______ _____ _____    ______ ____
ROOT
ATOM      1  C   LIG A   1      -2.452  -4.576  -1.752  0.00  0.00    +0.015 C 
ATOM      2  C   LIG A   1      -3.300  -3.397  -1.216  0.00  0.00    +0.006 C 
ATOM      3  C   LIG A   1      -4.744  -3.748  -1.703  0.00  0.00    +0.015 C 
ATOM      4  C   LIG A   1      -3.297  -3.402   0.343  0.00  0.00    +0.182 C 
ATOM      5  C   LIG A   1      -4.163  -2.284   0.946  0.00  0.00    +0.046 C 
ATOM      6  C   LIG A   1      -4.383  -1.073   0.042  0.00  0.00    +0.015 C 
ATOM      7  C   LIG A   1      -3.193  -0.728  -0.891  0.00  0.00    -0.007 C 
ATOM      8  C   LIG A   1      -3.725   0.425  -1.800  0.00  0.00    +0.016 C 
ATOM      9  C   LIG A   1      -2.869  -1.974  -1.812  0.00  0.00    +0.008 C 
ATOM     10  C   LIG A   1      -1.466  -1.910  -2.481  0.00  0.00    +0.006 C 
ATOM     11  C   LIG A   1      -0.661  -0.619  -2.260  0.00  0.00    +0.012 C 
ATOM     12  C   LIG A   1      -0.563  -0.213  -0.768  0.00  0.00    -0.001 C 
ATOM     13  C   LIG A   1       0.248  -1.327  -0.074  0.00  0.00    +0.016 C 
ATOM     14  C   LIG A   1      -1.974  -0.167  -0.120  0.00  0.00    -0.057 C 
ATOM     15  C   LIG A   1      -2.092   0.505   1.051  0.00  0.00    +0.000 C 
ATOM     16  C   LIG A   1      -0.973   1.164   1.690  0.00  0.00    +0.000 C 
ATOM     17  C   LIG A   1       0.136   1.508   1.003  0.00  0.00    -0.059 C 
ATOM     18  C   LIG A   1       0.154   1.213  -0.514  0.00  0.00    +0.002 C 
ATOM     19  C   LIG A   1      -0.645   2.302  -1.302  0.00  0.00    +0.017 C 
ATOM     20  C   LIG A   1       1.623   1.271  -0.969  0.00  0.00    +0.057 C 
ATOM     21  C   LIG A   1       2.271   2.647  -0.701  0.00  0.00    +0.184 C 
ATOM     22  C   LIG A   1       2.085   3.193   0.774  0.00  0.00    +0.012 C 
ATOM     23  C   LIG A   1       1.238   4.504   0.716  0.00  0.00    +0.015 C 
ATOM     24  C   LIG A   1       1.334   2.175   1.704  0.00  0.00    +0.028 C 
ATOM     25  C   LIG A   1       2.320   1.284   2.578  0.00  0.00    -0.003 C 
ATOM     26  C   LIG A   1       1.771  -0.072   3.030  0.00  0.00    +0.008 C 
ATOM     27  C   LIG A   1       3.747   1.151   1.986  0.00  0.00    -0.011 C 
ATOM     28  C   LIG A   1       4.698   0.294   2.838  0.00  0.00    +0.008 C 
ATOM     29  C   LIG A   1       4.395   2.522   1.781  0.00  0.00    +0.004 C 
ATOM     30  C   LIG A   1       3.414   3.635   1.441  0.00  0.00    +0.011 C 
ENDROOT
BRANCH   4  31
ATOM     31  O   LIG A   1      -1.955  -3.265   0.874  0.00  0.00    -0.461 OA
BRANCH  31  32
ATOM     32  C   LIG A   1      -1.297  -4.406   1.232  0.00  0.00    +0.304 C 
ATOM     33  C   LIG A   1       0.095  -4.111   1.714  0.00  0.00    +0.136 C 
ATOM     34  O   LIG A   1      -1.747  -5.541   1.145  0.00  0.00    -0.251 OA
ENDBRANCH  31  32
ENDBRANCH   4  31
BRANCH  21  35
ATOM     35  O   LIG A   1       3.668   2.635  -1.059  0.00  0.00    -0.461 OA
BRANCH  35  36
ATOM     36  C   LIG A   1       3.913   2.774  -2.392  0.00  0.00    +0.304 C 
ATOM     37  C   LIG A   1       4.649   4.055  -2.646  0.00  0.00    +0.136 C 
ATOM     38  O   LIG A   1       3.484   2.046  -3.265  0.00  0.00    -0.251 OA
ENDBRANCH  35  36
ENDBRANCH  21  35
TORSDOF 4
