REMARK  Name = NuBBE_1437
REMARK  5 active torsions:
REMARK  status: ('A' for Active; 'I' for Inactive)
REMARK    1  A    between atoms: C_4  and  O_5
REMARK    2  A    between atoms: O_5  and  C_6
REMARK    3  A    between atoms: N_7  and  C_8
REMARK    4  A    between atoms: C_14  and  O_15
REMARK    5  A    between atoms: O_15  and  C_16
REMARK                            x       y       z     vdW  Elec       q    Type
REMARK                         _______ _______ _______ _____ _____    ______ ____
ROOT
ATOM      1  O   LIG A   1      -3.392  -1.012   0.441  0.00  0.00    -0.268 OA
ATOM      2  C   LIG A   1      -2.176  -0.878   0.300  0.00  0.00    +0.255 A 
ATOM      3  C   LIG A   1      -1.382  -2.103   0.104  0.00  0.00    +0.116 A 
ATOM      4  C   LIG A   1      -0.056  -2.078  -0.061  0.00  0.00    +0.134 A 
ATOM      5  N   LIG A   1      -1.507   0.337   0.307  0.00  0.00    -0.308 N 
ATOM      6  C   LIG A   1      -2.318   1.528   0.493  0.00  0.00    +0.152 C 
ATOM      7  C   LIG A   1      -0.076   0.426   0.143  0.00  0.00    +0.097 A 
ATOM      8  C   LIG A   1       0.645  -0.778  -0.042  0.00  0.00    +0.044 A 
ATOM      9  C   LIG A   1       2.043  -0.744  -0.205  0.00  0.00    +0.014 A 
ATOM     10  C   LIG A   1       2.740   0.456  -0.181  0.00  0.00    +0.004 A 
ATOM     11  C   LIG A   1       2.047   1.645   0.002  0.00  0.00    +0.048 A 
ATOM     12  C   LIG A   1       0.650   1.650   0.146  0.00  0.00    +0.144 A 
ENDROOT
BRANCH   4  13
ATOM     13  O   LIG A   1       0.755  -3.178  -0.255  0.00  0.00    -0.494 OA
ATOM     14  C   LIG A   1       0.143  -4.462  -0.285  0.00  0.00    +0.277 C 
ENDBRANCH   4  13
BRANCH  12  15
ATOM     15  O   LIG A   1      -0.020   2.829   0.358  0.00  0.00    -0.493 OA
ATOM     16  C   LIG A   1       0.519   3.993  -0.262  0.00  0.00    +0.277 C 
ENDBRANCH  12  15
TORSDOF 2
