@<TRIPOS>MOLECULE
NuBBE_1155
 51 51 0 0 0
SMALL
GASTEIGER

@<TRIPOS>ATOM
      1 O          -6.5811   -0.0210   -2.1492 O.2     1  LIG1       -0.2509
      2 C          -7.0155   -0.8692   -1.3714 C.2     1  LIG1        0.3068
      3 O          -7.9912   -1.7743   -1.6416 O.3     1  LIG1       -0.4679
      4 C          -8.6108   -1.6215   -2.9189 C.3     1  LIG1        0.0817
      5 C          -6.5461   -1.0451    0.0522 C.3     1  LIG1        0.0449
      6 C          -5.0507   -1.3045    0.1048 C.3     1  LIG1       -0.0430
      7 C          -4.5667   -1.4649    1.5464 C.3     1  LIG1       -0.0526
      8 C          -3.0611   -1.7177    1.6305 C.3     1  LIG1       -0.0530
      9 C          -2.2474   -0.5564    1.0574 C.3     1  LIG1       -0.0531
     10 C          -0.7505   -0.8246    1.1388 C.3     1  LIG1       -0.0531
     11 C           0.0440    0.3338    0.5310 C.3     1  LIG1       -0.0531
     12 C           1.5441    0.0622    0.6297 C.3     1  LIG1       -0.0530
     13 C           2.3801    1.2003    0.0393 C.3     1  LIG1       -0.0528
     14 C           3.8770    0.8880    0.1394 C.3     1  LIG1       -0.0491
     15 C           4.7427    2.0157   -0.4348 C.3     1  LIG1       -0.0277
     16 C           6.2256    1.7437   -0.3095 C.ar    1  LIG1       -0.0474
     17 C           6.8002    0.6163   -0.9145 C.ar    1  LIG1       -0.0586
     18 C           8.1753    0.3871   -0.8379 C.ar    1  LIG1       -0.0615
     19 C           8.9954    1.2858   -0.1606 C.ar    1  LIG1       -0.0617
     20 C           8.4388    2.4092    0.4473 C.ar    1  LIG1       -0.0615
     21 C           7.0617    2.6375    0.3745 C.ar    1  LIG1       -0.0586
     22 H          -9.0866   -2.5701   -3.1787 H       1  LIG1        0.0661
     23 H          -7.8891   -1.3729   -3.7034 H       1  LIG1        0.0661
     24 H          -9.3823   -0.8497   -2.8473 H       1  LIG1        0.0661
     25 H          -7.0849   -1.8743    0.5257 H       1  LIG1        0.0377
     26 H          -6.8090   -0.1313    0.5985 H       1  LIG1        0.0377
     27 H          -4.5429   -0.4655   -0.3815 H       1  LIG1        0.0270
     28 H          -4.8007   -2.2023   -0.4742 H       1  LIG1        0.0270
     29 H          -5.0925   -2.3051    2.0177 H       1  LIG1        0.0265
     30 H          -4.8196   -0.5691    2.1268 H       1  LIG1        0.0265
     31 H          -2.8167   -2.6462    1.1003 H       1  LIG1        0.0265
     32 H          -2.7879   -1.8716    2.6819 H       1  LIG1        0.0265
     33 H          -2.4940    0.3647    1.5990 H       1  LIG1        0.0265
     34 H          -2.5022   -0.3929    0.0057 H       1  LIG1        0.0265
     35 H          -0.5168   -1.7520    0.6014 H       1  LIG1        0.0265
     36 H          -0.4600   -0.9705    2.1853 H       1  LIG1        0.0265
     37 H          -0.2037    1.2651    1.0547 H       1  LIG1        0.0265
     38 H          -0.2432    0.4688   -0.5196 H       1  LIG1        0.0265
     39 H           1.7754   -0.8741    0.1073 H       1  LIG1        0.0265
     40 H           1.8140   -0.0804    1.6830 H       1  LIG1        0.0265
     41 H           2.1596    2.1323    0.5728 H       1  LIG1        0.0265
     42 H           2.1054    1.3527   -1.0115 H       1  LIG1        0.0265
     43 H           4.0777   -0.0481   -0.3954 H       1  LIG1        0.0268
     44 H           4.1483    0.7167    1.1886 H       1  LIG1        0.0268
     45 H           4.4939    2.9570    0.0716 H       1  LIG1        0.0313
     46 H           4.5119    2.1671   -1.4969 H       1  LIG1        0.0313
     47 H           6.1802   -0.0910   -1.4600 H       1  LIG1        0.0620
     48 H           8.6057   -0.4889   -1.3157 H       1  LIG1        0.0618
     49 H          10.0672    1.1136   -0.1120 H       1  LIG1        0.0618
     50 H           9.0792    3.1132    0.9725 H       1  LIG1        0.0618
     51 H           6.6500    3.5247    0.8504 H       1  LIG1        0.0620
@<TRIPOS>BOND
     1     1     2    2
     2     2     3    1
     3     3     4    1
     4     2     5    1
     5     5     6    1
     6     6     7    1
     7     7     8    1
     8     8     9    1
     9     9    10    1
    10    10    11    1
    11    11    12    1
    12    12    13    1
    13    13    14    1
    14    14    15    1
    15    15    16    1
    16    16    17   ar
    17    17    18   ar
    18    18    19   ar
    19    19    20   ar
    20    20    21   ar
    21    16    21   ar
    22     4    22    1
    23     4    23    1
    24     4    24    1
    25     5    25    1
    26     5    26    1
    27     6    27    1
    28     6    28    1
    29     7    29    1
    30     7    30    1
    31     8    31    1
    32     8    32    1
    33     9    33    1
    34     9    34    1
    35    10    35    1
    36    10    36    1
    37    11    37    1
    38    11    38    1
    39    12    39    1
    40    12    40    1
    41    13    41    1
    42    13    42    1
    43    14    43    1
    44    14    44    1
    45    15    45    1
    46    15    46    1
    47    17    47    1
    48    18    48    1
    49    19    49    1
    50    20    50    1
    51    21    51    1
