@<TRIPOS>MOLECULE
NuBBE_1925
 51 53 0 0 0
SMALL
GASTEIGER

@<TRIPOS>ATOM
      1 C          -2.0521   -0.5570    1.3537 C.3     1  LIG1       -0.0555
      2 C          -0.6485    0.0384    1.0621 C.3     1  LIG1       -0.0067
      3 C          -0.6520    1.5346    0.5790 C.3     1  LIG1       -0.0198
      4 C          -1.6011    1.7079   -0.6090 C.3     1  LIG1        0.0142
      5 C          -1.2198    0.7601   -1.7275 C.2     1  LIG1        0.1595
      6 C          -0.3867   -0.4520   -1.4152 C.2     1  LIG1       -0.0044
      7 C          -0.1253   -0.7995   -0.1325 C.2     1  LIG1       -0.0568
      8 C           0.6036   -2.0938    0.1682 C.3     1  LIG1       -0.0298
      9 C           0.6780   -3.0697   -1.0106 C.3     1  LIG1       -0.0402
     10 C           1.0570   -2.3920   -2.3432 C.3     1  LIG1       -0.0100
     11 C           0.9265   -3.4386   -3.4727 C.3     1  LIG1       -0.0558
     12 C           2.4731   -1.8155   -2.2507 C.2     1  LIG1       -0.0849
     13 C           3.5706   -2.2245   -2.9030 C.2     1  LIG1       -0.1021
     14 C           0.0432   -1.2505   -2.6253 C.3     1  LIG1       -0.0155
     15 O          -1.6163    0.9580   -2.8770 O.2     1  LIG1       -0.2924
     16 H           0.3495    1.7131    0.1472 H       1  LIG1        0.0318
     17 C          -0.7543    2.6151    1.7078 C.3     1  LIG1       -0.0309
     18 C          -0.6107    4.0361    1.1090 C.3     1  LIG1       -0.0595
     19 C          -2.0980    2.5941    2.4600 C.3     1  LIG1       -0.0595
     20 C           0.4104    2.4149    2.7262 C.3     1  LIG1       -0.0476
     21 C           1.1515    1.0833    2.5865 C.3     1  LIG1       -0.0518
     22 C           0.1833   -0.0729    2.3768 C.3     1  LIG1       -0.0436
     23 H          -2.6934   -0.5902    0.4662 H       1  LIG1        0.0238
     24 H          -2.5962   -0.0061    2.1207 H       1  LIG1        0.0238
     25 H          -1.9675   -1.5896    1.7157 H       1  LIG1        0.0238
     26 H          -1.5154    2.7177   -1.0225 H       1  LIG1        0.0348
     27 H          -2.6471    1.5387   -0.3394 H       1  LIG1        0.0348
     28 H           0.1046   -2.6215    0.9894 H       1  LIG1        0.0311
     29 H           1.6188   -1.8562    0.5081 H       1  LIG1        0.0311
     30 H          -0.3030   -3.5546   -1.1164 H       1  LIG1        0.0277
     31 H           1.3883   -3.8708   -0.7672 H       1  LIG1        0.0277
     32 H          -0.0983   -3.8233   -3.5389 H       1  LIG1        0.0238
     33 H           1.5792   -4.3023   -3.3014 H       1  LIG1        0.0238
     34 H           1.1757   -3.0072   -4.4492 H       1  LIG1        0.0238
     35 H           2.5971   -0.9674   -1.5763 H       1  LIG1        0.0572
     36 H           3.5686   -3.0558   -3.5994 H       1  LIG1        0.0532
     37 H           4.5213   -1.7220   -2.7480 H       1  LIG1        0.0532
     38 H          -0.8697   -1.6742   -3.0667 H       1  LIG1        0.0323
     39 H           0.4661   -0.5734   -3.3802 H       1  LIG1        0.0323
     40 H          -1.4769    4.3107    0.4981 H       1  LIG1        0.0235
     41 H           0.2863    4.1146    0.4848 H       1  LIG1        0.0235
     42 H          -0.5291    4.7907    1.9006 H       1  LIG1        0.0235
     43 H          -2.9488    2.5716    1.7721 H       1  LIG1        0.0235
     44 H          -2.2108    3.4888    3.0847 H       1  LIG1        0.0235
     45 H          -2.1750    1.7423    3.1399 H       1  LIG1        0.0235
     46 H           0.0279    2.4965    3.7523 H       1  LIG1        0.0271
     47 H           1.1553    3.2155    2.6319 H       1  LIG1        0.0271
     48 H           1.7441    0.9097    3.4926 H       1  LIG1        0.0266
     49 H           1.8669    1.1308    1.7566 H       1  LIG1        0.0266
     50 H          -0.4930   -0.0917    3.2424 H       1  LIG1        0.0274
     51 H           0.7419   -1.0106    2.4394 H       1  LIG1        0.0274
@<TRIPOS>BOND
     1     1     2    1
     2     2     3    1
     3     3     4    1
     4     4     5    1
     5     5     6    1
     6     6     7    2
     7     2     7    1
     8     7     8    1
     9     8     9    1
    10     9    10    1
    11    12    13    2
    12    10    14    1
    13     6    14    1
    14     5    15    2
    15     3    16    1
    16     3    17    1
    17    17    18    1
    18    17    19    1
    19    17    20    1
    20    20    21    1
    21    21    22    1
    22     2    22    1
    23    10    12    1
    24    10    11    1
    25     1    23    1
    26     1    24    1
    27     1    25    1
    28     4    26    1
    29     4    27    1
    30     8    28    1
    31     8    29    1
    32     9    30    1
    33     9    31    1
    34    11    32    1
    35    11    33    1
    36    11    34    1
    37    12    35    1
    38    13    36    1
    39    13    37    1
    40    14    38    1
    41    14    39    1
    42    18    40    1
    43    18    41    1
    44    18    42    1
    45    19    43    1
    46    19    44    1
    47    19    45    1
    48    20    46    1
    49    20    47    1
    50    21    48    1
    51    21    49    1
    52    22    50    1
    53    22    51    1
