REMARK  Name = NuBBE_1669
REMARK  2 active torsions:
REMARK  status: ('A' for Active; 'I' for Inactive)
REMARK    1  A    between atoms: C_1  and  C_2
REMARK    2  A    between atoms: C_2  and  C_3
REMARK                            x       y       z     vdW  Elec       q    Type
REMARK                         _______ _______ _______ _____ _____    ______ ____
ROOT
ATOM      1  C   LIG A   1      -0.771   0.558  -1.082  0.00  0.00    +0.010 C 
ATOM      2  C   LIG A   1       0.224   0.447  -2.239  0.00  0.00    -0.003 C 
ATOM      3  C   LIG A   1       1.139   1.772  -2.257  0.00  0.00    +0.019 C 
ATOM      4  C   LIG A   1       1.095   2.740  -0.957  0.00  0.00    +0.085 C 
ATOM      5  N   LIG A   1       0.746   2.116   0.380  0.00  0.00    -0.298 NA
ATOM      6  C   LIG A   1       1.948   1.757   1.199  0.00  0.00    +0.086 C 
ATOM      7  C   LIG A   1       1.707   0.322   1.773  0.00  0.00    +0.030 C 
ATOM      8  C   LIG A   1       1.028  -0.925  -1.928  0.00  0.00    +0.027 C 
ATOM      9  C   LIG A   1       0.217   0.793   0.059  0.00  0.00    +0.072 C 
ATOM     10  C   LIG A   1       0.771  -0.398   0.778  0.00  0.00    +0.033 C 
ATOM     11  C   LIG A   1       1.457  -1.284  -0.389  0.00  0.00    +0.083 C 
ATOM     12  N   LIG A   1       1.140  -2.695  -0.086  0.00  0.00    -0.340 N 
ATOM     13  C   LIG A   1       0.048  -2.639   0.809  0.00  0.00    +0.031 A 
ATOM     14  C   LIG A   1      -0.696  -3.731   1.220  0.00  0.00    +0.023 A 
ATOM     15  C   LIG A   1      -1.714  -3.536   2.158  0.00  0.00    +0.002 A 
ATOM     16  C   LIG A   1      -1.962  -2.261   2.686  0.00  0.00    +0.000 A 
ATOM     17  C   LIG A   1      -1.189  -1.169   2.291  0.00  0.00    +0.006 A 
ATOM     18  C   LIG A   1      -0.180  -1.378   1.363  0.00  0.00    -0.017 A 
ATOM     19  H   LIG A   1       0.959  -3.304  -0.878  0.00  0.00    +0.146 HD
ENDROOT
BRANCH   1  21
ATOM     20  C   LIG A   1      -2.776   1.705  -0.042  0.00  0.00    +0.004 C 
ATOM     21  C   LIG A   1      -1.888   1.587  -1.273  0.00  0.00    +0.002 C 
ENDBRANCH   1  21
TORSDOF 1
