REMARK  Name = NuBBE_1603
REMARK  13 active torsions:
REMARK  status: ('A' for Active; 'I' for Inactive)
REMARK    1  A    between atoms: C_1  and  C_2
REMARK    2  A    between atoms: C_8  and  C_9
REMARK    3  A    between atoms: C_13  and  C_14
REMARK    4  A    between atoms: C_13  and  C_15
REMARK    5  A    between atoms: C_21  and  C_40
REMARK    6  A    between atoms: C_22  and  C_24
REMARK    7  A    between atoms: C_27  and  C_28
REMARK    8  A    between atoms: C_28  and  O_29
REMARK    9  A    between atoms: C_28  and  C_30
REMARK   10  A    between atoms: C_30  and  C_31
REMARK   11  A    between atoms: C_30  and  O_32
REMARK   12  A    between atoms: C_30  and  C_33
REMARK   13  A    between atoms: C_35  and  O_37
REMARK                            x       y       z     vdW  Elec       q    Type
REMARK                         _______ _______ _______ _____ _____    ______ ____
ROOT
ATOM      1  C   LIG A   1       0.355   3.478  -0.147  0.00  0.00    +0.016 C 
ATOM      2  C   LIG A   1       0.535   1.950  -0.019  0.00  0.00    -0.005 C 
ATOM      3  C   LIG A   1       0.012   1.340  -1.350  0.00  0.00    -0.063 C 
ATOM      4  C   LIG A   1       0.795   1.092  -2.416  0.00  0.00    -0.026 C 
ATOM      5  C   LIG A   1       0.294   0.724  -3.772  0.00  0.00    +0.032 C 
ATOM      6  C   LIG A   1      -1.167   1.135  -4.045  0.00  0.00    +0.012 C 
ATOM      7  C   LIG A   1      -2.087   0.715  -2.840  0.00  0.00    -0.021 C 
ATOM      8  C   LIG A   1      -2.246  -0.832  -2.911  0.00  0.00    +0.012 C 
ATOM      9  C   LIG A   1      -3.512   1.336  -3.000  0.00  0.00    +0.015 C 
ATOM     10  C   LIG A   1      -3.845   1.707  -4.436  0.00  0.00    +0.075 C 
ATOM     11  C   LIG A   1      -2.881   2.765  -4.917  0.00  0.00    +0.139 C 
ATOM     12  C   LIG A   1      -1.391   2.597  -4.575  0.00  0.00    +0.027 C 
ATOM     13  C   LIG A   1      -0.600   2.825  -5.884  0.00  0.00    +0.019 C 
ATOM     14  C   LIG A   1      -1.010   3.719  -3.602  0.00  0.00    +0.019 C 
ATOM     15  O   LIG A   1      -3.296   3.726  -5.584  0.00  0.00    -0.297 OA
ATOM     16  C   LIG A   1      -1.497   1.175  -1.441  0.00  0.00    +0.021 C 
ATOM     17  C   LIG A   1      -1.951   0.301  -0.264  0.00  0.00    +0.009 C 
ATOM     18  C   LIG A   1      -1.623   0.966   1.071  0.00  0.00    +0.008 C 
ATOM     19  C   LIG A   1      -0.129   1.320   1.284  0.00  0.00    -0.020 C 
ATOM     20  C   LIG A   1       0.746   0.027   1.575  0.00  0.00    +0.004 C 
ATOM     21  C   LIG A   1       2.045   0.229   0.751  0.00  0.00    +0.005 C 
ATOM     22  C   LIG A   1       2.025   1.663   0.261  0.00  0.00    +0.012 C 
ATOM     23  C   LIG A   1      -0.083   2.320   2.472  0.00  0.00    +0.012 C 
ENDROOT
BRANCH  20  24
ATOM     24  C   LIG A   1       1.105  -0.309   3.058  0.00  0.00    +0.051 C 
ATOM     25  C   LIG A   1       1.972  -1.576   3.140  0.00  0.00    +0.043 C 
ATOM     26  C   LIG A   1       1.195  -2.575   3.987  0.00  0.00    +0.153 C 
ATOM     27  O   LIG A   1      -0.164  -2.084   3.984  0.00  0.00    -0.345 OA
ATOM     28  C   LIG A   1      -0.069  -0.662   3.969  0.00  0.00    +0.251 C 
BRANCH  28  29
ATOM     29  O   LIG A   1       0.224  -0.210   5.285  0.00  0.00    -0.367 OA
ATOM     30  H   LIG A   1      -0.606  -0.292   5.781  0.00  0.00    +0.212 HD
ENDBRANCH  28  29
BRANCH  26  31
ATOM     31  C   LIG A   1       1.207  -4.048   3.508  0.00  0.00    +0.174 C 
BRANCH  31  32
ATOM     32  C   LIG A   1       2.599  -4.750   3.536  0.00  0.00    +0.089 C 
ATOM     33  C   LIG A   1       2.537  -6.190   3.002  0.00  0.00    +0.044 C 
ATOM     34  C   LIG A   1       3.156  -4.780   4.960  0.00  0.00    +0.044 C 
BRANCH  32  35
ATOM     35  O   LIG A   1       3.548  -4.049   2.723  0.00  0.00    -0.387 OA
ATOM     36  H   LIG A   1       3.231  -4.122   1.803  0.00  0.00    +0.210 HD
ENDBRANCH  32  35
ENDBRANCH  31  32
BRANCH  31  37
ATOM     37  O   LIG A   1       0.644  -4.122   2.185  0.00  0.00    -0.386 OA
ATOM     38  H   LIG A   1      -0.277  -3.809   2.290  0.00  0.00    +0.210 HD
ENDBRANCH  31  37
ENDBRANCH  26  31
ENDBRANCH  20  24
TORSDOF 6
