@<TRIPOS>MOLECULE
NuBBE_27
 46 47 0 0 0
SMALL
GASTEIGER

@<TRIPOS>ATOM
      1 C          -2.7184    4.1644   -0.0650 C.3     1  LIG1        0.0790
      2 O          -1.3355    4.3898    0.2085 O.3     1  LIG1       -0.4913
      3 C          -0.6317    3.3350    0.7331 C.ar    1  LIG1        0.1654
      4 C           0.4589    3.5610    1.6005 C.ar    1  LIG1        0.2035
      5 O           0.8883    4.7953    2.0403 O.3     1  LIG1       -0.4885
      6 C           0.7467    5.9006    1.1557 C.3     1  LIG1        0.0791
      7 C           1.1369    2.4443    2.1579 C.ar    1  LIG1        0.1654
      8 O           2.1981    2.6983    3.0023 O.3     1  LIG1       -0.4913
      9 C           2.8871    1.5667    3.5330 C.3     1  LIG1        0.0790
     10 C           0.7170    1.1425    1.8426 C.ar    1  LIG1       -0.0129
     11 C          -0.3467    0.9209    0.9694 C.ar    1  LIG1       -0.0398
     12 C          -0.8544   -0.4746    0.6993 C.3     1  LIG1       -0.0192
     13 C          -0.7776   -0.8631   -0.7718 C.3     1  LIG1        0.0285
     14 C          -1.3193   -2.2679   -0.9859 C.2     1  LIG1        0.2221
     15 N          -0.4370   -3.3329   -0.8529 N.am    1  LIG1       -0.2422
     16 C          -0.9383   -4.6722   -1.1361 C.3     1  LIG1        0.0223
     17 C          -0.6257   -5.0960   -2.5680 C.3     1  LIG1       -0.0362
     18 C           0.8725   -4.9616   -2.8246 C.3     1  LIG1       -0.0433
     19 C           1.3603   -3.5634   -2.4740 C.3     1  LIG1        0.0246
     20 C           0.9124   -3.1378   -1.0901 C.2     1  LIG1        0.2218
     21 O           1.6676   -2.5741   -0.2941 O.2     1  LIG1       -0.2752
     22 O          -2.5009   -2.4207   -1.3035 O.2     1  LIG1       -0.2752
     23 C          -0.9821    2.0217    0.3973 C.ar    1  LIG1       -0.0129
     24 H          -3.1524    5.1083   -0.4064 H       1  LIG1        0.0660
     25 H          -3.2544    3.8479    0.8368 H       1  LIG1        0.0660
     26 H          -2.8631    3.4477   -0.8791 H       1  LIG1        0.0660
     27 H           1.1679    6.7841    1.6472 H       1  LIG1        0.0660
     28 H          -0.2958    6.1576    0.9630 H       1  LIG1        0.0660
     29 H           1.3017    5.7354    0.2267 H       1  LIG1        0.0660
     30 H           3.7578    1.9198    4.0934 H       1  LIG1        0.0660
     31 H           3.2616    0.9110    2.7381 H       1  LIG1        0.0660
     32 H           2.2465    1.0118    4.2283 H       1  LIG1        0.0660
     33 H           1.2043    0.2729    2.2712 H       1  LIG1        0.0658
     34 H          -1.8948   -0.5245    1.0485 H       1  LIG1        0.0318
     35 H          -0.3025   -1.1977    1.3110 H       1  LIG1        0.0318
     36 H           0.2418   -0.7593   -1.1513 H       1  LIG1        0.0362
     37 H          -1.3793   -0.1904   -1.3951 H       1  LIG1        0.0362
     38 H          -2.0144   -4.7399   -0.9441 H       1  LIG1        0.0469
     39 H          -0.4377   -5.3559   -0.4388 H       1  LIG1        0.0469
     40 H          -1.1802   -4.4683   -3.2758 H       1  LIG1        0.0281
     41 H          -0.9402   -6.1328   -2.7303 H       1  LIG1        0.0281
     42 H           1.0967   -5.1854   -3.8732 H       1  LIG1        0.0270
     43 H           1.4118   -5.6951   -2.2129 H       1  LIG1        0.0270
     44 H           0.9676   -2.8308   -3.1904 H       1  LIG1        0.0358
     45 H           2.4531   -3.5237   -2.5244 H       1  LIG1        0.0358
     46 H          -1.7743    1.8308   -0.3162 H       1  LIG1        0.0658
@<TRIPOS>BOND
     1     1     2    1
     2     2     3    1
     3     3     4   ar
     4     4     5    1
     5     5     6    1
     6     4     7   ar
     7     7     8    1
     8     8     9    1
     9     7    10   ar
    10    10    11   ar
    11    11    12    1
    12    12    13    1
    13    13    14    1
    14    14    15   am
    15    15    16    1
    16    16    17    1
    17    17    18    1
    18    18    19    1
    19    19    20    1
    20    15    20   am
    21    20    21    2
    22    14    22    2
    23    11    23   ar
    24     3    23   ar
    25     1    24    1
    26     1    25    1
    27     1    26    1
    28     6    27    1
    29     6    28    1
    30     6    29    1
    31     9    30    1
    32     9    31    1
    33     9    32    1
    34    10    33    1
    35    12    34    1
    36    12    35    1
    37    13    36    1
    38    13    37    1
    39    16    38    1
    40    16    39    1
    41    17    40    1
    42    17    41    1
    43    18    42    1
    44    18    43    1
    45    19    44    1
    46    19    45    1
    47    23    46    1
