@<TRIPOS>MOLECULE
NuBBE_2211
 21 20 0 0 0
SMALL
GASTEIGER

@<TRIPOS>ATOM
      1 C           0.5936    0.2477   -0.7911 C.2     1  LIG1        0.0693
      2 C          -0.6521    0.7439   -0.9430 C.2     1  LIG1       -0.0739
      3 C          -1.3063    1.2081   -2.2056 C.3     1  LIG1       -0.0459
      4 C           1.1457   -0.2700    0.5212 C.3     1  LIG1        0.1238
      5 O           0.2117   -0.0939    1.6062 O.3     1  LIG1       -0.4598
      6 C          -0.2023   -1.2223    2.2402 C.2     1  LIG1        0.3043
      7 O           0.0990   -2.3675    1.9392 O.2     1  LIG1       -0.2512
      8 C          -1.1195   -0.8714    3.3732 C.3     1  LIG1        0.0332
      9 C           1.5794    0.1256   -1.8978 C.2     1  LIG1        0.3357
     10 O           2.5758   -0.5718   -1.8746 O.2     1  LIG1       -0.2454
     11 O           1.3281    0.9258   -2.9469 O.3     1  LIG1       -0.4773
     12 H          -1.2979    0.8031   -0.0694 H       1  LIG1        0.0575
     13 H          -1.2557    0.4415   -2.9853 H       1  LIG1        0.0272
     14 H          -0.8621    2.1414   -2.5635 H       1  LIG1        0.0272
     15 H          -2.3663    1.4056   -2.0163 H       1  LIG1        0.0272
     16 H           2.0345    0.3107    0.7945 H       1  LIG1        0.0751
     17 H           1.4575   -1.3148    0.4145 H       1  LIG1        0.0751
     18 H          -0.6915   -0.0563    3.9630 H       1  LIG1        0.0342
     19 H          -1.2256   -1.7397    4.0305 H       1  LIG1        0.0342
     20 H          -2.1016   -0.5901    2.9865 H       1  LIG1        0.0342
     21 H           2.0558    0.7443   -3.5756 H       1  LIG1        0.2954
@<TRIPOS>BOND
     1     1     2    2
     2     2     3    1
     3     1     4    1
     4     4     5    1
     5     5     6    1
     6     6     7    2
     7     6     8    1
     8     1     9    1
     9     9    10    2
    10     9    11    1
    11     2    12    1
    12     3    13    1
    13     3    14    1
    14     3    15    1
    15     4    16    1
    16     4    17    1
    17     8    18    1
    18     8    19    1
    19     8    20    1
    20    11    21    1
