REMARK  Name = NuBBE_98
REMARK  7 active torsions:
REMARK  status: ('A' for Active; 'I' for Inactive)
REMARK    1  A    between atoms: C_4  and  C_6
REMARK    2  A    between atoms: C_6  and  C_7
REMARK    3  A    between atoms: C_7  and  O_8
REMARK    4  A    between atoms: C_9  and  C_10
REMARK    5  A    between atoms: C_24  and  C_25
REMARK    6  A    between atoms: C_25  and  O_26
REMARK    7  A    between atoms: O_26  and  C_27
REMARK                            x       y       z     vdW  Elec       q    Type
REMARK                         _______ _______ _______ _____ _____    ______ ____
ROOT
ATOM      1  C   LIG A   1      -1.963  -0.003  -0.044  0.00  0.00    +0.121 C 
ATOM      2  C   LIG A   1      -1.248   1.111   0.729  0.00  0.00    +0.041 C 
ATOM      3  C   LIG A   1       0.202   0.769   1.139  0.00  0.00    +0.057 C 
ATOM      4  C   LIG A   1      -1.523  -0.206  -1.468  0.00  0.00    +0.041 A 
ATOM      5  C   LIG A   1      -1.459  -1.440  -2.094  0.00  0.00    -0.016 A 
ATOM      6  C   LIG A   1      -0.962  -1.233  -3.407  0.00  0.00    +0.003 A 
ATOM      7  C   LIG A   1      -0.629  -2.085  -4.478  0.00  0.00    +0.010 A 
ATOM      8  C   LIG A   1      -0.140  -1.533  -5.667  0.00  0.00    +0.001 A 
ATOM      9  C   LIG A   1       0.008  -0.154  -5.800  0.00  0.00    +0.002 A 
ATOM     10  C   LIG A   1      -0.319   0.713  -4.752  0.00  0.00    +0.026 A 
ATOM     11  C   LIG A   1      -0.794   0.146  -3.562  0.00  0.00    +0.047 A 
ATOM     12  N   LIG A   1      -1.164   0.749  -2.376  0.00  0.00    -0.356 N 
ATOM     13  C   LIG A   1      -1.814  -2.709  -1.379  0.00  0.00    +0.056 C 
ATOM     14  C   LIG A   1      -2.527  -2.405  -0.034  0.00  0.00    +0.110 C 
ATOM     15  N   LIG A   1      -1.834  -1.300   0.695  0.00  0.00    -0.326 N 
ATOM     16  C   LIG A   1      -0.603  -1.587   1.287  0.00  0.00    +0.082 C 
ATOM     17  C   LIG A   1       0.385  -0.697   1.466  0.00  0.00    +0.057 C 
ATOM     18  H   LIG A   1      -1.141   1.746  -2.214  0.00  0.00    +0.166 HD
ENDROOT
BRANCH   3  19
ATOM     19  C   LIG A   1       0.634   1.720   2.281  0.00  0.00    -0.041 C 
ATOM     20  C   LIG A   1       0.424   1.421   3.584  0.00  0.00    -0.028 C 
ATOM     21  C   LIG A   1       0.788   2.217   4.798  0.00  0.00    +0.035 C 
BRANCH  19  22
ATOM     22  C   LIG A   1       1.329   2.973   1.816  0.00  0.00    +0.187 C 
BRANCH  22  23
ATOM     23  O   LIG A   1       0.353   3.982   1.607  0.00  0.00    -0.391 OA
ATOM     24  H   LIG A   1      -0.057   4.141   2.475  0.00  0.00    +0.210 HD
ENDBRANCH  22  23
ENDBRANCH  19  22
ENDBRANCH   3  19
BRANCH  17  25
ATOM     25  C   LIG A   1       1.701  -1.237   1.895  0.00  0.00    +0.337 C 
ATOM     26  O   LIG A   1       1.867  -2.342   2.382  0.00  0.00    -0.245 OA
BRANCH  25  27
ATOM     27  O   LIG A   1       2.675  -0.324   1.645  0.00  0.00    -0.465 OA
ATOM     28  C   LIG A   1       3.986  -0.675   2.086  0.00  0.00    +0.280 C 
ENDBRANCH  25  27
ENDBRANCH  17  25
TORSDOF 5
