REMARK  Name = NuBBE_1765
REMARK  5 active torsions:
REMARK  status: ('A' for Active; 'I' for Inactive)
REMARK    1  A    between atoms: O_1  and  C_2
REMARK    2  A    between atoms: C_13  and  O_17
REMARK    3  A    between atoms: C_14  and  O_16
REMARK    4  A    between atoms: C_23  and  O_25
REMARK    5  A    between atoms: O_25  and  C_26
REMARK                            x       y       z     vdW  Elec       q    Type
REMARK                         _______ _______ _______ _____ _____    ______ ____
ROOT
ATOM      1  C   LIG A   1      -1.147   2.370   0.147  0.00  0.00    +0.181 C 
ATOM      2  C   LIG A   1      -0.692   1.372   1.213  0.00  0.00    +0.197 C 
ATOM      3  C   LIG A   1      -0.945  -0.051   0.706  0.00  0.00    +0.235 C 
ATOM      4  C   LIG A   1      -0.388  -1.044   1.703  0.00  0.00    +0.004 A 
ATOM      5  C   LIG A   1       0.641  -0.650   2.587  0.00  0.00    -0.011 A 
ATOM      6  C   LIG A   1       1.140   0.778   2.605  0.00  0.00    +0.196 C 
ATOM      7  O   LIG A   1       0.714   1.568   1.490  0.00  0.00    -0.365 OA
ATOM      8  C   LIG A   1       1.173  -1.581   3.495  0.00  0.00    +0.055 A 
ATOM      9  C   LIG A   1       0.692  -2.886   3.501  0.00  0.00    +0.159 A 
ATOM     10  C   LIG A   1      -0.314  -3.271   2.619  0.00  0.00    +0.159 A 
ATOM     11  C   LIG A   1      -0.855  -2.368   1.718  0.00  0.00    +0.057 A 
ATOM     12  O   LIG A   1      -0.297  -0.340  -0.540  0.00  0.00    -0.481 OA
ATOM     13  C   LIG A   1      -0.350   0.637  -1.494  0.00  0.00    +0.131 A 
ATOM     14  C   LIG A   1      -0.728   1.956  -1.235  0.00  0.00    +0.025 A 
ATOM     15  C   LIG A   1      -0.751   2.870  -2.297  0.00  0.00    +0.013 A 
ATOM     16  C   LIG A   1      -0.374   2.474  -3.582  0.00  0.00    +0.046 A 
ATOM     17  C   LIG A   1       0.027   1.161  -3.830  0.00  0.00    +0.124 A 
ATOM     18  C   LIG A   1       0.040   0.245  -2.779  0.00  0.00    +0.091 A 
ENDROOT
BRANCH   1  19
ATOM     19  O   LIG A   1      -0.636   3.667   0.464  0.00  0.00    -0.384 OA
ATOM     20  H   LIG A   1       0.305   3.512   0.684  0.00  0.00    +0.210 HD
ENDBRANCH   1  19
BRANCH  10  21
ATOM     21  O   LIG A   1      -0.778  -4.555   2.634  0.00  0.00    -0.503 OA
ATOM     22  H   LIG A   1      -0.249  -4.999   3.327  0.00  0.00    +0.292 HD
ENDBRANCH  10  21
BRANCH   9  23
ATOM     23  O   LIG A   1       1.178  -3.832   4.361  0.00  0.00    -0.503 OA
ATOM     24  H   LIG A   1       1.891  -3.429   4.885  0.00  0.00    +0.292 HD
ENDBRANCH   9  23
BRANCH  17  25
ATOM     25  O   LIG A   1       0.375   0.904  -5.128  0.00  0.00    -0.495 OA
ATOM     26  C   LIG A   1       0.805  -0.419  -5.426  0.00  0.00    +0.277 C 
ENDBRANCH  17  25
TORSDOF 4
