@<TRIPOS>MOLECULE
NuBBE_1268
 35 36 0 0 0
SMALL
GASTEIGER

@<TRIPOS>ATOM
      1 O          -5.9087    1.4413    0.6101 O.2     1  LIG1       -0.2452
      2 C          -4.6926    1.2795    0.7157 C.ar    1  LIG1        0.3372
      3 C          -3.8648    2.2489    1.4488 C.ar    1  LIG1        0.0236
      4 C          -2.5461    2.0888    1.6155 C.ar    1  LIG1       -0.0443
      5 O          -4.0379    0.1975    0.1498 O.2     1  LIG1       -0.4220
      6 C          -2.6590   -0.0014    0.3510 C.ar    1  LIG1        0.1426
      7 C          -1.8967    0.9043    1.0777 C.ar    1  LIG1        0.0184
      8 C          -0.5462    0.6204    1.2988 C.ar    1  LIG1       -0.0404
      9 C           0.0303   -0.5615    0.7942 C.ar    1  LIG1        0.0172
     10 C           1.4159   -0.8730    1.1835 C.2     1  LIG1       -0.0524
     11 C           2.5791   -0.5377    0.5964 C.2     1  LIG1       -0.0527
     12 C           2.8939    0.2700   -0.6420 C.3     1  LIG1        0.0789
     13 O           3.0256   -0.6578   -1.7203 O.3     1  LIG1       -0.3851
     14 C           1.8529    1.3185   -1.0292 C.3     1  LIG1       -0.0327
     15 C           4.2572    0.9649   -0.4959 C.3     1  LIG1       -0.0327
     16 C          -0.7536   -1.4435    0.0166 C.ar    1  LIG1        0.1307
     17 O          -0.1446   -2.5727   -0.4766 O.3     1  LIG1       -0.4944
     18 C          -0.8090   -3.2039   -1.5716 C.3     1  LIG1        0.0788
     19 C          -2.1087   -1.1605   -0.1857 C.ar    1  LIG1        0.0237
     20 H          -4.3912    3.1054    1.8523 H       1  LIG1        0.0689
     21 H          -1.9555    2.8181    2.1573 H       1  LIG1        0.0627
     22 H           0.0649    1.3055    1.8827 H       1  LIG1        0.0632
     23 H           1.4633   -1.4916    2.0804 H       1  LIG1        0.0622
     24 H           3.4704   -0.9445    1.0797 H       1  LIG1        0.0600
     25 H           2.3107   -1.3113   -1.6178 H       1  LIG1        0.2106
     26 H           0.8913    0.8638   -1.2804 H       1  LIG1        0.0260
     27 H           2.1587    1.8584   -1.9324 H       1  LIG1        0.0260
     28 H           1.7096    2.0509   -0.2270 H       1  LIG1        0.0260
     29 H           5.0559    0.2421   -0.2870 H       1  LIG1        0.0260
     30 H           4.2514    1.7126    0.3045 H       1  LIG1        0.0260
     31 H           4.5440    1.4621   -1.4311 H       1  LIG1        0.0260
     32 H          -0.1547   -3.9875   -1.9631 H       1  LIG1        0.0660
     33 H          -0.9982   -2.4896   -2.3815 H       1  LIG1        0.0660
     34 H          -1.7391   -3.6851   -1.2495 H       1  LIG1        0.0660
     35 H          -2.7689   -1.8314   -0.7241 H       1  LIG1        0.0691
@<TRIPOS>BOND
     1     1     2    2
     2     2     3   ar
     3     3     4   ar
     4     2     5   ar
     5     5     6   ar
     6     6     7   ar
     7     4     7   ar
     8     7     8   ar
     9     8     9   ar
    10     9    10    1
    11    10    11    2
    12    11    12    1
    13    12    13    1
    14    12    14    1
    15    12    15    1
    16     9    16   ar
    17    16    17    1
    18    17    18    1
    19    16    19   ar
    20     6    19   ar
    21     3    20    1
    22     4    21    1
    23     8    22    1
    24    10    23    1
    25    11    24    1
    26    13    25    1
    27    14    26    1
    28    14    27    1
    29    14    28    1
    30    15    29    1
    31    15    30    1
    32    15    31    1
    33    18    32    1
    34    18    33    1
    35    18    34    1
    36    19    35    1
