REMARK  Name = NuBBE_975
REMARK  13 active torsions:
REMARK  status: ('A' for Active; 'I' for Inactive)
REMARK    1  A    between atoms: C_2  and  C_23
REMARK    2  A    between atoms: N_3  and  C_4
REMARK    3  A    between atoms: C_4  and  C_5
REMARK    4  A    between atoms: C_5  and  C_6
REMARK    5  A    between atoms: C_9  and  O_10
REMARK    6  A    between atoms: O_10  and  C_11
REMARK    7  A    between atoms: C_11  and  C_12
REMARK    8  A    between atoms: C_12  and  O_13
REMARK    9  A    between atoms: C_12  and  C_14
REMARK   10  A    between atoms: C_14  and  O_15
REMARK   11  A    between atoms: C_14  and  C_16
REMARK   12  A    between atoms: C_14  and  C_17
REMARK   13  A    between atoms: C_17  and  O_18
REMARK                            x       y       z     vdW  Elec       q    Type
REMARK                         _______ _______ _______ _____ _____    ______ ____
ROOT
ATOM      1  C   LIG A   1      -2.399   0.055  -1.704  0.00  0.00    -0.046 A 
ATOM      2  C   LIG A   1      -1.518   1.087  -1.349  0.00  0.00    +0.007 A 
ATOM      3  C   LIG A   1      -0.136   0.896  -1.421  0.00  0.00    +0.046 A 
ATOM      4  C   LIG A   1       0.386  -0.313  -1.887  0.00  0.00    +0.121 A 
ATOM      5  C   LIG A   1      -0.490  -1.339  -2.244  0.00  0.00    +0.046 A 
ATOM      6  C   LIG A   1      -1.873  -1.162  -2.141  0.00  0.00    +0.007 A 
ENDROOT
BRANCH   1   7
ATOM      7  C   LIG A   1      -3.892   0.225  -1.537  0.00  0.00    +0.054 C 
BRANCH   7   8
ATOM      8  C   LIG A   1      -4.364  -0.183  -0.135  0.00  0.00    +0.109 C 
BRANCH   8  11
ATOM      9  O   LIG A   1      -5.374   0.452   2.466  0.00  0.00    -0.270 OA
ATOM     10  C   LIG A   1      -4.256   0.847   2.143  0.00  0.00    +0.244 C 
ATOM     11  N   LIG A   1      -3.727   0.627   0.896  0.00  0.00    -0.311 N 
ATOM     12  H   LIG A   1      -2.749   0.814   0.755  0.00  0.00    +0.149 HD
BRANCH  10  13
ATOM     13  C   LIG A   1      -3.389   1.582   3.129  0.00  0.00    +0.037 A 
ATOM     14  C   LIG A   1      -2.101   2.058   2.829  0.00  0.00    +0.013 A 
ATOM     15  C   LIG A   1      -1.301   2.627   3.826  0.00  0.00    +0.001 A 
ATOM     16  C   LIG A   1      -1.794   2.776   5.119  0.00  0.00    +0.000 A 
ATOM     17  C   LIG A   1      -3.094   2.370   5.414  0.00  0.00    +0.001 A 
ATOM     18  C   LIG A   1      -3.884   1.770   4.428  0.00  0.00    +0.013 A 
ENDBRANCH  10  13
ENDBRANCH   8  11
ENDBRANCH   7   8
ENDBRANCH   1   7
BRANCH   4  19
ATOM     19  O   LIG A   1       1.754  -0.397  -1.914  0.00  0.00    -0.489 OA
BRANCH  19  20
ATOM     20  C   LIG A   1       2.309  -1.398  -2.773  0.00  0.00    +0.263 C 
BRANCH  20  21
ATOM     21  C   LIG A   1       3.853  -1.412  -2.729  0.00  0.00    +0.194 C 
BRANCH  21  22
ATOM     22  O   LIG A   1       4.377  -0.190  -3.264  0.00  0.00    -0.385 OA
ATOM     23  H   LIG A   1       3.990   0.534  -2.731  0.00  0.00    +0.210 HD
ENDBRANCH  21  22
BRANCH  21  24
ATOM     24  C   LIG A   1       4.504  -1.774  -1.370  0.00  0.00    +0.188 C 
ATOM     25  C   LIG A   1       6.029  -1.929  -1.521  0.00  0.00    +0.056 C 
BRANCH  24  26
ATOM     26  O   LIG A   1       3.994  -3.043  -0.927  0.00  0.00    -0.376 OA
ATOM     27  H   LIG A   1       4.362  -3.183  -0.033  0.00  0.00    +0.211 HD
ENDBRANCH  24  26
BRANCH  24  28
ATOM     28  C   LIG A   1       4.264  -0.712  -0.290  0.00  0.00    +0.339 C 
ATOM     29  O   LIG A   1       3.883   0.449  -0.434  0.00  0.00    -0.248 OA
BRANCH  28  30
ATOM     30  O   LIG A   1       4.582  -1.163   0.946  0.00  0.00    -0.479 OA
ATOM     31  H   LIG A   1       4.381  -0.401   1.532  0.00  0.00    +0.295 HD
ENDBRANCH  28  30
ENDBRANCH  24  28
ENDBRANCH  21  24
ENDBRANCH  20  21
ENDBRANCH  19  20
ENDBRANCH   4  19
TORSDOF 12
