@<TRIPOS>MOLECULE
NuBBE_1824
 47 49 0 0 0
SMALL
GASTEIGER

@<TRIPOS>ATOM
      1 O          -3.1523   -1.0658   -0.8497 O.2     1  LIG1       -0.2917
      2 C          -2.0102   -1.3201   -0.4857 C.2     1  LIG1        0.1743
      3 C          -1.4811   -2.7240   -0.3803 C.3     1  LIG1        0.0546
      4 C          -1.0648   -0.2235   -0.2033 C.ar    1  LIG1        0.1010
      5 C          -1.4277    1.1260   -0.3616 C.ar    1  LIG1        0.1378
      6 O          -2.7014    1.4748   -0.7400 O.3     1  LIG1       -0.5055
      7 C          -0.5027    2.1626   -0.1220 C.ar    1  LIG1        0.0400
      8 C          -0.9321    3.6138   -0.2402 C.3     1  LIG1       -0.0023
      9 C          -0.1833    4.3873   -1.2968 C.2     1  LIG1       -0.0807
     10 C           0.5799    5.4895   -1.1448 C.2     1  LIG1       -0.0793
     11 C           0.8763    6.1805    0.1596 C.3     1  LIG1       -0.0440
     12 C           1.2194    6.1453   -2.3424 C.3     1  LIG1       -0.0440
     13 C           0.7905    1.7861    0.2819 C.ar    1  LIG1        0.1273
     14 O           1.7854    2.6807    0.5617 O.3     1  LIG1       -0.5062
     15 C           1.1463    0.4461    0.4527 C.ar    1  LIG1        0.0228
     16 C           0.2123   -0.5588    0.2314 C.ar    1  LIG1        0.1393
     17 O           0.6296   -1.8376    0.4832 O.3     1  LIG1       -0.4800
     18 C          -0.4158   -2.8093    0.7164 C.3     1  LIG1        0.1397
     19 C          -1.0001   -2.5515    2.1267 C.3     1  LIG1       -0.0202
     20 C           0.2297   -4.2073    0.6340 C.ar    1  LIG1       -0.0042
     21 C          -0.2941   -5.3135    1.3288 C.ar    1  LIG1       -0.0548
     22 C           0.2987   -6.5761    1.2342 C.ar    1  LIG1       -0.0614
     23 C           1.4170   -6.7652    0.4294 C.ar    1  LIG1       -0.0617
     24 C           1.9403   -5.6932   -0.2863 C.ar    1  LIG1       -0.0614
     25 C           1.3514   -4.4293   -0.1883 C.ar    1  LIG1       -0.0548
     26 H          -1.0711   -2.9801   -1.3651 H       1  LIG1        0.0388
     27 H          -2.3161   -3.4018   -0.1691 H       1  LIG1        0.0388
     28 H          -3.2242    0.6524   -0.8838 H       1  LIG1        0.2922
     29 H          -0.8598    4.0694    0.7518 H       1  LIG1        0.0358
     30 H          -1.9936    3.6893   -0.5046 H       1  LIG1        0.0358
     31 H          -0.3284    3.9932   -2.3042 H       1  LIG1        0.0575
     32 H           0.4564    5.6712    1.0292 H       1  LIG1        0.0274
     33 H           0.4766    7.1996    0.1470 H       1  LIG1        0.0274
     34 H           1.9594    6.2374    0.3145 H       1  LIG1        0.0274
     35 H           0.9673    5.6378   -3.2793 H       1  LIG1        0.0274
     36 H           2.3097    6.1377   -2.2419 H       1  LIG1        0.0274
     37 H           0.8844    7.1844   -2.4273 H       1  LIG1        0.0274
     38 H           1.5295    3.5566    0.2327 H       1  LIG1        0.2921
     39 H           2.1517    0.1940    0.7809 H       1  LIG1        0.0691
     40 H          -1.3489   -1.5213    2.2536 H       1  LIG1        0.0272
     41 H          -0.2336   -2.7050    2.8955 H       1  LIG1        0.0272
     42 H          -1.8523   -3.2011    2.3495 H       1  LIG1        0.0272
     43 H          -1.1745   -5.2208    1.9590 H       1  LIG1        0.0622
     44 H          -0.1166   -7.4126    1.7909 H       1  LIG1        0.0618
     45 H           1.8774   -7.7468    0.3575 H       1  LIG1        0.0618
     46 H           2.8103   -5.8380   -0.9218 H       1  LIG1        0.0618
     47 H           1.7852   -3.6131   -0.7635 H       1  LIG1        0.0622
@<TRIPOS>BOND
     1     1     2    2
     2     2     3    1
     3     2     4    1
     4     4     5   ar
     5     5     6    1
     6     5     7   ar
     7     7     8    1
     8     8     9    1
     9     9    10    2
    10    10    11    1
    11    10    12    1
    12     7    13   ar
    13    13    14    1
    14    13    15   ar
    15    15    16   ar
    16     4    16   ar
    17    16    17    1
    18    17    18    1
    19     3    18    1
    20    18    19    1
    21    18    20    1
    22    20    21   ar
    23    21    22   ar
    24    22    23   ar
    25    23    24   ar
    26    24    25   ar
    27    20    25   ar
    28     3    26    1
    29     3    27    1
    30     6    28    1
    31     8    29    1
    32     8    30    1
    33     9    31    1
    34    11    32    1
    35    11    33    1
    36    11    34    1
    37    12    35    1
    38    12    36    1
    39    12    37    1
    40    14    38    1
    41    15    39    1
    42    19    40    1
    43    19    41    1
    44    19    42    1
    45    21    43    1
    46    22    44    1
    47    23    45    1
    48    24    46    1
    49    25    47    1
