REMARK  Name = NuBBE_1275
REMARK  4 active torsions:
REMARK  status: ('A' for Active; 'I' for Inactive)
REMARK    1  A    between atoms: C_10  and  O_12
REMARK    2  A    between atoms: C_13  and  O_15
REMARK    3  A    between atoms: C_16  and  C_17
REMARK    4  A    between atoms: C_16  and  C_18
REMARK                            x       y       z     vdW  Elec       q    Type
REMARK                         _______ _______ _______ _____ _____    ______ ____
ROOT
ATOM      1  O   LIG A   1      -6.055   1.189   0.132  0.00  0.00    -0.245 OA
ATOM      2  C   LIG A   1      -4.837   1.299   0.133  0.00  0.00    +0.337 A 
ATOM      3  C   LIG A   1      -4.205   2.631   0.096  0.00  0.00    +0.092 A 
ATOM      4  C   LIG A   1      -2.880   2.796   0.107  0.00  0.00    +0.018 A 
ATOM      5  O   LIG A   1      -3.986   0.199   0.166  0.00  0.00    -0.422 OA
ATOM      6  C   LIG A   1      -2.586   0.358   0.170  0.00  0.00    +0.142 A 
ATOM      7  C   LIG A   1      -2.017   1.629   0.152  0.00  0.00    +0.018 A 
ATOM      8  C   LIG A   1      -0.629   1.747   0.169  0.00  0.00    +0.021 A 
ATOM      9  C   LIG A   1       0.183   0.600   0.198  0.00  0.00    +0.026 A 
ATOM     10  C   LIG A   1       1.678   0.745   0.210  0.00  0.00    +0.180 C 
ATOM     11  C   LIG A   1       2.356  -0.587   0.541  0.00  0.00    +0.190 C 
ATOM     12  C   LIG A   1       1.698  -1.721  -0.268  0.00  0.00    +0.134 C 
ATOM     13  C   LIG A   1       1.805  -1.543  -1.794  0.00  0.00    +0.058 C 
ATOM     14  C   LIG A   1       2.374  -3.054   0.091  0.00  0.00    +0.058 C 
ATOM     15  O   LIG A   1       0.302  -1.841   0.100  0.00  0.00    -0.483 OA
ATOM     16  C   LIG A   1      -0.411  -0.670   0.159  0.00  0.00    +0.131 A 
ATOM     17  C   LIG A   1      -1.801  -0.794   0.175  0.00  0.00    +0.093 A 
ENDROOT
BRANCH  10  18
ATOM     18  O   LIG A   1       2.108   1.709   1.182  0.00  0.00    -0.384 OA
ATOM     19  H   LIG A   1       1.510   1.634   1.947  0.00  0.00    +0.210 HD
ENDBRANCH  10  18
BRANCH  11  20
ATOM     20  O   LIG A   1       3.763  -0.479   0.302  0.00  0.00    -0.385 OA
ATOM     21  H   LIG A   1       4.043   0.343   0.750  0.00  0.00    +0.210 HD
ENDBRANCH  11  20
TORSDOF 2
