@<TRIPOS>MOLECULE
NuBBE_1758
 52 56 0 0 0
SMALL
GASTEIGER

@<TRIPOS>ATOM
      1 C          -1.1694   -0.0129    1.1996 C.2     1  LIG1        0.3171
      2 O          -1.3653   -1.1465    1.6193 O.2     1  LIG1       -0.2501
      3 O          -2.0490    1.0175    1.3441 O.3     1  LIG1       -0.4674
      4 C          -3.2670    0.7266    2.0329 C.3     1  LIG1        0.0817
      5 C           0.0677    0.4311    0.4094 C.3     1  LIG1        0.1118
      6 C          -0.2876    0.3614   -1.1128 C.3     1  LIG1        0.1136
      7 N          -0.8936   -0.9696   -1.4681 N.pl3   1  LIG1       -0.3300
      8 C          -2.0609   -0.6825   -2.2020 C.ar    1  LIG1        0.0385
      9 C          -2.4276    0.6566   -2.2169 C.ar    1  LIG1        0.0404
     10 C          -1.3734    1.3808   -1.5357 C.2     1  LIG1        0.1892
     11 O          -1.3664    2.5971   -1.4174 O.2     1  LIG1       -0.2897
     12 C          -3.5690    1.1340   -2.8332 C.ar    1  LIG1       -0.0494
     13 C          -4.3966    0.1968   -3.4484 C.ar    1  LIG1       -0.0610
     14 C          -4.0627   -1.1692   -3.4244 C.ar    1  LIG1       -0.0600
     15 C          -2.8938   -1.6154   -2.7913 C.ar    1  LIG1       -0.0401
     16 C           0.9442    0.5960   -2.0106 C.3     1  LIG1       -0.0105
     17 C           2.1533   -0.2203   -1.5608 C.3     1  LIG1        0.0016
     18 N           2.4233   -0.1225   -0.1291 N.3     1  LIG1       -0.2976
     19 C           1.2502   -0.5542    0.6795 C.3     1  LIG1        0.0314
     20 C           1.6968   -0.5745    2.1764 C.3     1  LIG1       -0.0242
     21 C           2.8761   -1.5388    2.4527 C.3     1  LIG1       -0.0516
     22 C           2.5669   -2.9939    2.1278 C.3     1  LIG1       -0.0650
     23 C           2.0603    0.8597    2.6103 C.3     1  LIG1       -0.0447
     24 C           2.0026    1.7883    1.3927 C.3     1  LIG1       -0.0268
     25 C           0.5549    1.8465    0.8733 C.3     1  LIG1       -0.0293
     26 C           2.8968    1.2143    0.2824 C.3     1  LIG1        0.0021
     27 H          -3.5563    1.6197    2.5944 H       1  LIG1        0.0661
     28 H          -3.1753   -0.1032    2.7399 H       1  LIG1        0.0661
     29 H          -4.0434    0.5122    1.2941 H       1  LIG1        0.0661
     30 H          -0.2930   -1.6642   -1.9047 H       1  LIG1        0.1471
     31 H          -3.8024    2.1931   -2.8362 H       1  LIG1        0.0625
     32 H          -5.3083    0.5215   -3.9449 H       1  LIG1        0.0618
     33 H          -4.7271   -1.8910   -3.8956 H       1  LIG1        0.0618
     34 H          -2.6603   -2.6748   -2.7570 H       1  LIG1        0.0636
     35 H           1.2046    1.6615   -2.0193 H       1  LIG1        0.0303
     36 H           0.7180    0.3430   -3.0550 H       1  LIG1        0.0303
     37 H           3.0396    0.0834   -2.1312 H       1  LIG1        0.0427
     38 H           1.9978   -1.2767   -1.8139 H       1  LIG1        0.0427
     39 H           0.9615   -1.5720    0.3935 H       1  LIG1        0.0477
     40 H           0.8633   -0.9128    2.8038 H       1  LIG1        0.0316
     41 H           3.1500   -1.4757    3.5134 H       1  LIG1        0.0266
     42 H           3.7657   -1.2324    1.8899 H       1  LIG1        0.0266
     43 H           1.7460   -3.3657    2.7484 H       1  LIG1        0.0230
     44 H           3.4472   -3.6155    2.3204 H       1  LIG1        0.0230
     45 H           2.2983   -3.1330    1.0773 H       1  LIG1        0.0230
     46 H           3.0566    0.9044    3.0663 H       1  LIG1        0.0271
     47 H           1.3542    1.2057    3.3758 H       1  LIG1        0.0271
     48 H           2.3382    2.7933    1.6720 H       1  LIG1        0.0314
     49 H           0.5255    2.5724    0.0561 H       1  LIG1        0.0280
     50 H          -0.0756    2.2612    1.6681 H       1  LIG1        0.0280
     51 H           3.9254    1.1183    0.6500 H       1  LIG1        0.0429
     52 H           2.9388    1.9206   -0.5554 H       1  LIG1        0.0429
@<TRIPOS>BOND
     1     1     2    2
     2     1     3    1
     3     3     4    1
     4     1     5    1
     5     5     6    1
     6     6     7    1
     7     7     8    1
     8     8     9   ar
     9     9    10    1
    10     6    10    1
    11    10    11    2
    12     9    12   ar
    13    12    13   ar
    14    13    14   ar
    15    14    15   ar
    16     8    15   ar
    17     6    16    1
    18    16    17    1
    19    17    18    1
    20    18    19    1
    21     5    19    1
    22    19    20    1
    23    20    21    1
    24    21    22    1
    25    20    23    1
    26    23    24    1
    27    24    25    1
    28     5    25    1
    29    24    26    1
    30    18    26    1
    31     4    27    1
    32     4    28    1
    33     4    29    1
    34     7    30    1
    35    12    31    1
    36    13    32    1
    37    14    33    1
    38    15    34    1
    39    16    35    1
    40    16    36    1
    41    17    37    1
    42    17    38    1
    43    19    39    1
    44    20    40    1
    45    21    41    1
    46    21    42    1
    47    22    43    1
    48    22    44    1
    49    22    45    1
    50    23    46    1
    51    23    47    1
    52    24    48    1
    53    25    49    1
    54    25    50    1
    55    26    51    1
    56    26    52    1
