REMARK  Name = NuBBE_1708
REMARK  2 active torsions:
REMARK  status: ('A' for Active; 'I' for Inactive)
REMARK    1  A    between atoms: C_4  and  O_5
REMARK    2  A    between atoms: C_12  and  O_13
REMARK                            x       y       z     vdW  Elec       q    Type
REMARK                         _______ _______ _______ _____ _____    ______ ____
ROOT
ATOM      1  O   LIG A   1      -2.632  -0.017  -0.002  0.00  0.00    -0.286 OA
ATOM      2  C   LIG A   1      -1.407  -0.025  -0.001  0.00  0.00    +0.204 A 
ATOM      3  C   LIG A   1      -0.651   1.234  -0.001  0.00  0.00    +0.106 A 
ATOM      4  C   LIG A   1      -1.298   2.474  -0.001  0.00  0.00    +0.131 A 
ATOM      5  C   LIG A   1      -0.554   3.650   0.000  0.00  0.00    +0.046 A 
ATOM      6  C   LIG A   1       0.841   3.589   0.001  0.00  0.00    +0.007 A 
ATOM      7  C   LIG A   1       1.488   2.350   0.001  0.00  0.00    +0.047 A 
ATOM      8  C   LIG A   1       0.742   1.169   0.000  0.00  0.00    +0.143 A 
ATOM      9  O   LIG A   1       1.456  -0.005   0.000  0.00  0.00    -0.451 OA
ATOM     10  C   LIG A   1       0.758  -1.189  -0.000  0.00  0.00    +0.180 A 
ATOM     11  C   LIG A   1       1.500  -2.371   0.000  0.00  0.00    +0.160 A 
ATOM     12  C   LIG A   1       0.872  -3.614   0.001  0.00  0.00    +0.049 A 
ATOM     13  C   LIG A   1      -0.522  -3.684   0.000  0.00  0.00    +0.004 A 
ATOM     14  C   LIG A   1      -1.279  -2.512  -0.000  0.00  0.00    +0.015 A 
ATOM     15  C   LIG A   1      -0.632  -1.271  -0.001  0.00  0.00    +0.068 A 
ENDROOT
BRANCH   4  16
ATOM     16  O   LIG A   1      -2.660   2.604  -0.002  0.00  0.00    -0.506 OA
ATOM     17  H   LIG A   1      -3.049   1.700  -0.002  0.00  0.00    +0.292 HD
ENDBRANCH   4  16
BRANCH  11  18
ATOM     18  O   LIG A   1       2.867  -2.353   0.001  0.00  0.00    -0.503 OA
ATOM     19  H   LIG A   1       3.144  -1.419   0.001  0.00  0.00    +0.292 HD
ENDBRANCH  11  18
TORSDOF 2
