REMARK  Name = NuBBE_1926
REMARK  5 active torsions:
REMARK  status: ('A' for Active; 'I' for Inactive)
REMARK    1  A    between atoms: C_1  and  C_2
REMARK    2  A    between atoms: C_8  and  C_9
REMARK    3  A    between atoms: C_8  and  C_10
REMARK    4  A    between atoms: C_17  and  C_18
REMARK    5  A    between atoms: C_17  and  C_19
REMARK                            x       y       z     vdW  Elec       q    Type
REMARK                         _______ _______ _______ _____ _____    ______ ____
ROOT
ATOM      1  C   LIG A   1      -0.732   1.320  -0.896  0.00  0.00    +0.012 C 
ATOM      2  C   LIG A   1       0.336   0.205  -0.811  0.00  0.00    -0.021 C 
ATOM      3  C   LIG A   1      -0.142  -1.185  -1.398  0.00  0.00    +0.009 C 
ATOM      4  C   LIG A   1      -1.392  -1.707  -0.668  0.00  0.00    +0.084 C 
ATOM      5  C   LIG A   1      -1.197  -1.774   0.831  0.00  0.00    +0.160 C 
ATOM      6  C   LIG A   1      -0.466  -0.639   1.468  0.00  0.00    -0.004 C 
ATOM      7  C   LIG A   1      -0.916  -0.204   2.658  0.00  0.00    -0.009 C 
ATOM      8  C   LIG A   1      -0.336   0.979   3.404  0.00  0.00    +0.004 C 
ATOM      9  C   LIG A   1      -1.495   1.797   4.011  0.00  0.00    +0.020 C 
ATOM     10  C   LIG A   1       0.407   1.891   2.395  0.00  0.00    +0.015 C 
ATOM     11  C   LIG A   1       1.358   1.124   1.470  0.00  0.00    +0.010 C 
ATOM     12  C   LIG A   1       0.702  -0.056   0.709  0.00  0.00    +0.028 C 
ATOM     13  O   LIG A   1      -1.712  -2.662   1.508  0.00  0.00    -0.292 OA
ATOM     14  C   LIG A   1      -0.228  -1.309  -2.965  0.00  0.00    -0.031 C 
ATOM     15  C   LIG A   1      -0.295  -2.808  -3.366  0.00  0.00    +0.011 C 
ATOM     16  C   LIG A   1      -1.468  -0.643  -3.592  0.00  0.00    +0.011 C 
ATOM     17  C   LIG A   1       1.059  -0.739  -3.606  0.00  0.00    +0.007 C 
ATOM     18  C   LIG A   1       1.430   0.648  -3.104  0.00  0.00    +0.001 C 
ATOM     19  C   LIG A   1       1.599   0.665  -1.589  0.00  0.00    +0.007 C 
ENDROOT
BRANCH   8  20
ATOM     20  C   LIG A   1       0.504   0.457   4.564  0.00  0.00    -0.024 C 
ATOM     21  C   LIG A   1       1.747   0.810   4.920  0.00  0.00    +0.005 C 
ENDBRANCH   8  20
TORSDOF 1
