REMARK  Name = NuBBE_875
REMARK  16 active torsions:
REMARK  status: ('A' for Active; 'I' for Inactive)
REMARK    1  A    between atoms: O_1  and  C_2
REMARK    2  A    between atoms: C_5  and  C_8
REMARK    3  A    between atoms: C_8  and  C_9
REMARK    4  A    between atoms: C_9  and  C_10
REMARK    5  A    between atoms: C_10  and  C_11
REMARK    6  A    between atoms: C_12  and  O_29
REMARK    7  A    between atoms: C_13  and  C_14
REMARK    8  A    between atoms: C_14  and  C_15
REMARK    9  A    between atoms: C_16  and  C_17
REMARK   10  A    between atoms: C_16  and  C_23
REMARK   11  A    between atoms: C_17  and  C_18
REMARK   12  A    between atoms: C_18  and  C_19
REMARK   13  A    between atoms: C_20  and  C_21
REMARK   14  A    between atoms: C_20  and  C_22
REMARK   15  A    between atoms: C_24  and  O_28
REMARK   16  A    between atoms: C_26  and  O_27
REMARK                            x       y       z     vdW  Elec       q    Type
REMARK                         _______ _______ _______ _____ _____    ______ ____
ROOT
ATOM      1  C   LIG A   1       0.905  -2.669  -1.184  0.00  0.00    +0.101 A 
ATOM      2  C   LIG A   1       0.307  -1.451  -0.781  0.00  0.00    +0.138 A 
ATOM      3  C   LIG A   1       0.736  -0.195  -1.267  0.00  0.00    +0.040 A 
ATOM      4  C   LIG A   1       1.829  -0.180  -2.140  0.00  0.00    +0.127 A 
ATOM      5  C   LIG A   1       2.449  -1.365  -2.535  0.00  0.00    +0.092 A 
ATOM      6  C   LIG A   1       1.989  -2.601  -2.068  0.00  0.00    +0.134 A 
ENDROOT
BRANCH   1   7
ATOM      7  C   LIG A   1       0.375  -3.947  -0.607  0.00  0.00    +0.171 C 
ATOM      8  O   LIG A   1      -0.167  -3.892   0.514  0.00  0.00    -0.292 OA
BRANCH   7   9
ATOM      9  C   LIG A   1       0.433  -5.258  -1.370  0.00  0.00    +0.084 C 
BRANCH   9  10
ATOM     10  C   LIG A   1      -0.951  -5.900  -1.516  0.00  0.00    +0.043 C 
BRANCH  10  14
ATOM     11  C   LIG A   1      -3.545  -3.383  -3.854  0.00  0.00    +0.117 A 
ATOM     12  C   LIG A   1      -2.451  -3.987  -4.464  0.00  0.00    +0.045 A 
ATOM     13  C   LIG A   1      -1.629  -4.834  -3.716  0.00  0.00    +0.007 A 
ATOM     14  C   LIG A   1      -1.883  -5.055  -2.354  0.00  0.00    -0.047 A 
ATOM     15  C   LIG A   1      -2.992  -4.436  -1.761  0.00  0.00    +0.007 A 
ATOM     16  C   LIG A   1      -3.821  -3.602  -2.511  0.00  0.00    +0.045 A 
BRANCH  11  17
ATOM     17  O   LIG A   1      -4.378  -2.558  -4.550  0.00  0.00    -0.507 OA
ATOM     18  H   LIG A   1      -4.109  -2.565  -5.483  0.00  0.00    +0.292 HD
ENDBRANCH  11  17
ENDBRANCH  10  14
ENDBRANCH   9  10
ENDBRANCH   7   9
ENDBRANCH   1   7
BRANCH   6  19
ATOM     19  O   LIG A   1       2.660  -3.723  -2.468  0.00  0.00    -0.506 OA
ATOM     20  H   LIG A   1       3.446  -3.454  -2.978  0.00  0.00    +0.292 HD
ENDBRANCH   6  19
BRANCH   4  21
ATOM     21  O   LIG A   1       2.370   0.958  -2.672  0.00  0.00    -0.506 OA
ATOM     22  H   LIG A   1       1.878   1.738  -2.369  0.00  0.00    +0.292 HD
ENDBRANCH   4  21
BRANCH   2  23
ATOM     23  O   LIG A   1      -0.736  -1.432   0.121  0.00  0.00    -0.505 OA
ATOM     24  H   LIG A   1      -0.800  -2.321   0.536  0.00  0.00    +0.292 HD
ENDBRANCH   2  23
BRANCH   3  25
ATOM     25  C   LIG A   1       0.027   1.071  -0.823  0.00  0.00    +0.069 C 
BRANCH  25  26
ATOM     26  C   LIG A   1       0.608   1.678   0.431  0.00  0.00    -0.023 C 
ATOM     27  C   LIG A   1       0.612   2.981   0.787  0.00  0.00    -0.076 C 
ATOM     28  C   LIG A   1       0.039   4.089  -0.056  0.00  0.00    +0.038 C 
BRANCH  27  29
ATOM     29  C   LIG A   1       1.208   3.417   2.120  0.00  0.00    +0.034 C 
BRANCH  29  30
ATOM     30  C   LIG A   1       0.172   3.502   3.254  0.00  0.00    +0.031 C 
BRANCH  30  31
ATOM     31  C   LIG A   1       0.792   3.940   4.560  0.00  0.00    -0.028 C 
ATOM     32  C   LIG A   1       0.890   5.191   5.056  0.00  0.00    -0.080 C 
ATOM     33  C   LIG A   1       0.405   6.434   4.365  0.00  0.00    +0.038 C 
ATOM     34  C   LIG A   1       1.547   5.446   6.390  0.00  0.00    +0.038 C 
ENDBRANCH  30  31
ENDBRANCH  29  30
ENDBRANCH  27  29
ENDBRANCH  25  26
ENDBRANCH   3  25
TORSDOF 13
