REMARK  Name = NuBBE_36
REMARK  10 active torsions:
REMARK  status: ('A' for Active; 'I' for Inactive)
REMARK    1  A    between atoms: C_1  and  O_2
REMARK    2  A    between atoms: O_2  and  C_3
REMARK    3  A    between atoms: C_10  and  C_11
REMARK    4  A    between atoms: C_17  and  C_19
REMARK    5  A    between atoms: C_21  and  O_22
REMARK    6  A    between atoms: O_22  and  C_23
REMARK    7  A    between atoms: C_24  and  O_25
REMARK    8  A    between atoms: O_25  and  C_26
REMARK    9  A    between atoms: C_27  and  O_28
REMARK   10  A    between atoms: O_28  and  C_29
REMARK                            x       y       z     vdW  Elec       q    Type
REMARK                         _______ _______ _______ _____ _____    ______ ____
ROOT
ATOM      1  C   LIG A   1      -1.853  -1.261  -0.329  0.00  0.00    +0.154 C 
ATOM      2  C   LIG A   1      -0.815  -0.285  -0.890  0.00  0.00    +0.056 C 
ATOM      3  C   LIG A   1      -1.266   1.151  -0.840  0.00  0.00    +0.167 C 
ATOM      4  O   LIG A   1      -1.137   1.554   0.527  0.00  0.00    -0.371 OA
ATOM      5  C   LIG A   1      -0.147   0.715   1.159  0.00  0.00    +0.154 C 
ATOM      6  C   LIG A   1       0.289  -0.335   0.130  0.00  0.00    +0.056 C 
ATOM      7  C   LIG A   1       0.215  -1.748   0.653  0.00  0.00    +0.167 C 
ATOM      8  O   LIG A   1      -1.166  -2.119   0.610  0.00  0.00    -0.371 OA
ENDROOT
BRANCH   1  16
ATOM      9  C   LIG A   1      -2.421  -4.062  -2.883  0.00  0.00    +0.166 A 
ATOM     10  C   LIG A   1      -3.583  -3.592  -3.481  0.00  0.00    +0.207 A 
ATOM     11  O   LIG A   1      -4.272  -4.186  -4.492  0.00  0.00    -0.449 OA
ATOM     12  C   LIG A   1      -5.355  -3.250  -4.677  0.00  0.00    +0.467 C 
ATOM     13  O   LIG A   1      -5.292  -2.119  -3.788  0.00  0.00    -0.453 OA
ATOM     14  C   LIG A   1      -4.168  -2.410  -3.075  0.00  0.00    +0.170 A 
ATOM     15  C   LIG A   1      -3.653  -1.638  -2.065  0.00  0.00    +0.056 A 
ATOM     16  C   LIG A   1      -2.485  -2.082  -1.427  0.00  0.00    -0.011 A 
ATOM     17  C   LIG A   1      -1.880  -3.286  -1.862  0.00  0.00    +0.056 A 
BRANCH   9  19
ATOM     18  C   LIG A   1      -0.733  -5.709  -2.670  0.00  0.00    +0.277 C 
ATOM     19  O   LIG A   1      -1.898  -5.244  -3.349  0.00  0.00    -0.491 OA
ENDBRANCH   9  19
ENDBRANCH   1  16
BRANCH   5  20
ATOM     20  C   LIG A   1       1.013   1.555   1.634  0.00  0.00    -0.011 A 
ATOM     21  C   LIG A   1       1.765   1.139   2.736  0.00  0.00    +0.056 A 
ATOM     22  C   LIG A   1       2.873   1.875   3.173  0.00  0.00    +0.166 A 
ATOM     23  C   LIG A   1       3.260   3.044   2.471  0.00  0.00    +0.203 A 
ATOM     24  C   LIG A   1       2.511   3.458   1.352  0.00  0.00    +0.166 A 
ATOM     25  C   LIG A   1       1.394   2.717   0.958  0.00  0.00    +0.056 A 
BRANCH  22  26
ATOM     26  O   LIG A   1       3.613   1.527   4.281  0.00  0.00    -0.491 OA
ATOM     27  C   LIG A   1       3.207   0.365   5.002  0.00  0.00    +0.277 C 
ENDBRANCH  22  26
BRANCH  23  28
ATOM     28  O   LIG A   1       4.391   3.676   2.943  0.00  0.00    -0.488 OA
ATOM     29  C   LIG A   1       4.490   5.075   2.700  0.00  0.00    +0.277 C 
ENDBRANCH  23  28
BRANCH  24  30
ATOM     30  O   LIG A   1       2.943   4.516   0.591  0.00  0.00    -0.491 OA
ATOM     31  C   LIG A   1       1.922   5.344   0.042  0.00  0.00    +0.277 C 
ENDBRANCH  24  30
ENDBRANCH   5  20
TORSDOF 6
