@<TRIPOS>MOLECULE
NuBBE_438
 97 102 0 0 0
SMALL
GASTEIGER

@<TRIPOS>ATOM
      1 C          -3.1783    2.8861    1.3164 C.3     1  LIG1       -0.0553
      2 C          -2.0076    1.9851    0.8437 C.3     1  LIG1       -0.0051
      3 C          -1.3788    1.1772    2.1237 C.3     1  LIG1       -0.0194
      4 C          -1.1987    2.1466    3.3415 C.3     1  LIG1       -0.0585
      5 C          -2.3096    0.0483    2.6625 C.3     1  LIG1       -0.0463
      6 C          -1.7987   -1.3866    2.6090 C.3     1  LIG1       -0.0486
      7 C          -0.3123   -1.5164    2.9728 C.3     1  LIG1       -0.0268
      8 C           0.1588   -3.0192    3.2702 C.3     1  LIG1        0.0055
      9 C           1.6886   -3.2656    2.9744 C.3     1  LIG1        0.1087
     10 O           1.9979   -3.6728    1.6237 O.3     1  LIG1       -0.4577
     11 C           2.0714   -4.9759    1.3012 C.2     1  LIG1        0.3322
     12 C           2.4105   -5.1520   -0.1259 C.2     1  LIG1        0.0231
     13 C           2.9760   -4.1917   -0.8793 C.2     1  LIG1       -0.0478
     14 C           3.3953   -4.3766   -2.2767 C.ar    1  LIG1       -0.0248
     15 C           4.4856   -3.6369   -2.7581 C.ar    1  LIG1       -0.0546
     16 C           4.9172   -3.7790   -4.0797 C.ar    1  LIG1       -0.0612
     17 C           4.2564   -4.6542   -4.9381 C.ar    1  LIG1       -0.0617
     18 C           3.1616   -5.3819   -4.4779 C.ar    1  LIG1       -0.0612
     19 C           2.7285   -5.2382   -3.1572 C.ar    1  LIG1       -0.0546
     20 O           1.8676   -5.9270    2.0485 O.2     1  LIG1       -0.2456
     21 C           2.5124   -1.9966    3.1969 C.3     1  LIG1       -0.0146
     22 C           2.0179   -0.7448    2.4509 C.3     1  LIG1       -0.0437
     23 C           0.5570   -0.7676    1.9344 C.3     1  LIG1       -0.0249
     24 C           0.4949   -1.4934    0.5437 C.3     1  LIG1       -0.0590
     25 C           0.0164    0.6829    1.6064 C.3     1  LIG1       -0.0257
     26 C           0.9821    1.8797    1.5111 C.3     1  LIG1       -0.0306
     27 C           0.3682    2.9150    0.5822 C.2     1  LIG1       -0.0836
     28 C          -0.9116    2.8816    0.1377 C.2     1  LIG1       -0.0632
     29 C          -1.3630    3.5193   -1.2007 C.3     1  LIG1       -0.0111
     30 C          -1.7035    2.3581   -2.2162 C.3     1  LIG1       -0.0253
     31 C          -2.8607    1.5249   -1.6010 C.3     1  LIG1       -0.0463
     32 C          -2.5796    0.9696   -0.2053 C.3     1  LIG1       -0.0429
     33 C          -0.5075    1.4156   -2.5127 C.3     1  LIG1       -0.0590
     34 C          -2.2185    2.8855   -3.5821 C.3     1  LIG1       -0.0468
     35 C          -1.4048    4.0403   -4.1502 C.3     1  LIG1       -0.0497
     36 C          -1.2791    5.1973   -3.1545 C.3     1  LIG1       -0.0407
     37 H          -0.6564    5.9717   -3.6226 H       1  LIG1        0.0301
     38 C          -2.6381    5.8635   -2.8988 C.3     1  LIG1       -0.0622
     39 C          -0.5827    4.7231   -1.8439 C.3     1  LIG1       -0.0343
     40 H          -0.6483    5.5568   -1.1297 H       1  LIG1        0.0307
     41 C           0.9190    4.5353   -2.1233 C.3     1  LIG1       -0.0616
     42 H          -2.3236    3.9865   -0.9496 H       1  LIG1        0.0354
     43 H          -0.1648    0.5517    0.5413 H       1  LIG1        0.0315
     44 C          -0.0300   -3.2605    4.7967 C.3     1  LIG1       -0.0562
     45 C          -0.7261   -4.0804    2.5746 C.3     1  LIG1       -0.0562
     46 H          -0.1842   -0.9627    3.9171 H       1  LIG1        0.0312
     47 H          -2.8215    3.7542    1.8809 H       1  LIG1        0.0238
     48 H          -3.8754    2.3319    1.9539 H       1  LIG1        0.0238
     49 H          -3.7710    3.2739    0.4820 H       1  LIG1        0.0238
     50 H          -2.1604    2.3839    3.8136 H       1  LIG1        0.0235
     51 H          -0.7564    3.1104    3.0743 H       1  LIG1        0.0235
     52 H          -0.5679    1.6862    4.1111 H       1  LIG1        0.0235
     53 H          -3.2990    0.0815    2.1978 H       1  LIG1        0.0271
     54 H          -2.5313    0.2361    3.7234 H       1  LIG1        0.0271
     55 H          -2.0009   -1.8020    1.6170 H       1  LIG1        0.0268
     56 H          -2.4068   -1.9651    3.3154 H       1  LIG1        0.0268
     57 H           2.0793   -4.0413    3.6454 H       1  LIG1        0.0739
     58 H           2.2156   -6.1473   -0.5077 H       1  LIG1        0.0689
     59 H           3.2001   -3.2175   -0.4507 H       1  LIG1        0.0626
     60 H           5.0207   -2.9508   -2.1048 H       1  LIG1        0.0623
     61 H           5.7707   -3.2082   -4.4370 H       1  LIG1        0.0618
     62 H           4.5916   -4.7669   -5.9658 H       1  LIG1        0.0618
     63 H           2.6404   -6.0620   -5.1467 H       1  LIG1        0.0618
     64 H           1.8610   -5.8064   -2.8323 H       1  LIG1        0.0623
     65 H           3.5498   -2.1806    2.8846 H       1  LIG1        0.0301
     66 H           2.5529   -1.7771    4.2697 H       1  LIG1        0.0301
     67 H           2.7025   -0.5404    1.6181 H       1  LIG1        0.0272
     68 H           2.1440    0.0936    3.1490 H       1  LIG1        0.0272
     69 H           1.2690   -1.1127   -0.1317 H       1  LIG1        0.0235
     70 H          -0.4696   -1.3455    0.0483 H       1  LIG1        0.0235
     71 H           0.5711   -2.5671    0.5707 H       1  LIG1        0.0235
     72 H           1.9236    1.5620    1.0489 H       1  LIG1        0.0310
     73 H           1.2391    2.3176    2.4803 H       1  LIG1        0.0310
     74 H           1.1114    3.5551    0.1324 H       1  LIG1        0.0572
     75 H          -3.1089    0.6849   -2.2643 H       1  LIG1        0.0271
     76 H          -3.7693    2.1383   -1.5514 H       1  LIG1        0.0271
     77 H          -1.9152    0.1154   -0.3335 H       1  LIG1        0.0274
     78 H          -3.5198    0.5408    0.1613 H       1  LIG1        0.0274
     79 H           0.0004    1.0644   -1.6133 H       1  LIG1        0.0235
     80 H           0.2448    1.8879   -3.1488 H       1  LIG1        0.0235
     81 H          -0.8426    0.5206   -3.0513 H       1  LIG1        0.0235
     82 H          -3.2637    3.2045   -3.4937 H       1  LIG1        0.0271
     83 H          -2.2312    2.0690   -4.3174 H       1  LIG1        0.0271
     84 H          -1.8785    4.3919   -5.0749 H       1  LIG1        0.0268
     85 H          -0.4085    3.6869   -4.4412 H       1  LIG1        0.0268
     86 H          -3.3689    5.1887   -2.4452 H       1  LIG1        0.0233
     87 H          -3.0676    6.2228   -3.8406 H       1  LIG1        0.0233
     88 H          -2.5243    6.7254   -2.2342 H       1  LIG1        0.0233
     89 H           1.2413    5.0540   -3.0329 H       1  LIG1        0.0233
     90 H           1.2181    3.4924   -2.2181 H       1  LIG1        0.0233
     91 H           1.5102    4.9829   -1.3169 H       1  LIG1        0.0233
     92 H           0.5967   -2.5876    5.3919 H       1  LIG1        0.0236
     93 H           0.2463   -4.2872    5.0680 H       1  LIG1        0.0236
     94 H          -1.0703   -3.1093    5.1029 H       1  LIG1        0.0236
     95 H          -0.7298   -3.9818    1.4870 H       1  LIG1        0.0236
     96 H          -1.7676   -4.0288    2.9099 H       1  LIG1        0.0236
     97 H          -0.3912   -5.0934    2.8197 H       1  LIG1        0.0236
@<TRIPOS>BOND
     1     2     3    1
     2     3     5    1
     3     5     6    1
     4     6     7    1
     5     7     8    1
     6     8     9    1
     7    10    11    1
     8    11    12    1
     9    12    13    2
    10    13    14    1
    11    14    15   ar
    12    15    16   ar
    13    16    17   ar
    14    17    18   ar
    15    18    19   ar
    16    14    19   ar
    17    11    20    2
    18     9    21    1
    19    21    22    1
    20    22    23    1
    21    23    25    1
    22    25    26    1
    23    26    27    1
    24    27    28    2
    25     2    28    1
    26    28    29    1
    27    29    30    1
    28    30    31    1
    29    31    32    1
    30     2    32    1
    31    30    34    1
    32    34    35    1
    33    35    36    1
    34    36    39    1
    35    29    39    1
    36     3    25    1
    37    23     7    1
    38     1     2    1
    39     3     4    1
    40     7    46    1
    41     8    44    1
    42     8    45    1
    43     9    10    1
    44    23    24    1
    45    25    43    1
    46    29    42    1
    47    30    33    1
    48    36    37    1
    49    36    38    1
    50    39    41    1
    51    39    40    1
    52     1    47    1
    53     1    48    1
    54     1    49    1
    55     4    50    1
    56     4    51    1
    57     4    52    1
    58     5    53    1
    59     5    54    1
    60     6    55    1
    61     6    56    1
    62     9    57    1
    63    12    58    1
    64    13    59    1
    65    15    60    1
    66    16    61    1
    67    17    62    1
    68    18    63    1
    69    19    64    1
    70    21    65    1
    71    21    66    1
    72    22    67    1
    73    22    68    1
    74    24    69    1
    75    24    70    1
    76    24    71    1
    77    26    72    1
    78    26    73    1
    79    27    74    1
    80    31    75    1
    81    31    76    1
    82    32    77    1
    83    32    78    1
    84    33    79    1
    85    33    80    1
    86    33    81    1
    87    34    82    1
    88    34    83    1
    89    35    84    1
    90    35    85    1
    91    38    86    1
    92    38    87    1
    93    38    88    1
    94    41    89    1
    95    41    90    1
    96    41    91    1
    97    44    92    1
    98    44    93    1
    99    44    94    1
   100    45    95    1
   101    45    96    1
   102    45    97    1
