@<TRIPOS>MOLECULE
NuBBE_2177
 56 57 0 0 0
SMALL
GASTEIGER

@<TRIPOS>ATOM
      1 O          -0.0870   -1.3326    1.1137 O.3     1  LIG1       -0.4532
      2 C           1.0566   -1.8231    0.3000 C.3     1  LIG1        0.2714
      3 O           2.3220   -1.7341    1.0063 O.3     1  LIG1       -0.3367
      4 C           3.4813   -2.2632    0.3361 C.3     1  LIG1        0.0411
      5 C           0.7424   -3.3076   -0.0614 C.2     1  LIG1        0.1717
      6 C           0.3576   -3.6623   -1.3044 C.2     1  LIG1        0.0251
      7 C           0.0883   -2.6725   -2.4046 C.2     1  LIG1        0.1630
      8 O          -0.1316   -3.0536   -3.5111 O.2     1  LIG1       -0.2923
      9 C           0.0657   -1.2022   -1.9861 C.3     1  LIG1        0.0314
     10 C           1.2206   -1.0480   -1.0202 C.3     1  LIG1        0.0308
     11 C           0.3263   -0.1821   -3.1093 C.3     1  LIG1       -0.0249
     12 C          -0.8009    0.0700   -4.0525 C.2     1  LIG1       -0.0904
     13 C          -0.6307    0.5228   -5.3013 C.2     1  LIG1       -0.1026
     14 O           0.9537   -4.3373    0.8682 O.2     1  LIG1       -0.4927
     15 C           1.5370   -4.0206    2.1335 C.3     1  LIG1        0.0786
     16 C          -0.3583    0.0157    1.2749 C.ar    1  LIG1        0.1318
     17 C          -1.6345    0.4718    1.6566 C.ar    1  LIG1        0.0018
     18 C          -2.8831   -0.3474    1.9872 C.3     1  LIG1       -0.0062
     19 C          -3.8013    0.1651    3.1258 C.2     1  LIG1       -0.0867
     20 C          -4.2089    1.3951    3.5014 C.2     1  LIG1       -0.1023
     21 C          -1.8088    1.8697    1.6562 C.ar    1  LIG1       -0.0094
     22 C          -0.8779    2.8387    1.3336 C.ar    1  LIG1        0.1620
     23 C           0.3412    2.3867    0.9154 C.ar    1  LIG1        0.1650
     24 C           0.6186    1.0073    1.0287 C.ar    1  LIG1        0.0258
     25 O           1.2501    3.2740    0.4158 O.3     1  LIG1       -0.4913
     26 C           1.9114    2.8147   -0.7606 C.3     1  LIG1        0.0790
     27 O          -1.3959    4.0873    1.4786 O.3     1  LIG1       -0.4914
     28 C          -0.6170    5.2209    1.1665 C.3     1  LIG1        0.0790
     29 H           3.2991   -3.2149   -0.1802 H       1  LIG1        0.0525
     30 H           4.2593   -2.4508    1.0840 H       1  LIG1        0.0525
     31 H           3.8818   -1.5325   -0.3686 H       1  LIG1        0.0525
     32 H           0.2324   -4.7024   -1.5990 H       1  LIG1        0.0688
     33 H          -0.8989   -1.0013   -1.5094 H       1  LIG1        0.0386
     34 H           1.3697    0.0053   -0.8487 H       1  LIG1        0.0340
     35 H           2.1510   -1.3310   -1.5240 H       1  LIG1        0.0340
     36 H           1.2553   -0.4222   -3.6420 H       1  LIG1        0.0314
     37 H           0.4965    0.7887   -2.6264 H       1  LIG1        0.0314
     38 H          -1.8102   -0.0719   -3.6776 H       1  LIG1        0.0566
     39 H           0.3512    0.7237   -5.7202 H       1  LIG1        0.0532
     40 H          -1.4917    0.7173   -5.9323 H       1  LIG1        0.0532
     41 H           1.4544   -4.8841    2.7975 H       1  LIG1        0.0660
     42 H           1.0362   -3.1765    2.6141 H       1  LIG1        0.0660
     43 H           2.6113   -3.8440    2.0349 H       1  LIG1        0.0660
     44 H          -2.5780   -1.3624    2.2764 H       1  LIG1        0.0357
     45 H          -3.4888   -0.4662    1.0770 H       1  LIG1        0.0357
     46 H          -4.1943   -0.6374    3.7502 H       1  LIG1        0.0570
     47 H          -4.0304    2.3376    3.0049 H       1  LIG1        0.0532
     48 H          -4.7775    1.5671    4.4080 H       1  LIG1        0.0532
     49 H          -2.7587    2.3033    1.8678 H       1  LIG1        0.0659
     50 H           1.6534    0.7180    0.9014 H       1  LIG1        0.0692
     51 H           2.2844    3.6822   -1.3117 H       1  LIG1        0.0660
     52 H           1.2434    2.2759   -1.4377 H       1  LIG1        0.0660
     53 H           2.7607    2.1906   -0.4743 H       1  LIG1        0.0660
     54 H           0.0649    5.4608    1.9874 H       1  LIG1        0.0660
     55 H          -1.3122    6.0586    1.0478 H       1  LIG1        0.0660
     56 H          -0.1009    5.1155    0.2138 H       1  LIG1        0.0660
@<TRIPOS>BOND
     1     1     2    1
     2     2     3    1
     3     3     4    1
     4     2     5    1
     5     5     6    2
     6     6     7    1
     7     7     8    2
     8     7     9    1
     9     9    10    1
    10     2    10    1
    11     9    11    1
    12    11    12    1
    13    12    13    2
    14     5    14    1
    15    14    15    1
    16     1    16    1
    17    16    17   ar
    18    17    18    1
    19    18    19    1
    20    19    20    2
    21    17    21   ar
    22    21    22   ar
    23    22    23   ar
    24    23    24   ar
    25    16    24   ar
    26    23    25    1
    27    25    26    1
    28    22    27    1
    29    27    28    1
    30     4    29    1
    31     4    30    1
    32     4    31    1
    33     6    32    1
    34     9    33    1
    35    10    34    1
    36    10    35    1
    37    11    36    1
    38    11    37    1
    39    12    38    1
    40    13    39    1
    41    13    40    1
    42    15    41    1
    43    15    42    1
    44    15    43    1
    45    18    44    1
    46    18    45    1
    47    19    46    1
    48    20    47    1
    49    20    48    1
    50    21    49    1
    51    24    50    1
    52    26    51    1
    53    26    52    1
    54    26    53    1
    55    28    54    1
    56    28    55    1
    57    28    56    1
