@<TRIPOS>MOLECULE
NuBBE_2235
 59 62 0 0 0
SMALL
GASTEIGER

@<TRIPOS>ATOM
      1 C          -1.3371    0.5307   -1.5321 C.3     1  LIG1       -0.0565
      2 C           0.0330    0.6483   -0.8003 C.3     1  LIG1        0.0041
      3 C           0.9757   -0.2341   -1.7253 C.3     1  LIG1       -0.0277
      4 C           0.8041   -1.7391   -1.4291 C.3     1  LIG1       -0.0485
      5 C           0.9654   -2.1135    0.0321 C.3     1  LIG1       -0.0440
      6 C          -0.0358   -1.4052    0.9502 C.3     1  LIG1        0.0078
      7 C          -1.4490   -2.0559    0.8895 C.3     1  LIG1       -0.0233
      8 C          -0.0145    0.1635    0.7429 C.3     1  LIG1        0.1142
      9 O           1.2791    0.5540    1.2909 O.3     1  LIG1       -0.3838
     10 C          -1.0856    0.8592    1.6985 C.3     1  LIG1        0.1331
     11 H          -0.7798    1.8970    1.8792 H       1  LIG1        0.0763
     12 O          -2.4416    0.8576    1.1872 O.3     1  LIG1       -0.4586
     13 C          -2.9397    2.0373    0.7164 C.2     1  LIG1        0.3043
     14 C          -4.2932    1.8549    0.0921 C.3     1  LIG1        0.0332
     15 O          -2.3186    3.1044    0.6662 O.2     1  LIG1       -0.2512
     16 C          -1.0920    0.2208    3.1206 C.3     1  LIG1       -0.0064
     17 C          -0.9082   -1.3057    3.1654 C.3     1  LIG1       -0.0161
     18 H          -0.8816   -1.6617    4.2016 H       1  LIG1        0.0347
     19 C           0.3519   -1.7205    2.4236 C.3     1  LIG1       -0.0377
     20 C          -1.9218   -2.0314    2.3266 C.2     1  LIG1       -0.0728
     21 C          -2.9621   -2.7193    2.8129 C.2     1  LIG1       -0.0992
     22 H           0.5329   -0.1427   -2.7290 H       1  LIG1        0.0312
     23 C           2.4429    0.2386   -2.0297 C.3     1  LIG1       -0.0315
     24 C           3.4925   -0.2810   -1.0368 C.3     1  LIG1       -0.0595
     25 C           2.8525   -0.2962   -3.4324 C.3     1  LIG1       -0.0595
     26 C           2.5291    1.7761   -2.1282 C.3     1  LIG1       -0.0476
     27 C           1.9123    2.4764   -0.9398 C.3     1  LIG1       -0.0520
     28 C           0.4244    2.1643   -0.8635 C.3     1  LIG1       -0.0446
     29 H          -1.2403    0.7719   -2.5997 H       1  LIG1        0.0236
     30 H          -2.0563    1.2582   -1.2010 H       1  LIG1        0.0236
     31 H          -1.7741   -0.4658   -1.4789 H       1  LIG1        0.0236
     32 H           1.4947   -2.3359   -2.0319 H       1  LIG1        0.0268
     33 H          -0.1961   -2.0542   -1.7545 H       1  LIG1        0.0268
     34 H           1.9836   -1.9040    0.3698 H       1  LIG1        0.0272
     35 H           0.8548   -3.2019    0.1241 H       1  LIG1        0.0272
     36 H          -1.3925   -3.0967    0.5490 H       1  LIG1        0.0316
     37 H          -2.1473   -1.5220    0.2479 H       1  LIG1        0.0316
     38 H           1.2488    1.4965    1.5289 H       1  LIG1        0.2104
     39 H          -4.8991    1.1678    0.6838 H       1  LIG1        0.0342
     40 H          -4.1972    1.4757   -0.9308 H       1  LIG1        0.0342
     41 H          -4.8031    2.8222    0.0514 H       1  LIG1        0.0342
     42 H          -2.0177    0.4877    3.6457 H       1  LIG1        0.0307
     43 H          -0.2643    0.6610    3.6939 H       1  LIG1        0.0307
     44 H           0.5505   -2.7945    2.5577 H       1  LIG1        0.0277
     45 H           1.2437   -1.1996    2.7868 H       1  LIG1        0.0277
     46 H          -3.1789   -2.7344    3.8773 H       1  LIG1        0.0534
     47 H          -3.6023   -3.3088    2.1650 H       1  LIG1        0.0534
     48 H           3.5750   -1.3720   -1.0773 H       1  LIG1        0.0235
     49 H           3.2771    0.0109   -0.0085 H       1  LIG1        0.0235
     50 H           4.4870    0.1109   -1.2796 H       1  LIG1        0.0235
     51 H           2.8404   -1.3889   -3.4756 H       1  LIG1        0.0235
     52 H           3.8605    0.0358   -3.7035 H       1  LIG1        0.0235
     53 H           2.1708    0.0713   -4.2100 H       1  LIG1        0.0235
     54 H           3.5745    2.0939   -2.2296 H       1  LIG1        0.0271
     55 H           2.0176    2.1250   -3.0356 H       1  LIG1        0.0271
     56 H           2.0390    3.5602   -1.0532 H       1  LIG1        0.0266
     57 H           2.4443    2.2155   -0.0221 H       1  LIG1        0.0266
     58 H          -0.0506    2.6323   -1.7361 H       1  LIG1        0.0272
     59 H           0.0226    2.7056   -0.0031 H       1  LIG1        0.0272
@<TRIPOS>BOND
     1     1     2    1
     2     2     3    1
     3     3     4    1
     4     4     5    1
     5     5     6    1
     6     6     7    1
     7     6     8    1
     8     8     9    1
     9     2     8    1
    10     8    10    1
    11    12    13    1
    12    13    14    1
    13    13    15    2
    14    10    16    1
    15    16    17    1
    16    17    18    1
    17    17    19    1
    18     6    19    1
    19    17    20    1
    20     7    20    1
    21    20    21    2
    22     3    22    1
    23     3    23    1
    24    23    24    1
    25    23    25    1
    26    23    26    1
    27    26    27    1
    28    27    28    1
    29     2    28    1
    30    10    12    1
    31    10    11    1
    32     1    29    1
    33     1    30    1
    34     1    31    1
    35     4    32    1
    36     4    33    1
    37     5    34    1
    38     5    35    1
    39     7    36    1
    40     7    37    1
    41     9    38    1
    42    14    39    1
    43    14    40    1
    44    14    41    1
    45    16    42    1
    46    16    43    1
    47    19    44    1
    48    19    45    1
    49    21    46    1
    50    21    47    1
    51    24    48    1
    52    24    49    1
    53    24    50    1
    54    25    51    1
    55    25    52    1
    56    25    53    1
    57    26    54    1
    58    26    55    1
    59    27    56    1
    60    27    57    1
    61    28    58    1
    62    28    59    1
