REMARK  Name = NuBBE_191
REMARK  10 active torsions:
REMARK  status: ('A' for Active; 'I' for Inactive)
REMARK    1  A    between atoms: C_1  and  C_2
REMARK    2  A    between atoms: C_2  and  C_38
REMARK    3  A    between atoms: C_3  and  O_37
REMARK    4  A    between atoms: C_7  and  C_36
REMARK    5  A    between atoms: C_11  and  C_35
REMARK    6  A    between atoms: C_17  and  C_34
REMARK    7  A    between atoms: C_20  and  C_31
REMARK    8  A    between atoms: C_23  and  C_30
REMARK    9  A    between atoms: C_25  and  C_29
REMARK   10  A    between atoms: C_31  and  O_32
REMARK                            x       y       z     vdW  Elec       q    Type
REMARK                         _______ _______ _______ _____ _____    ______ ____
ROOT
ATOM      1  C   LIG A   1      -1.772  -3.436   4.508  0.00  0.00    +0.014 C 
ATOM      2  C   LIG A   1      -1.654  -1.907   4.353  0.00  0.00    -0.006 C 
ATOM      3  C   LIG A   1      -3.072  -1.261   4.360  0.00  0.00    +0.120 C 
ATOM      4  C   LIG A   1      -3.847  -1.481   3.061  0.00  0.00    +0.032 C 
ATOM      5  C   LIG A   1      -3.064  -1.044   1.817  0.00  0.00    +0.010 C 
ATOM      6  C   LIG A   1      -1.645  -1.681   1.688  0.00  0.00    -0.025 C 
ATOM      7  C   LIG A   1      -0.895  -1.450   3.052  0.00  0.00    +0.003 C 
ATOM      8  C   LIG A   1       0.568  -1.919   2.955  0.00  0.00    +0.005 C 
ATOM      9  C   LIG A   1       1.321  -1.080   1.922  0.00  0.00    +0.008 C 
ATOM     10  C   LIG A   1       0.721  -1.115   0.489  0.00  0.00    -0.019 C 
ATOM     11  C   LIG A   1      -0.836  -0.896   0.557  0.00  0.00    +0.006 C 
ATOM     12  C   LIG A   1      -1.438  -1.011  -0.856  0.00  0.00    +0.031 C 
ATOM     13  C   LIG A   1      -0.677  -0.237  -1.890  0.00  0.00    -0.026 C 
ATOM     14  C   LIG A   1       0.562   0.270  -1.757  0.00  0.00    -0.063 C 
ATOM     15  C   LIG A   1       1.378   0.049  -0.457  0.00  0.00    -0.005 C 
ATOM     16  C   LIG A   1       1.387   1.459   0.223  0.00  0.00    +0.012 C 
ATOM     17  C   LIG A   1       1.822   2.629  -0.686  0.00  0.00    +0.019 C 
ATOM     18  C   LIG A   1       1.080   2.722  -2.064  0.00  0.00    +0.074 C 
ATOM     19  C   LIG A   1       1.159   1.302  -2.732  0.00  0.00    +0.035 C 
ATOM     20  C   LIG A   1       0.942   1.219  -4.289  0.00  0.00    -0.003 C 
ATOM     21  C   LIG A   1       1.753   2.330  -5.019  0.00  0.00    -0.011 C 
ATOM     22  C   LIG A   1       1.464   3.707  -4.413  0.00  0.00    +0.004 C 
ATOM     23  C   LIG A   1       1.808   3.783  -2.930  0.00  0.00    +0.019 C 
ATOM     24  C   LIG A   1       3.258   2.028  -5.057  0.00  0.00    +0.008 C 
ATOM     25  C   LIG A   1      -0.481   1.218  -4.857  0.00  0.00    +0.008 C 
ATOM     26  C   LIG A   1       2.851  -0.348  -0.776  0.00  0.00    +0.016 C 
ATOM     27  C   LIG A   1       1.059  -2.511  -0.118  0.00  0.00    +0.012 C 
ATOM     28  C   LIG A   1      -1.838  -3.177   1.339  0.00  0.00    +0.012 C 
ATOM     29  C   LIG A   1      -0.881  -1.415   5.608  0.00  0.00    +0.014 C 
ENDROOT
BRANCH  18  30
ATOM     30  C   LIG A   1      -0.371   3.208  -1.836  0.00  0.00    +0.311 C 
ATOM     31  O   LIG A   1      -1.381   2.682  -2.280  0.00  0.00    -0.250 OA
BRANCH  30  32
ATOM     32  O   LIG A   1      -0.481   4.355  -1.121  0.00  0.00    -0.480 OA
ATOM     33  H   LIG A   1       0.355   4.763  -0.837  0.00  0.00    +0.295 HD
ENDBRANCH  30  32
ENDBRANCH  18  30
BRANCH   3  34
ATOM     34  O   LIG A   1      -2.984   0.156   4.550  0.00  0.00    -0.391 OA
ATOM     35  H   LIG A   1      -2.781   0.318   5.486  0.00  0.00    +0.210 HD
ENDBRANCH   3  34
TORSDOF 3
