REMARK  Name = NuBBE_151
REMARK  6 active torsions:
REMARK  status: ('A' for Active; 'I' for Inactive)
REMARK    1  A    between atoms: C_2  and  O_3
REMARK    2  A    between atoms: C_2  and  C_5
REMARK    3  A    between atoms: O_3  and  C_4
REMARK    4  A    between atoms: C_7  and  O_8
REMARK    5  A    between atoms: C_11  and  C_12
REMARK    6  A    between atoms: C_11  and  C_13
REMARK                            x       y       z     vdW  Elec       q    Type
REMARK                         _______ _______ _______ _____ _____    ______ ____
ROOT
ATOM      1  C   LIG A   1      -0.513   1.969  -0.829  0.00  0.00    +0.063 A 
ATOM      2  C   LIG A   1       0.413   2.325   0.159  0.00  0.00    +0.064 A 
ATOM      3  C   LIG A   1       0.993   1.327   0.945  0.00  0.00    +0.160 A 
ATOM      4  C   LIG A   1       0.660  -0.021   0.758  0.00  0.00    +0.170 A 
ATOM      5  O   LIG A   1       1.282  -0.939   1.558  0.00  0.00    -0.478 OA
ATOM      6  C   LIG A   1       0.966  -2.336   1.413  0.00  0.00    +0.124 C 
ATOM      7  C   LIG A   1       2.288  -3.047   1.105  0.00  0.00    +0.060 C 
ATOM      8  C   LIG A   1       0.430  -2.797   2.773  0.00  0.00    +0.060 C 
ATOM      9  C   LIG A   1      -0.043  -2.680   0.341  0.00  0.00    +0.020 C 
ATOM     10  C   LIG A   1      -0.630  -1.764  -0.432  0.00  0.00    +0.011 C 
ATOM     11  C   LIG A   1      -0.269  -0.373  -0.221  0.00  0.00    +0.021 A 
ATOM     12  C   LIG A   1      -0.853   0.621  -1.010  0.00  0.00    +0.026 A 
ENDROOT
BRANCH   1  14
ATOM     13  O   LIG A   1      -0.855   4.220  -1.573  0.00  0.00    -0.245 OA
ATOM     14  C   LIG A   1      -1.113   3.036  -1.677  0.00  0.00    +0.339 C 
BRANCH  14  15
ATOM     15  O   LIG A   1      -1.964   2.471  -2.570  0.00  0.00    -0.464 OA
ATOM     16  C   LIG A   1      -2.610   3.374  -3.464  0.00  0.00    +0.280 C 
ENDBRANCH  14  15
ENDBRANCH   1  14
BRANCH   3  17
ATOM     17  O   LIG A   1       1.905   1.657   1.912  0.00  0.00    -0.503 OA
ATOM     18  H   LIG A   1       2.036   2.618   1.923  0.00  0.00    +0.292 HD
ENDBRANCH   3  17
TORSDOF 3
