@<TRIPOS>MOLECULE
NuBBE_665
 18 19 0 0 0
SMALL
GASTEIGER

@<TRIPOS>ATOM
      1 O          -3.5724   -0.4298    0.1665 O.3     1  LIG1       -0.5066
      2 C          -2.2095   -0.4208    0.1391 C.ar    1  LIG1        0.1204
      3 C          -1.4932    0.7693    0.1061 C.ar    1  LIG1        0.0229
      4 C          -0.1028    0.7029    0.0432 C.ar    1  LIG1        0.1425
      5 C           0.5772   -0.5150    0.0242 C.ar    1  LIG1        0.0178
      6 C          -0.1587   -1.7002    0.0812 C.ar    1  LIG1       -0.0476
      7 C          -1.5551   -1.6507    0.1333 C.ar    1  LIG1       -0.0194
      8 C           2.0264   -0.5109   -0.0857 C.ar    1  LIG1       -0.0443
      9 C           2.6741    0.6532   -0.1921 C.ar    1  LIG1        0.0236
     10 C           1.9781    1.9527   -0.1723 C.ar    1  LIG1        0.3372
     11 O           2.6045    2.9987   -0.2772 O.2     1  LIG1       -0.2452
     12 O           0.5975    1.9240   -0.0257 O.2     1  LIG1       -0.4220
     13 H          -3.8933    0.4863    0.1188 H       1  LIG1        0.2921
     14 H          -1.9873    1.7344    0.1150 H       1  LIG1        0.0691
     15 H           0.3373   -2.6674    0.0702 H       1  LIG1        0.0626
     16 H          -2.1334   -2.5708    0.1581 H       1  LIG1        0.0654
     17 H           2.5598   -1.4549   -0.1018 H       1  LIG1        0.0627
     18 H           3.7509    0.6994   -0.3007 H       1  LIG1        0.0689
@<TRIPOS>BOND
     1     1     2    1
     2     2     3   ar
     3     3     4   ar
     4     4     5   ar
     5     5     6   ar
     6     6     7   ar
     7     2     7   ar
     8     5     8   ar
     9     8     9   ar
    10     9    10   ar
    11    10    11    2
    12    10    12   ar
    13     4    12   ar
    14     1    13    1
    15     3    14    1
    16     6    15    1
    17     7    16    1
    18     8    17    1
    19     9    18    1
