REMARK  Name = NuBBE_2285
REMARK  6 active torsions:
REMARK  status: ('A' for Active; 'I' for Inactive)
REMARK    1  A    between atoms: C_1  and  C_2
REMARK    2  A    between atoms: C_1  and  C_4
REMARK    3  A    between atoms: C_9  and  O_12
REMARK    4  A    between atoms: O_12  and  C_13
REMARK    5  A    between atoms: C_15  and  C_20
REMARK    6  A    between atoms: C_17  and  C_19
REMARK                            x       y       z     vdW  Elec       q    Type
REMARK                         _______ _______ _______ _____ _____    ______ ____
ROOT
ATOM      1  C   LIG A   1      -0.414   0.602  -1.154  0.00  0.00    +0.041 C 
ATOM      2  C   LIG A   1       0.723  -0.311  -1.534  0.00  0.00    +0.109 C 
ATOM      3  C   LIG A   1       1.657  -0.039  -2.446  0.00  0.00    +0.090 C 
ATOM      4  C   LIG A   1       1.617   1.232  -3.207  0.00  0.00    +0.188 C 
ATOM      5  O   LIG A   1       2.384   1.350  -4.156  0.00  0.00    -0.290 OA
ATOM      6  C   LIG A   1       0.591   2.321  -2.798  0.00  0.00    +0.189 C 
ATOM      7  C   LIG A   1       0.056   2.059  -1.380  0.00  0.00    +0.055 C 
ATOM      8  O   LIG A   1       0.815  -1.441  -0.743  0.00  0.00    -0.487 OA
ATOM      9  C   LIG A   1      -0.205  -1.333   0.275  0.00  0.00    +0.207 C 
ATOM     10  C   LIG A   1      -0.596   0.171   0.327  0.00  0.00    +0.045 C 
ATOM     11  C   LIG A   1       0.247   0.999   1.311  0.00  0.00    +0.012 C 
ENDROOT
BRANCH   9  12
ATOM     12  C   LIG A   1       0.237  -1.996   1.571  0.00  0.00    -0.003 A 
ATOM     13  C   LIG A   1      -0.612  -1.991   2.694  0.00  0.00    +0.056 A 
ATOM     14  C   LIG A   1      -0.145  -2.531   3.877  0.00  0.00    +0.167 A 
ATOM     15  C   LIG A   1       1.090  -3.127   3.968  0.00  0.00    +0.166 A 
ATOM     16  C   LIG A   1       1.925  -3.221   2.879  0.00  0.00    +0.050 A 
ATOM     17  C   LIG A   1       1.494  -2.644   1.678  0.00  0.00    +0.011 A 
ATOM     18  O   LIG A   1       1.358  -3.580   5.222  0.00  0.00    -0.453 OA
ATOM     19  C   LIG A   1       0.179  -3.138   5.926  0.00  0.00    +0.466 C 
ATOM     20  O   LIG A   1      -0.806  -2.527   5.066  0.00  0.00    -0.453 OA
ENDBRANCH   9  12
BRANCH   6  21
ATOM     21  O   LIG A   1       1.082   3.663  -2.784  0.00  0.00    -0.372 OA
ATOM     22  C   LIG A   1       1.550   4.121  -4.047  0.00  0.00    +0.195 C 
ENDBRANCH   6  21
BRANCH   1  23
ATOM     23  C   LIG A   1      -1.669   0.242  -2.017  0.00  0.00    +0.041 C 
BRANCH  23  24
ATOM     24  C   LIG A   1      -2.898   1.068  -1.734  0.00  0.00    -0.034 C 
ATOM     25  C   LIG A   1      -4.066   0.566  -1.310  0.00  0.00    +0.004 C 
ENDBRANCH  23  24
ENDBRANCH   1  23
TORSDOF 4
