REMARK  Name = NuBBE_640
REMARK  27 active torsions:
REMARK  status: ('A' for Active; 'I' for Inactive)
REMARK    1  A    between atoms: C_4  and  O_6
REMARK    2  A    between atoms: O_6  and  C_7
REMARK    3  A    between atoms: C_7  and  C_8
REMARK    4  A    between atoms: C_10  and  O_12
REMARK    5  A    between atoms: O_12  and  C_13
REMARK    6  A    between atoms: C_13  and  C_14
REMARK    7  A    between atoms: C_15  and  C_16
REMARK    8  A    between atoms: C_17  and  C_18
REMARK    9  A    between atoms: C_18  and  C_19
REMARK   10  A    between atoms: C_19  and  C_20
REMARK   11  A    between atoms: C_20  and  C_21
REMARK   12  A    between atoms: C_21  and  C_22
REMARK   13  A    between atoms: C_24  and  C_26
REMARK   14  A    between atoms: C_27  and  C_28
REMARK   15  A    between atoms: C_27  and  C_29
REMARK   16  A    between atoms: C_29  and  C_30
REMARK   17  A    between atoms: C_30  and  C_31
REMARK   18  A    between atoms: C_31  and  C_32
REMARK   19  A    between atoms: C_36  and  O_38
REMARK   20  A    between atoms: O_38  and  C_39
REMARK   21  A    between atoms: C_39  and  C_40
REMARK   22  A    between atoms: C_43  and  O_45
REMARK   23  A    between atoms: O_45  and  C_46
REMARK   24  A    between atoms: C_46  and  C_47
REMARK   25  A    between atoms: C_50  and  O_52
REMARK   26  A    between atoms: O_52  and  C_53
REMARK   27  A    between atoms: C_53  and  C_54
REMARK                            x       y       z     vdW  Elec       q    Type
REMARK                         _______ _______ _______ _____ _____    ______ ____
ROOT
ATOM      1  C   LIG A   1      -2.341  -1.628   0.226  0.00  0.00    +0.019 C 
ATOM      2  C   LIG A   1      -2.446  -0.151   0.782  0.00  0.00    +0.104 C 
ATOM      3  C   LIG A   1      -1.132   0.611   0.361  0.00  0.00    +0.234 C 
ATOM      4  C   LIG A   1       0.121  -0.150   0.830  0.00  0.00    +0.222 C 
ATOM      5  C   LIG A   1       0.168  -1.711   0.760  0.00  0.00    +0.037 C 
ATOM      6  C   LIG A   1       1.230  -2.154   1.741  0.00  0.00    +0.012 C 
ATOM      7  C   LIG A   1      -1.181  -2.532   0.859  0.00  0.00    -0.022 C 
ATOM      8  C   LIG A   1      -1.032  -3.782  -0.065  0.00  0.00    +0.012 C 
ATOM      9  C   LIG A   1      -3.645   0.472   0.110  0.00  0.00    +0.014 C 
ATOM     10  C   LIG A   1      -4.565   1.100   1.114  0.00  0.00    +0.343 C 
ATOM     11  O   LIG A   1      -3.849   1.020   2.359  0.00  0.00    -0.297 OA
ATOM     12  C   LIG A   1      -2.910  -0.071   2.260  0.00  0.00    +0.328 C 
ATOM     13  C   LIG A   1      -3.877   0.340  -1.204  0.00  0.00    +0.023 C 
ATOM     14  C   LIG A   1      -3.036  -0.511  -2.094  0.00  0.00    +0.200 C 
ATOM     15  C   LIG A   1      -2.190  -1.561  -1.349  0.00  0.00    +0.054 C 
ENDROOT
BRANCH   7  16
ATOM     16  C   LIG A   1      -1.623  -3.143   2.270  0.00  0.00    +0.012 C 
BRANCH  16  17
ATOM     17  C   LIG A   1      -0.814  -4.243   3.083  0.00  0.00    +0.035 C 
BRANCH  17  18
ATOM     18  C   LIG A   1       0.531  -4.031   3.791  0.00  0.00    -0.055 C 
ATOM     19  C   LIG A   1       1.594  -4.810   3.511  0.00  0.00    +0.012 C 
BRANCH  18  20
ATOM     20  C   LIG A   1       0.732  -3.014   4.812  0.00  0.00    -0.005 C 
ATOM     21  C   LIG A   1      -0.170  -2.113   5.197  0.00  0.00    +0.008 C 
ENDBRANCH  18  20
ENDBRANCH  17  18
ENDBRANCH  16  17
ENDBRANCH   7  16
BRANCH  10  22
ATOM     22  O   LIG A   1      -5.736   0.272   1.206  0.00  0.00    -0.431 OA
BRANCH  22  23
ATOM     23  C   LIG A   1      -6.650   0.388   0.205  0.00  0.00    +0.306 C 
ATOM     24  C   LIG A   1      -7.379  -0.915   0.051  0.00  0.00    +0.136 C 
ATOM     25  O   LIG A   1      -6.800   1.349  -0.536  0.00  0.00    -0.251 OA
ENDBRANCH  22  23
ENDBRANCH  10  22
BRANCH  12  26
ATOM     26  O   LIG A   1      -1.810  -0.105   3.202  0.00  0.00    -0.434 OA
BRANCH  26  27
ATOM     27  C   LIG A   1      -1.252   1.035   3.587  0.00  0.00    +0.306 C 
ATOM     28  C   LIG A   1       0.069   0.979   4.258  0.00  0.00    +0.136 C 
ATOM     29  O   LIG A   1      -1.835   2.153   3.323  0.00  0.00    -0.251 OA
ENDBRANCH  26  27
ENDBRANCH  12  26
BRANCH   4  30
ATOM     30  O   LIG A   1       1.319   0.432   0.246  0.00  0.00    -0.454 OA
BRANCH  30  31
ATOM     31  C   LIG A   1       1.575   0.334  -1.082  0.00  0.00    +0.332 C 
ATOM     32  O   LIG A   1       1.094  -0.439  -1.892  0.00  0.00    -0.246 OA
BRANCH  31  33
ATOM     33  C   LIG A   1       2.395   1.509  -1.411  0.00  0.00    +0.091 C 
ATOM     34  C   LIG A   1       2.549   1.921  -2.680  0.00  0.00    +0.007 C 
BRANCH  34  35
ATOM     35  C   LIG A   1       3.181   3.186  -3.042  0.00  0.00    -0.004 C 
ATOM     36  C   LIG A   1       4.329   3.532  -2.447  0.00  0.00    -0.027 C 
BRANCH  36  37
ATOM     37  C   LIG A   1       5.338   4.608  -2.655  0.00  0.00    +0.027 C 
BRANCH  37  38
ATOM     38  C   LIG A   1       6.659   4.321  -3.421  0.00  0.00    +0.004 C 
BRANCH  38  39
ATOM     39  C   LIG A   1       7.712   3.371  -2.784  0.00  0.00    +0.000 C 
BRANCH  39  40
ATOM     40  C   LIG A   1       7.446   1.851  -2.808  0.00  0.00    -0.003 C 
ATOM     41  C   LIG A   1       6.312   1.357  -1.960  0.00  0.00    +0.004 C 
ENDBRANCH  39  40
ENDBRANCH  38  39
ENDBRANCH  37  38
ENDBRANCH  36  37
ENDBRANCH  34  35
ENDBRANCH  31  33
ENDBRANCH  30  31
ENDBRANCH   4  30
BRANCH  14  42
ATOM     42  O   LIG A   1      -3.932  -1.209  -2.971  0.00  0.00    -0.457 OA
BRANCH  42  43
ATOM     43  C   LIG A   1      -3.744  -0.987  -4.299  0.00  0.00    +0.304 C 
ATOM     44  C   LIG A   1      -4.682  -1.822  -5.108  0.00  0.00    +0.136 C 
ATOM     45  O   LIG A   1      -2.902  -0.251  -4.796  0.00  0.00    -0.251 OA
ENDBRANCH  42  43
ENDBRANCH  14  42
BRANCH   3  46
ATOM     46  O   LIG A   1      -1.152   2.108   0.461  0.00  0.00    -0.457 OA
BRANCH  46  47
ATOM     47  C   LIG A   1      -0.372   3.013   1.112  0.00  0.00    +0.304 C 
ATOM     48  C   LIG A   1       0.192   4.050   0.216  0.00  0.00    +0.136 C 
ATOM     49  O   LIG A   1       0.043   3.024   2.261  0.00  0.00    -0.251 OA
ENDBRANCH  46  47
ENDBRANCH   3  46
TORSDOF 20
