REMARK  Name = NuBBE_1618
REMARK  9 active torsions:
REMARK  status: ('A' for Active; 'I' for Inactive)
REMARK    1  A    between atoms: C_1  and  C_7
REMARK    2  A    between atoms: C_2  and  C_3
REMARK    3  A    between atoms: C_3  and  O_5
REMARK    4  A    between atoms: O_5  and  C_6
REMARK    5  A    between atoms: C_8  and  O_9
REMARK    6  A    between atoms: O_9  and  C_10
REMARK    7  A    between atoms: C_14  and  C_15
REMARK    8  A    between atoms: C_15  and  O_17
REMARK    9  A    between atoms: O_17  and  C_18
REMARK                            x       y       z     vdW  Elec       q    Type
REMARK                         _______ _______ _______ _____ _____    ______ ____
ROOT
ATOM      1  C   LIG A   1       0.320  -0.139   0.285  0.00  0.00    +0.050 A 
ATOM      2  C   LIG A   1       0.939  -1.397   0.056  0.00  0.00    +0.142 A 
ATOM      3  C   LIG A   1       2.351  -1.474   0.156  0.00  0.00    +0.082 A 
ATOM      4  C   LIG A   1       3.021  -0.289   0.447  0.00  0.00    +0.231 A 
ATOM      5  N   LIG A   1       2.499   0.927   0.658  0.00  0.00    -0.205 NA
ATOM      6  C   LIG A   1       1.145   0.960   0.575  0.00  0.00    +0.162 A 
ATOM      7  O   LIG A   1       4.366  -0.501   0.503  0.00  0.00    -0.445 OA
ATOM      8  C   LIG A   1       4.574  -1.817   0.268  0.00  0.00    +0.198 A 
ATOM      9  C   LIG A   1       3.378  -2.460   0.059  0.00  0.00    +0.055 A 
ENDROOT
BRANCH   1  10
ATOM     10  C   LIG A   1      -1.147  -0.018   0.206  0.00  0.00    +0.021 C 
ATOM     11  C   LIG A   1      -1.803   0.210  -0.943  0.00  0.00    +0.092 C 
BRANCH  11  12
ATOM     12  C   LIG A   1      -3.268   0.414  -1.017  0.00  0.00    +0.332 C 
ATOM     13  O   LIG A   1      -3.807   0.871  -2.014  0.00  0.00    -0.246 OA
BRANCH  12  14
ATOM     14  O   LIG A   1      -3.884   0.018   0.122  0.00  0.00    -0.465 OA
ATOM     15  C   LIG A   1      -5.297   0.223   0.172  0.00  0.00    +0.280 C 
ENDBRANCH  12  14
ENDBRANCH  11  12
ENDBRANCH   1  10
BRANCH   2  16
ATOM     16  O   LIG A   1       0.074  -2.443  -0.245  0.00  0.00    -0.494 OA
ATOM     17  C   LIG A   1       0.645  -3.721  -0.487  0.00  0.00    +0.277 C 
ENDBRANCH   2  16
BRANCH   6  18
ATOM     18  C   LIG A   1       0.560   2.329   0.793  0.00  0.00    +0.358 C 
ATOM     19  O   LIG A   1      -0.525   2.570   1.296  0.00  0.00    -0.243 OA
BRANCH  18  20
ATOM     20  O   LIG A   1       1.407   3.245   0.250  0.00  0.00    -0.463 OA
ATOM     21  C   LIG A   1       0.892   4.572   0.149  0.00  0.00    +0.280 C 
ENDBRANCH  18  20
ENDBRANCH   6  18
TORSDOF 6
