REMARK  Name = NuBBE_1003
REMARK  13 active torsions:
REMARK  status: ('A' for Active; 'I' for Inactive)
REMARK    1  A    between atoms: C_1  and  C_2
REMARK    2  A    between atoms: C_2  and  C_3
REMARK    3  A    between atoms: C_8  and  C_9
REMARK    4  A    between atoms: C_12  and  C_14
REMARK    5  A    between atoms: C_14  and  C_16
REMARK    6  A    between atoms: C_14  and  C_23
REMARK    7  A    between atoms: C_16  and  C_17
REMARK    8  A    between atoms: C_17  and  C_18
REMARK    9  A    between atoms: C_18  and  C_19
REMARK   10  A    between atoms: C_19  and  C_20
REMARK   11  A    between atoms: C_19  and  C_21
REMARK   12  A    between atoms: C_24  and  C_25
REMARK   13  A    between atoms: C_33  and  O_35
REMARK                            x       y       z     vdW  Elec       q    Type
REMARK                         _______ _______ _______ _____ _____    ______ ____
ROOT
ATOM      1  C   LIG A   1       0.515  -1.596  -6.031  0.00  0.00    +0.014 C 
ATOM      2  C   LIG A   1       1.966  -1.583  -5.485  0.00  0.00    -0.006 C 
ATOM      3  C   LIG A   1       2.832  -0.735  -6.446  0.00  0.00    +0.014 C 
ATOM      4  C   LIG A   1       2.036  -0.961  -4.041  0.00  0.00    +0.004 C 
ATOM      5  C   LIG A   1       1.326   0.423  -3.999  0.00  0.00    +0.005 C 
ATOM      6  C   LIG A   1       0.971   0.963  -2.622  0.00  0.00    +0.005 C 
ATOM      7  C   LIG A   1       0.019   0.008  -1.882  0.00  0.00    +0.002 C 
ATOM      8  C   LIG A   1      -0.462   0.550  -0.456  0.00  0.00    -0.023 C 
ATOM      9  C   LIG A   1       0.486   1.634   0.117  0.00  0.00    +0.012 C 
ATOM     10  C   LIG A   1      -1.878   1.173  -0.553  0.00  0.00    +0.008 C 
ATOM     11  C   LIG A   1      -2.430   1.163   0.877  0.00  0.00    +0.005 C 
ATOM     12  C   LIG A   1      -1.784  -0.036   1.637  0.00  0.00    -0.002 C 
ATOM     13  C   LIG A   1      -0.711  -0.602   0.591  0.00  0.00    -0.023 C 
ATOM     14  C   LIG A   1       0.603  -1.054   1.224  0.00  0.00    +0.012 C 
ATOM     15  C   LIG A   1      -1.322  -1.815  -0.192  0.00  0.00    +0.008 C 
ATOM     16  C   LIG A   1      -0.355  -2.429  -1.213  0.00  0.00    +0.008 C 
ATOM     17  C   LIG A   1       0.602  -1.416  -1.825  0.00  0.00    -0.019 C 
ATOM     18  C   LIG A   1       2.084  -1.559  -1.554  0.00  0.00    +0.015 C 
ATOM     19  C   LIG A   1       1.582  -1.927  -2.924  0.00  0.00    -0.019 C 
ATOM     20  C   LIG A   1       1.869  -3.420  -3.127  0.00  0.00    +0.010 C 
ATOM     21  C   LIG A   1       1.733  -3.924  -4.543  0.00  0.00    +0.032 C 
ATOM     22  C   LIG A   1       2.502  -3.037  -5.508  0.00  0.00    +0.120 C 
ENDROOT
BRANCH  12  23
ATOM     23  C   LIG A   1      -1.416   0.418   3.152  0.00  0.00    -0.010 C 
ATOM     24  C   LIG A   1      -0.395  -0.474   3.878  0.00  0.00    +0.008 C 
BRANCH  23  25
ATOM     25  C   LIG A   1      -2.723   0.535   4.015  0.00  0.00    +0.008 C 
BRANCH  25  26
ATOM     26  C   LIG A   1      -2.775   1.238   5.423  0.00  0.00    +0.030 C 
BRANCH  26  27
ATOM     27  C   LIG A   1      -2.375   2.692   5.663  0.00  0.00    -0.074 C 
ATOM     28  C   LIG A   1      -3.313   3.652   5.968  0.00  0.00    +0.008 C 
BRANCH  27  29
ATOM     29  C   LIG A   1      -0.895   3.019   5.889  0.00  0.00    +0.008 C 
ATOM     30  C   LIG A   1      -0.362   4.069   4.903  0.00  0.00    +0.012 C 
ATOM     31  C   LIG A   1      -0.665   3.515   7.337  0.00  0.00    +0.012 C 
ENDBRANCH  27  29
ENDBRANCH  26  27
ENDBRANCH  25  26
ENDBRANCH  23  25
ENDBRANCH  12  23
BRANCH  22  32
ATOM     32  O   LIG A   1       3.900  -3.101  -5.222  0.00  0.00    -0.391 OA
ATOM     33  H   LIG A   1       4.063  -2.683  -4.360  0.00  0.00    +0.210 HD
ENDBRANCH  22  32
TORSDOF 6
