REMARK  Name = NuBBE_1106
REMARK  6 active torsions:
REMARK  status: ('A' for Active; 'I' for Inactive)
REMARK    1  A    between atoms: N_9  and  O_10
REMARK    2  A    between atoms: N_12  and  C_13
REMARK    3  A    between atoms: C_13  and  C_14
REMARK    4  A    between atoms: C_14  and  C_15
REMARK    5  A    between atoms: C_25  and  C_26
REMARK    6  A    between atoms: C_25  and  C_27
REMARK                            x       y       z     vdW  Elec       q    Type
REMARK                         _______ _______ _______ _____ _____    ______ ____
ROOT
ATOM      1  C   LIG A   1      -1.710  -0.687   0.033  0.00  0.00    +0.059 C 
ENDROOT
BRANCH   1   2
ATOM      2  C   LIG A   1      -2.467   0.604  -0.102  0.00  0.00    -0.020 A 
ATOM      3  C   LIG A   1      -3.832   0.671  -0.316  0.00  0.00    +0.087 A 
ATOM      4  N   LIG A   1      -4.208   1.981  -0.334  0.00  0.00    -0.360 N 
ATOM      5  C   LIG A   1      -3.121   2.791  -0.108  0.00  0.00    +0.048 A 
ATOM      6  C   LIG A   1      -1.990   1.968   0.012  0.00  0.00    +0.013 A 
ATOM      7  C   LIG A   1      -0.744   2.620   0.230  0.00  0.00    +0.026 A 
ATOM      8  C   LIG A   1      -0.702   4.017   0.387  0.00  0.00    +0.130 A 
ATOM      9  C   LIG A   1      -1.849   4.789   0.255  0.00  0.00    +0.048 A 
ATOM     10  C   LIG A   1      -3.079   4.189  -0.005  0.00  0.00    +0.030 A 
ATOM     11  O   LIG A   1       0.455   4.707   0.647  0.00  0.00    -0.482 OA
ATOM     12  C   LIG A   1       1.570   3.950   1.165  0.00  0.00    +0.123 C 
ATOM     13  C   LIG A   1       1.540   4.044   2.696  0.00  0.00    +0.060 C 
ATOM     14  C   LIG A   1       2.828   4.648   0.633  0.00  0.00    +0.060 C 
ATOM     15  C   LIG A   1       1.591   2.506   0.727  0.00  0.00    +0.020 C 
ATOM     16  C   LIG A   1       0.504   1.876   0.268  0.00  0.00    +0.012 C 
ATOM     17  H   LIG A   1      -5.152   2.317  -0.465  0.00  0.00    +0.165 HD
ENDBRANCH   1   2
BRANCH   1  18
ATOM     18  C   LIG A   1      -1.204  -1.231  -1.310  0.00  0.00    +0.135 C 
BRANCH  18  29
ATOM     19  O   LIG A   1       1.530  -1.394  -0.832  0.00  0.00    -0.267 OA
ATOM     20  C   LIG A   1       0.893  -2.439  -0.903  0.00  0.00    +0.265 A 
ATOM     21  C   LIG A   1       1.601  -3.724  -0.705  0.00  0.00    +0.067 A 
ATOM     22  C   LIG A   1       0.879  -4.912  -0.771  0.00  0.00    +0.098 A 
ATOM     23  C   LIG A   1       1.536  -6.132  -0.576  0.00  0.00    +0.030 A 
ATOM     24  C   LIG A   1       2.909  -6.156  -0.314  0.00  0.00    +0.002 A 
ATOM     25  C   LIG A   1       3.629  -4.964  -0.248  0.00  0.00    +0.001 A 
ATOM     26  C   LIG A   1       2.977  -3.745  -0.444  0.00  0.00    +0.015 A 
ATOM     27  N   LIG A   1      -0.492  -4.840  -1.028  0.00  0.00    -0.131 N 
ATOM     28  C   LIG A   1      -1.207  -3.678  -1.209  0.00  0.00    +0.365 A 
ATOM     29  N   LIG A   1      -0.479  -2.496  -1.153  0.00  0.00    -0.258 N 
ATOM     30  O   LIG A   1      -2.426  -3.725  -1.401  0.00  0.00    -0.243 OA
BRANCH  27  31
ATOM     31  O   LIG A   1      -1.211  -6.056  -1.077  0.00  0.00    -0.422 OA
ATOM     32  H   LIG A   1      -2.123  -5.734  -1.242  0.00  0.00    +0.326 HD
ENDBRANCH  27  31
ENDBRANCH  18  29
ENDBRANCH   1  18
TORSDOF 4
