@<TRIPOS>MOLECULE
NuBBE_1424
 45 47 0 0 0
SMALL
GASTEIGER

@<TRIPOS>ATOM
      1 O          -3.3483    0.4637   -1.0203 O.2     1  LIG1       -0.2449
      2 C          -2.3325   -0.0112   -0.5194 C.ar    1  LIG1        0.3413
      3 O          -1.1439    0.7093   -0.5622 O.2     1  LIG1       -0.4215
      4 C           0.0390    0.2684    0.0591 C.ar    1  LIG1        0.1458
      5 C           1.1873    1.0648   -0.0530 C.ar    1  LIG1        0.0397
      6 C           2.3451    0.6482    0.6054 C.ar    1  LIG1        0.1282
      7 O           3.5351    1.3199    0.5770 O.3     1  LIG1       -0.4833
      8 C           3.5585    2.6154   -0.0531 C.3     1  LIG1        0.1310
      9 C           5.0124    2.8183   -0.5119 C.3     1  LIG1       -0.0227
     10 C           2.5908    2.7279   -1.2597 C.3     1  LIG1        0.0984
     11 H           2.5776    3.7542   -1.6459 H       1  LIG1        0.0636
     12 C           1.1728    2.3323   -0.8573 C.3     1  LIG1        0.0092
     13 O           2.9802    1.8921   -2.3611 O.3     1  LIG1       -0.3875
     14 C           3.2438    3.6732    1.0194 C.3     1  LIG1       -0.0227
     15 C           2.3488   -0.5452    1.3336 C.ar    1  LIG1       -0.0188
     16 C           1.2007   -1.3390    1.4038 C.ar    1  LIG1       -0.0476
     17 C           0.0348   -0.9316    0.7554 C.ar    1  LIG1        0.0184
     18 C          -1.1685   -1.7475    0.7434 C.ar    1  LIG1       -0.0403
     19 C          -2.3070   -1.3570    0.1351 C.ar    1  LIG1        0.0470
     20 C          -3.5838   -2.2289    0.0477 C.3     1  LIG1        0.0146
     21 C          -3.9413   -2.5238   -1.4291 C.3     1  LIG1       -0.0521
     22 C          -3.4158   -3.5492    0.8277 C.2     1  LIG1       -0.0809
     23 C          -3.0784   -4.7543    0.3432 C.2     1  LIG1       -0.1018
     24 C          -4.7966   -1.5243    0.7020 C.3     1  LIG1       -0.0521
     25 H           5.3450    1.9963   -1.1557 H       1  LIG1        0.0269
     26 H           5.6969    2.8194    0.3446 H       1  LIG1        0.0269
     27 H           5.1363    3.7624   -1.0525 H       1  LIG1        0.0269
     28 H           0.5701    2.1919   -1.7626 H       1  LIG1        0.0342
     29 H           0.7077    3.1218   -0.2562 H       1  LIG1        0.0342
     30 H           3.8206    2.2238   -2.7166 H       1  LIG1        0.2100
     31 H           3.9620    3.6141    1.8458 H       1  LIG1        0.0269
     32 H           2.2578    3.5193    1.4692 H       1  LIG1        0.0269
     33 H           3.2805    4.6856    0.6036 H       1  LIG1        0.0269
     34 H           3.2582   -0.8652    1.8369 H       1  LIG1        0.0654
     35 H           1.2354   -2.2731    1.9585 H       1  LIG1        0.0626
     36 H          -1.0807   -2.7171    1.2220 H       1  LIG1        0.0630
     37 H          -3.0961   -2.9577   -1.9757 H       1  LIG1        0.0241
     38 H          -4.2478   -1.6230   -1.9706 H       1  LIG1        0.0241
     39 H          -4.7829   -3.2250   -1.4994 H       1  LIG1        0.0241
     40 H          -3.5646   -3.4770    1.9065 H       1  LIG1        0.0575
     41 H          -2.8745   -4.9278   -0.7082 H       1  LIG1        0.0532
     42 H          -2.9747   -5.6061    1.0095 H       1  LIG1        0.0532
     43 H          -5.0845   -0.6049    0.1843 H       1  LIG1        0.0241
     44 H          -4.5934   -1.2608    1.7470 H       1  LIG1        0.0241
     45 H          -5.6821   -2.1727    0.6896 H       1  LIG1        0.0241
@<TRIPOS>BOND
     1     1     2    2
     2     2     3   ar
     3     3     4   ar
     4     4     5   ar
     5     5     6   ar
     6     6     7    1
     7     7     8    1
     8     8     9    1
     9     8    10    1
    10    10    11    1
    11    10    12    1
    12     5    12    1
    13    10    13    1
    14     8    14    1
    15     6    15   ar
    16    15    16   ar
    17    16    17   ar
    18     4    17   ar
    19    17    18   ar
    20    18    19   ar
    21     2    19   ar
    22    19    20    1
    23    20    21    1
    24    20    22    1
    25    22    23    2
    26    20    24    1
    27     9    25    1
    28     9    26    1
    29     9    27    1
    30    12    28    1
    31    12    29    1
    32    13    30    1
    33    14    31    1
    34    14    32    1
    35    14    33    1
    36    15    34    1
    37    16    35    1
    38    18    36    1
    39    21    37    1
    40    21    38    1
    41    21    39    1
    42    22    40    1
    43    23    41    1
    44    23    42    1
    45    24    43    1
    46    24    44    1
    47    24    45    1
