@<TRIPOS>MOLECULE
NuBBE_1688
 55 55 0 0 0
SMALL
GASTEIGER

@<TRIPOS>ATOM
      1 C           4.4653    2.9222    3.6370 C.3     1  LIG1       -0.0650
      2 C           3.2717    3.8683    3.6547 C.3     1  LIG1       -0.0525
      3 C           2.2454    3.5445    2.5644 C.3     1  LIG1       -0.0350
      4 C           2.8453    3.6618    1.1871 C.2     1  LIG1       -0.0876
      5 C           2.9323    2.7046    0.2461 C.2     1  LIG1       -0.0842
      6 C           2.3950    1.3065    0.3023 C.3     1  LIG1       -0.0165
      7 C           0.8948    1.3065    0.4736 C.2     1  LIG1       -0.0842
      8 C          -0.0069    1.7131   -0.4001 C.2     1  LIG1       -0.0876
      9 C          -1.4857    1.7962   -0.1058 C.3     1  LIG1       -0.0348
     10 C          -2.3310    0.5994   -0.5223 C.3     1  LIG1       -0.0496
     11 C          -2.3051   -0.6365    0.3923 C.3     1  LIG1       -0.0528
     12 C          -0.9781   -1.3923    0.4720 C.3     1  LIG1       -0.0530
     13 C          -1.0492   -2.7274    1.2119 C.3     1  LIG1       -0.0528
     14 C          -1.9728   -3.7770    0.5944 C.3     1  LIG1       -0.0491
     15 C          -1.5719   -4.2667   -0.8077 C.3     1  LIG1       -0.0275
     16 C          -1.5480   -3.2487   -1.9261 C.ar    1  LIG1       -0.0405
     17 C          -2.6905   -2.5142   -2.2799 C.ar    1  LIG1       -0.0168
     18 C          -2.6116   -1.5277   -3.2660 C.ar    1  LIG1        0.1206
     19 O          -3.6841   -0.7352   -3.5631 O.3     1  LIG1       -0.5066
     20 C          -1.4193   -1.2674   -3.9309 C.ar    1  LIG1        0.0213
     21 C          -0.2905   -2.0014   -3.5906 C.ar    1  LIG1        0.1206
     22 O           0.9096   -1.7795   -4.2007 O.3     1  LIG1       -0.5066
     23 C          -0.3439   -2.9807   -2.6009 C.ar    1  LIG1       -0.0168
     24 H           5.2367    3.2715    4.3293 H       1  LIG1        0.0230
     25 H           4.9206    2.8602    2.6440 H       1  LIG1        0.0230
     26 H           4.1633    1.9138    3.9366 H       1  LIG1        0.0230
     27 H           3.6254    4.8996    3.5362 H       1  LIG1        0.0266
     28 H           2.7863    3.8129    4.6369 H       1  LIG1        0.0266
     29 H           1.4105    4.2520    2.6413 H       1  LIG1        0.0307
     30 H           1.8330    2.5490    2.7535 H       1  LIG1        0.0307
     31 H           3.2716    4.6348    0.9521 H       1  LIG1        0.0569
     32 H           3.4410    2.9558   -0.6837 H       1  LIG1        0.0572
     33 H           2.8660    0.7570    1.1201 H       1  LIG1        0.0350
     34 H           2.6602    0.7668   -0.6144 H       1  LIG1        0.0350
     35 H           0.5730    0.9338    1.4561 H       1  LIG1        0.0572
     36 H           0.3202    2.1253   -1.3656 H       1  LIG1        0.0569
     37 H          -1.8587    2.6692   -0.6514 H       1  LIG1        0.0307
     38 H          -1.6486    2.0124    0.9567 H       1  LIG1        0.0307
     39 H          -2.0863    0.3359   -1.5529 H       1  LIG1        0.0268
     40 H          -3.3781    0.9367   -0.5456 H       1  LIG1        0.0268
     41 H          -3.0929   -1.3043    0.0332 H       1  LIG1        0.0265
     42 H          -2.6148   -0.3523    1.4027 H       1  LIG1        0.0265
     43 H          -0.2574   -0.8092    1.0283 H       1  LIG1        0.0265
     44 H          -0.5318   -1.5109   -0.5127 H       1  LIG1        0.0265
     45 H          -1.3734   -2.5293    2.2425 H       1  LIG1        0.0265
     46 H          -0.0351   -3.1412    1.2936 H       1  LIG1        0.0265
     47 H          -3.0060   -3.4167    0.6009 H       1  LIG1        0.0268
     48 H          -1.9642   -4.6490    1.2642 H       1  LIG1        0.0268
     49 H          -2.2732   -5.0548   -1.1061 H       1  LIG1        0.0313
     50 H          -0.5897   -4.7502   -0.7319 H       1  LIG1        0.0313
     51 H          -3.6151   -2.6622   -1.7297 H       1  LIG1        0.0657
     52 H          -4.4104   -0.9563   -2.9569 H       1  LIG1        0.2921
     53 H          -1.3841   -0.4807   -4.6764 H       1  LIG1        0.0691
     54 H           0.7692   -1.1424   -4.9205 H       1  LIG1        0.2921
     55 H           0.5725   -3.4955   -2.3221 H       1  LIG1        0.0657
@<TRIPOS>BOND
     1     1     2    1
     2     2     3    1
     3     3     4    1
     4     4     5    2
     5     5     6    1
     6     6     7    1
     7     7     8    2
     8     8     9    1
     9     9    10    1
    10    10    11    1
    11    11    12    1
    12    12    13    1
    13    13    14    1
    14    14    15    1
    15    15    16    1
    16    16    17   ar
    17    17    18   ar
    18    18    19    1
    19    18    20   ar
    20    20    21   ar
    21    21    22    1
    22    21    23   ar
    23    16    23   ar
    24     1    24    1
    25     1    25    1
    26     1    26    1
    27     2    27    1
    28     2    28    1
    29     3    29    1
    30     3    30    1
    31     4    31    1
    32     5    32    1
    33     6    33    1
    34     6    34    1
    35     7    35    1
    36     8    36    1
    37     9    37    1
    38     9    38    1
    39    10    39    1
    40    10    40    1
    41    11    41    1
    42    11    42    1
    43    12    43    1
    44    12    44    1
    45    13    45    1
    46    13    46    1
    47    14    47    1
    48    14    48    1
    49    15    49    1
    50    15    50    1
    51    17    51    1
    52    19    52    1
    53    20    53    1
    54    22    54    1
    55    23    55    1
