REMARK  Name = NuBBE_2275
REMARK  6 active torsions:
REMARK  status: ('A' for Active; 'I' for Inactive)
REMARK    1  A    between atoms: O_1  and  C_2
REMARK    2  A    between atoms: C_7  and  C_8
REMARK    3  A    between atoms: C_9  and  O_10
REMARK    4  A    between atoms: C_13  and  O_14
REMARK    5  A    between atoms: C_16  and  O_17
REMARK    6  A    between atoms: O_17  and  C_18
REMARK                            x       y       z     vdW  Elec       q    Type
REMARK                         _______ _______ _______ _____ _____    ______ ____
ROOT
ATOM      1  C   LIG A   1      -0.962  -0.757   0.184  0.00  0.00    +0.181 A 
ATOM      2  C   LIG A   1      -0.340  -1.920  -0.094  0.00  0.00    +0.208 A 
ATOM      3  C   LIG A   1       1.107  -1.900  -0.406  0.00  0.00    +0.238 A 
ATOM      4  C   LIG A   1       1.776  -0.602  -0.436  0.00  0.00    +0.109 A 
ATOM      5  C   LIG A   1       3.132  -0.484  -0.750  0.00  0.00    +0.135 A 
ATOM      6  C   LIG A   1       3.739   0.770  -0.787  0.00  0.00    +0.092 A 
ATOM      7  C   LIG A   1       2.988   1.913  -0.509  0.00  0.00    +0.127 A 
ATOM      8  C   LIG A   1       1.630   1.787  -0.188  0.00  0.00    +0.092 A 
ATOM      9  C   LIG A   1       1.024   0.529  -0.151  0.00  0.00    +0.146 A 
ATOM     10  O   LIG A   1      -0.310   0.477   0.170  0.00  0.00    -0.451 OA
ATOM     11  O   LIG A   1       1.707  -2.946  -0.638  0.00  0.00    -0.283 OA
ENDROOT
BRANCH   1  17
ATOM     12  C   LIG A   1      -5.153  -0.391   1.101  0.00  0.00    +0.117 A 
ATOM     13  C   LIG A   1      -4.472  -1.538   1.483  0.00  0.00    +0.046 A 
ATOM     14  C   LIG A   1      -3.107  -1.656   1.198  0.00  0.00    +0.015 A 
ATOM     15  C   LIG A   1      -4.490   0.636   0.445  0.00  0.00    +0.046 A 
ATOM     16  C   LIG A   1      -3.128   0.508   0.149  0.00  0.00    +0.015 A 
ATOM     17  C   LIG A   1      -2.411  -0.647   0.507  0.00  0.00    +0.021 A 
BRANCH  12  18
ATOM     18  O   LIG A   1      -6.482  -0.234   1.359  0.00  0.00    -0.507 OA
ATOM     19  H   LIG A   1      -6.808  -1.035   1.800  0.00  0.00    +0.292 HD
ENDBRANCH  12  18
ENDBRANCH   1  17
BRANCH   2  20
ATOM     20  O   LIG A   1      -0.954  -3.159  -0.130  0.00  0.00    -0.501 OA
ATOM     21  H   LIG A   1      -0.244  -3.794  -0.364  0.00  0.00    +0.292 HD
ENDBRANCH   2  20
BRANCH   5  22
ATOM     22  O   LIG A   1       3.928  -1.561  -1.037  0.00  0.00    -0.506 OA
ATOM     23  H   LIG A   1       3.383  -2.377  -0.977  0.00  0.00    +0.292 HD
ENDBRANCH   5  22
BRANCH   7  24
ATOM     24  O   LIG A   1       3.459   3.198  -0.517  0.00  0.00    -0.495 OA
ATOM     25  C   LIG A   1       4.829   3.376  -0.864  0.00  0.00    +0.277 C 
ENDBRANCH   7  24
TORSDOF 5
