@<TRIPOS>MOLECULE
NuBBE_12
 44 49 0 0 0
SMALL
GASTEIGER

@<TRIPOS>ATOM
      1 H          -3.1204   -4.9785    2.3635 H       1  LIG1        0.0655
      2 C          -2.4713   -4.5589    1.6032 C.ar    1  LIG1       -0.0158
      3 C          -2.2196   -5.2404    0.4331 C.ar    1  LIG1        0.1662
      4 O          -2.7310   -6.4528    0.0905 O.3     1  LIG1       -0.4526
      5 C          -2.1269   -6.6448   -1.2058 C.3     1  LIG1        0.2332
      6 O          -1.2779   -5.5515   -1.6118 O.3     1  LIG1       -0.4526
      7 C          -1.3910   -4.7285   -0.5352 C.ar    1  LIG1        0.1666
      8 C          -0.7692   -3.5066   -0.3884 C.ar    1  LIG1       -0.0105
      9 C          -1.0105   -2.7667    0.7841 C.ar    1  LIG1       -0.0149
     10 C          -0.3842   -1.4013    0.9839 C.3     1  LIG1        0.0891
     11 H          -0.5811   -1.0541    2.0059 H       1  LIG1        0.0650
     12 C          -0.8409   -0.3704   -0.0554 C.3     1  LIG1        0.0205
     13 H          -1.2409   -0.8414   -0.9595 H       1  LIG1        0.0356
     14 C          -1.7960    0.6585    0.4932 C.3     1  LIG1        0.0544
     15 O          -1.0017    1.6188    1.1974 O.3     1  LIG1       -0.3712
     16 C           0.3649    1.5281    0.7371 C.3     1  LIG1        0.0891
     17 H           0.9604    1.2683    1.6212 H       1  LIG1        0.0650
     18 C           0.4072    0.4264   -0.3276 C.3     1  LIG1        0.0205
     19 H           0.4271    0.8427   -1.3411 H       1  LIG1        0.0356
     20 C           1.5099   -0.5848   -0.1209 C.3     1  LIG1        0.0544
     21 O           1.0489   -1.5113    0.8687 O.3     1  LIG1       -0.3712
     22 C           0.8407    2.8699    0.2101 C.ar    1  LIG1       -0.0149
     23 C           2.2090    3.1954    0.2652 C.ar    1  LIG1       -0.0105
     24 C           2.6110    4.4236   -0.2225 C.ar    1  LIG1        0.1666
     25 C           1.7200    5.3207   -0.7579 C.ar    1  LIG1        0.1662
     26 C           0.3741    5.0406   -0.8400 C.ar    1  LIG1       -0.0158
     27 C          -0.0625    3.8030   -0.3543 C.ar    1  LIG1       -0.0524
     28 O           2.3188    6.4680   -1.1735 O.3     1  LIG1       -0.4526
     29 C           3.6942    6.1899   -0.8397 C.3     1  LIG1        0.2332
     30 O           3.8882    4.8939   -0.2353 O.3     1  LIG1       -0.4526
     31 C          -1.8615   -3.3101    1.7761 C.ar    1  LIG1       -0.0524
     32 H          -2.9236   -6.7639   -1.9494 H       1  LIG1        0.1166
     33 H          -1.5287   -7.5629   -1.1826 H       1  LIG1        0.1166
     34 H          -0.1107   -3.1353   -1.1660 H       1  LIG1        0.0659
     35 H          -2.5526    0.2423    1.1644 H       1  LIG1        0.0564
     36 H          -2.3086    1.1861   -0.3188 H       1  LIG1        0.0564
     37 H           2.4565   -0.1432    0.2031 H       1  LIG1        0.0564
     38 H           1.6938   -1.1547   -1.0382 H       1  LIG1        0.0564
     39 H           2.9398    2.5150    0.6888 H       1  LIG1        0.0659
     40 H          -0.3216    5.7575   -1.2594 H       1  LIG1        0.0655
     41 H          -1.1252    3.5707   -0.4026 H       1  LIG1        0.0622
     42 H           4.0494    6.9600   -0.1444 H       1  LIG1        0.1166
     43 H           4.2933    6.2428   -1.7562 H       1  LIG1        0.1166
     44 H          -2.0492   -2.7604    2.6970 H       1  LIG1        0.0622
@<TRIPOS>BOND
     1     1     2    1
     2     2     3   ar
     3     3     4    1
     4     4     5    1
     5     5     6    1
     6     6     7    1
     7     3     7   ar
     8     7     8   ar
     9     8     9   ar
    10     9    10    1
    11    10    11    1
    12    10    12    1
    13    12    13    1
    14    12    14    1
    15    14    15    1
    16    15    16    1
    17    16    18    1
    18    18    19    1
    19    12    18    1
    20    18    20    1
    21    20    21    1
    22    10    21    1
    23    22    23   ar
    24    23    24   ar
    25    24    25   ar
    26    25    26   ar
    27    26    27   ar
    28    22    27   ar
    29    25    28    1
    30    28    29    1
    31    29    30    1
    32    24    30    1
    33     9    31   ar
    34     2    31   ar
    35    16    22    1
    36    16    17    1
    37     5    32    1
    38     5    33    1
    39     8    34    1
    40    14    35    1
    41    14    36    1
    42    20    37    1
    43    20    38    1
    44    23    39    1
    45    26    40    1
    46    27    41    1
    47    29    42    1
    48    29    43    1
    49    31    44    1
