REMARK  Name = NuBBE_109
REMARK  18 active torsions:
REMARK  status: ('A' for Active; 'I' for Inactive)
REMARK    1  A    between atoms: C_2  and  C_37
REMARK    2  A    between atoms: C_3  and  C_4
REMARK    3  A    between atoms: C_4  and  O_5
REMARK    4  A    between atoms: C_4  and  C_9
REMARK    5  A    between atoms: O_5  and  C_6
REMARK    6  A    between atoms: C_6  and  C_7
REMARK    7  A    between atoms: C_10  and  O_19
REMARK    8  A    between atoms: C_14  and  C_15
REMARK    9  A    between atoms: C_15  and  O_16
REMARK   10  A    between atoms: O_16  and  C_17
REMARK   11  A    between atoms: O_19  and  C_20
REMARK   12  A    between atoms: C_23  and  C_31
REMARK   13  A    between atoms: C_25  and  O_30
REMARK   14  A    between atoms: C_27  and  O_29
REMARK   15  A    between atoms: C_31  and  O_32
REMARK   16  A    between atoms: C_33  and  O_35
REMARK   17  A    between atoms: C_37  and  C_38
REMARK   18  A    between atoms: C_38  and  O_39
REMARK                            x       y       z     vdW  Elec       q    Type
REMARK                         _______ _______ _______ _____ _____    ______ ____
ROOT
ATOM      1  C   LIG A   1      -0.608  -1.313  -0.534  0.00  0.00    +0.052 C 
ATOM      2  C   LIG A   1       0.022   0.045  -1.006  0.00  0.00    +0.106 C 
ATOM      3  C   LIG A   1      -0.933   1.166  -0.471  0.00  0.00    +0.316 C 
ATOM      4  O   LIG A   1      -2.273   1.019  -0.977  0.00  0.00    -0.470 OA
ATOM      5  C   LIG A   1      -2.746  -0.258  -1.145  0.00  0.00    +0.201 C 
ATOM      6  C   LIG A   1      -2.048  -1.396  -0.979  0.00  0.00    +0.075 C 
ENDROOT
BRANCH   2   7
ATOM      7  C   LIG A   1       0.333   0.332  -2.517  0.00  0.00    +0.183 C 
ATOM      8  C   LIG A   1      -0.814   0.493  -3.533  0.00  0.00    +0.052 C 
BRANCH   7   9
ATOM      9  O   LIG A   1       1.380  -0.535  -3.019  0.00  0.00    -0.461 OA
BRANCH   9  10
ATOM     10  C   LIG A   1       0.984  -1.734  -3.495  0.00  0.00    +0.304 C 
ATOM     11  C   LIG A   1       2.095  -2.549  -4.066  0.00  0.00    +0.136 C 
ATOM     12  O   LIG A   1      -0.169  -2.150  -3.435  0.00  0.00    -0.251 OA
ENDBRANCH   9  10
ENDBRANCH   7   9
ENDBRANCH   2   7
BRANCH   6  13
ATOM     13  C   LIG A   1      -2.783  -2.626  -1.322  0.00  0.00    +0.338 C 
ATOM     14  O   LIG A   1      -3.972  -2.707  -1.521  0.00  0.00    -0.245 OA
BRANCH  13  15
ATOM     15  O   LIG A   1      -1.878  -3.621  -1.516  0.00  0.00    -0.465 OA
ATOM     16  C   LIG A   1      -2.271  -4.691  -2.382  0.00  0.00    +0.280 C 
ENDBRANCH  13  15
ENDBRANCH   6  13
BRANCH   3  17
ATOM     17  O   LIG A   1      -1.013   1.264   0.957  0.00  0.00    -0.309 OA
BRANCH  17  18
ATOM     18  C   LIG A   1       0.204   1.503   1.667  0.00  0.00    +0.286 C 
ATOM     19  O   LIG A   1      -0.121   1.494   3.080  0.00  0.00    -0.340 OA
ATOM     20  C   LIG A   1       0.894   2.114   3.887  0.00  0.00    +0.178 C 
ATOM     21  C   LIG A   1       0.917   3.639   3.637  0.00  0.00    +0.177 C 
ATOM     22  C   LIG A   1       0.484   3.958   2.204  0.00  0.00    +0.179 C 
ATOM     23  C   LIG A   1       0.899   2.828   1.251  0.00  0.00    +0.201 C 
BRANCH  22  24
ATOM     24  O   LIG A   1      -0.930   4.180   2.147  0.00  0.00    -0.386 OA
ATOM     25  H   LIG A   1      -1.373   3.450   2.627  0.00  0.00    +0.210 HD
ENDBRANCH  22  24
BRANCH  21  26
ATOM     26  O   LIG A   1       2.225   4.176   3.863  0.00  0.00    -0.387 OA
ATOM     27  H   LIG A   1       2.376   4.108   4.828  0.00  0.00    +0.210 HD
ENDBRANCH  21  26
BRANCH  23  28
ATOM     28  O   LIG A   1       2.320   2.613   1.244  0.00  0.00    -0.384 OA
ATOM     29  H   LIG A   1       2.758   3.479   1.351  0.00  0.00    +0.210 HD
ENDBRANCH  23  28
BRANCH  20  30
ATOM     30  C   LIG A   1       0.605   1.842   5.369  0.00  0.00    +0.190 C 
BRANCH  30  31
ATOM     31  O   LIG A   1       1.550   2.525   6.192  0.00  0.00    -0.392 OA
ATOM     32  H   LIG A   1       1.275   2.378   7.115  0.00  0.00    +0.209 HD
ENDBRANCH  30  31
ENDBRANCH  20  30
ENDBRANCH  17  18
ENDBRANCH   3  17
BRANCH   1  33
ATOM     33  C   LIG A   1       0.301  -2.538  -0.209  0.00  0.00    +0.129 C 
BRANCH  33  34
ATOM     34  C   LIG A   1       0.985  -3.640  -1.004  0.00  0.00    +0.305 C 
ATOM     35  O   LIG A   1       1.965  -4.221  -0.536  0.00  0.00    -0.251 OA
BRANCH  34  36
ATOM     36  O   LIG A   1       0.481  -4.063  -2.160  0.00  0.00    -0.481 OA
ATOM     37  H   LIG A   1      -0.222  -3.468  -2.522  0.00  0.00    +0.295 HD
ENDBRANCH  34  36
ENDBRANCH  33  34
ENDBRANCH   1  33
TORSDOF 15
