@<TRIPOS>MOLECULE
NuBBE_1903
 38 40 0 0 0
SMALL
GASTEIGER

@<TRIPOS>ATOM
      1 C          -3.0877   -0.8385    0.8634 C.3     1  LIG1        0.0374
      2 O          -1.6707   -0.7606    0.8161 O.3     1  LIG1       -0.3714
      3 C          -1.1053   -0.8437   -0.5025 C.3     1  LIG1        0.1233
      4 C          -1.2899    0.4303   -1.3678 C.3     1  LIG1        0.1595
      5 C          -0.4905    1.5120   -0.7724 C.ar    1  LIG1        0.0169
      6 C           0.7577    1.3533   -0.2064 C.ar    1  LIG1       -0.0144
      7 C           1.3616    2.4860    0.3555 C.ar    1  LIG1       -0.0429
      8 C           2.7200    2.4261    0.9966 C.3     1  LIG1       -0.0391
      9 C           0.6588    3.7199    0.3346 C.ar    1  LIG1       -0.0575
     10 C          -0.6436    3.8166   -0.1812 C.ar    1  LIG1       -0.0471
     11 C          -1.1976    2.6767   -0.7200 C.ar    1  LIG1        0.0663
     12 C          -2.5517    2.3769   -1.1776 C.2     1  LIG1        0.3403
     13 O          -2.5961    1.0253   -1.4562 O.3     1  LIG1       -0.4501
     14 O          -3.4772    3.1533   -1.2445 O.2     1  LIG1       -0.2449
     15 C           1.2589   -0.0250   -0.1845 C.2     1  LIG1       -0.0494
     16 C           0.4129   -1.0861   -0.2897 C.2     1  LIG1       -0.0061
     17 C           0.8901   -2.5334   -0.2095 C.3     1  LIG1        0.0842
     18 C           0.2486   -3.3071    0.9518 C.3     1  LIG1       -0.0324
     19 O           0.5363   -3.1630   -1.4457 O.3     1  LIG1       -0.3847
     20 C           2.4199   -2.6695   -0.0941 C.3     1  LIG1       -0.0324
     21 H          -3.3835   -0.9404    1.9115 H       1  LIG1        0.0524
     22 H          -3.4569   -1.7083    0.3129 H       1  LIG1        0.0524
     23 H          -3.5486    0.0758    0.4880 H       1  LIG1        0.0524
     24 H          -1.5684   -1.6860   -1.0293 H       1  LIG1        0.0685
     25 H          -0.9510    0.2311   -2.3929 H       1  LIG1        0.0816
     26 H           2.8170    1.5377    1.6294 H       1  LIG1        0.0278
     27 H           2.8880    3.2924    1.6452 H       1  LIG1        0.0278
     28 H           3.5003    2.4122    0.2297 H       1  LIG1        0.0278
     29 H           1.1139    4.6064    0.7740 H       1  LIG1        0.0621
     30 H          -1.2063    4.7422   -0.1258 H       1  LIG1        0.0626
     31 H           2.3265   -0.1389   -0.0410 H       1  LIG1        0.0625
     32 H          -0.8433   -3.3338    0.8711 H       1  LIG1        0.0260
     33 H           0.5139   -2.8747    1.9227 H       1  LIG1        0.0260
     34 H           0.5710   -4.3557    0.9428 H       1  LIG1        0.0260
     35 H          -0.3806   -3.4749   -1.3766 H       1  LIG1        0.2106
     36 H           2.7977   -2.2308    0.8371 H       1  LIG1        0.0260
     37 H           2.9232   -2.1848   -0.9402 H       1  LIG1        0.0260
     38 H           2.7323   -3.7190   -0.1245 H       1  LIG1        0.0260
@<TRIPOS>BOND
     1     1     2    1
     2     2     3    1
     3     3     4    1
     4     4     5    1
     5     5     6   ar
     6     6     7   ar
     7     7     8    1
     8     7     9   ar
     9     9    10   ar
    10    10    11   ar
    11     5    11   ar
    12    11    12    1
    13    12    13    1
    14     4    13    1
    15    12    14    2
    16     6    15    1
    17    15    16    2
    18     3    16    1
    19    16    17    1
    20    17    18    1
    21    17    19    1
    22    17    20    1
    23     1    21    1
    24     1    22    1
    25     1    23    1
    26     3    24    1
    27     4    25    1
    28     8    26    1
    29     8    27    1
    30     8    28    1
    31     9    29    1
    32    10    30    1
    33    15    31    1
    34    18    32    1
    35    18    33    1
    36    18    34    1
    37    19    35    1
    38    20    36    1
    39    20    37    1
    40    20    38    1
