REMARK  Name = NuBBE_1937
REMARK  6 active torsions:
REMARK  status: ('A' for Active; 'I' for Inactive)
REMARK    1  A    between atoms: C_1  and  C_2
REMARK    2  A    between atoms: C_1  and  C_3
REMARK    3  A    between atoms: C_1  and  C_4
REMARK    4  A    between atoms: C_10  and  C_13
REMARK    5  A    between atoms: C_10  and  O_14
REMARK    6  A    between atoms: C_17  and  C_19
REMARK                            x       y       z     vdW  Elec       q    Type
REMARK                         _______ _______ _______ _____ _____    ______ ____
ROOT
ATOM      1  C   LIG A   1       1.068  -0.349  -0.295  0.00  0.00    -0.001 C 
ATOM      2  C   LIG A   1      -0.244  -0.544   0.547  0.00  0.00    +0.021 C 
ATOM      3  C   LIG A   1      -0.849   0.799   1.063  0.00  0.00    +0.028 C 
ATOM      4  C   LIG A   1       0.203   1.673   1.792  0.00  0.00    +0.067 C 
ATOM      5  C   LIG A   1       1.478   1.842   0.961  0.00  0.00    +0.035 C 
ATOM      6  C   LIG A   1       2.068   0.510   0.504  0.00  0.00    +0.007 C 
ATOM      7  C   LIG A   1      -0.337   3.053   2.189  0.00  0.00    +0.041 C 
ATOM      8  C   LIG A   1      -1.574   1.516  -0.093  0.00  0.00    +0.011 C 
ATOM      9  C   LIG A   1      -2.711   0.663  -0.664  0.00  0.00    +0.030 C 
ATOM     10  C   LIG A   1      -2.406  -0.809  -0.736  0.00  0.00    -0.076 C 
ATOM     11  C   LIG A   1      -1.298  -1.339  -0.191  0.00  0.00    -0.024 C 
ATOM     12  C   LIG A   1      -3.428  -1.655  -1.439  0.00  0.00    +0.038 C 
ENDROOT
BRANCH   1  13
ATOM     13  C   LIG A   1       1.685  -1.715  -0.775  0.00  0.00    -0.013 C 
ATOM     14  C   LIG A   1       3.219  -1.773  -0.792  0.00  0.00    +0.007 C 
ATOM     15  C   LIG A   1       1.203  -2.071  -2.193  0.00  0.00    +0.007 C 
ENDBRANCH   1  13
BRANCH   4  16
ATOM     16  O   LIG A   1       0.542   1.045   3.039  0.00  0.00    -0.389 OA
ATOM     17  H   LIG A   1       0.901   0.160   2.869  0.00  0.00    +0.210 HD
ENDBRANCH   4  16
TORSDOF 2
