REMARK  Name = NuBBE_1656
REMARK  6 active torsions:
REMARK  status: ('A' for Active; 'I' for Inactive)
REMARK    1  A    between atoms: C_6  and  O_12
REMARK    2  A    between atoms: C_7  and  O_10
REMARK    3  A    between atoms: C_8  and  O_9
REMARK    4  A    between atoms: O_10  and  C_11
REMARK    5  A    between atoms: C_15  and  C_16
REMARK    6  A    between atoms: C_19  and  O_22
REMARK                            x       y       z     vdW  Elec       q    Type
REMARK                         _______ _______ _______ _____ _____    ______ ____
ROOT
ATOM      1  O   LIG A   1      -1.789  -0.008   0.171  0.00  0.00    -0.286 OA
ATOM      2  C   LIG A   1      -0.566  -0.110   0.092  0.00  0.00    +0.204 A 
ATOM      3  C   LIG A   1       0.251   1.115   0.038  0.00  0.00    +0.110 A 
ATOM      4  C   LIG A   1       1.633   0.986  -0.019  0.00  0.00    +0.146 A 
ATOM      5  C   LIG A   1       2.446   2.117  -0.065  0.00  0.00    +0.096 A 
ATOM      6  C   LIG A   1       1.874   3.394  -0.061  0.00  0.00    +0.166 A 
ATOM      7  C   LIG A   1       0.480   3.554  -0.008  0.00  0.00    +0.204 A 
ATOM      8  C   LIG A   1      -0.324   2.396   0.041  0.00  0.00    +0.177 A 
ATOM      9  O   LIG A   1       2.265  -0.229  -0.035  0.00  0.00    -0.462 OA
ATOM     10  C   LIG A   1       1.485  -1.359  -0.019  0.00  0.00    +0.208 A 
ATOM     11  C   LIG A   1       0.144  -1.424   0.047  0.00  0.00    +0.064 A 
ENDROOT
BRANCH  11  12
ATOM     12  C   LIG A   1      -0.559  -2.732   0.051  0.00  0.00    -0.011 A 
ATOM     13  C   LIG A   1      -1.816  -2.882  -0.558  0.00  0.00    +0.012 A 
ATOM     14  C   LIG A   1      -2.486  -4.112  -0.556  0.00  0.00    +0.046 A 
ATOM     15  C   LIG A   1      -1.894  -5.212   0.048  0.00  0.00    +0.117 A 
ATOM     16  C   LIG A   1      -0.654  -5.099   0.658  0.00  0.00    +0.046 A 
ATOM     17  C   LIG A   1       0.004  -3.865   0.669  0.00  0.00    +0.012 A 
BRANCH  15  18
ATOM     18  O   LIG A   1      -2.504  -6.430   0.066  0.00  0.00    -0.507 OA
ATOM     19  H   LIG A   1      -3.365  -6.352  -0.377  0.00  0.00    +0.292 HD
ENDBRANCH  15  18
ENDBRANCH  11  12
BRANCH   8  20
ATOM     20  O   LIG A   1      -1.691   2.563   0.089  0.00  0.00    -0.503 OA
ATOM     21  H   LIG A   1      -2.116   1.680   0.138  0.00  0.00    +0.292 HD
ENDBRANCH   8  20
BRANCH   7  22
ATOM     22  O   LIG A   1      -0.222   4.731   0.003  0.00  0.00    -0.488 OA
ATOM     23  C   LIG A   1       0.483   5.960  -0.040  0.00  0.00    +0.277 C 
ENDBRANCH   7  22
BRANCH   6  24
ATOM     24  O   LIG A   1       2.717   4.470  -0.113  0.00  0.00    -0.503 OA
ATOM     25  H   LIG A   1       3.639   4.167  -0.162  0.00  0.00    +0.292 HD
ENDBRANCH   6  24
TORSDOF 5
