REMARK  Name = NuBBE_2268
REMARK  4 active torsions:
REMARK  status: ('A' for Active; 'I' for Inactive)
REMARK    1  A    between atoms: C_1  and  C_23
REMARK    2  A    between atoms: C_4  and  C_7
REMARK    3  A    between atoms: C_10  and  C_12
REMARK    4  A    between atoms: C_12  and  C_14
REMARK                            x       y       z     vdW  Elec       q    Type
REMARK                         _______ _______ _______ _____ _____    ______ ____
ROOT
ATOM      1  C   LIG A   1       3.510   0.202   0.003  0.00  0.00    -0.043 A 
ATOM      2  C   LIG A   1       2.113  -0.066   0.016  0.00  0.00    -0.012 A 
ATOM      3  C   LIG A   1       1.162   0.995   0.043  0.00  0.00    +0.013 A 
ATOM      4  C   LIG A   1       1.684   2.335   0.057  0.00  0.00    -0.041 A 
ATOM      5  C   LIG A   1       3.069   2.571   0.044  0.00  0.00    +0.004 A 
ATOM      6  C   LIG A   1       3.969   1.520   0.018  0.00  0.00    +0.004 A 
ATOM      7  C   LIG A   1       0.802   3.562   0.086  0.00  0.00    +0.044 C 
ATOM      8  C   LIG A   1      -0.236   0.675   0.054  0.00  0.00    +0.098 A 
ATOM      9  C   LIG A   1      -0.672  -0.675   0.039  0.00  0.00    +0.098 A 
ATOM     10  C   LIG A   1       0.277  -1.697   0.012  0.00  0.00    +0.005 A 
ATOM     11  C   LIG A   1       1.641  -1.386  -0.000  0.00  0.00    +0.019 A 
ATOM     12  N   LIG A   1      -1.991  -0.990   0.061  0.00  0.00    -0.243 NA
ATOM     13  C   LIG A   1      -2.893  -0.001   0.091  0.00  0.00    +0.090 A 
ATOM     14  C   LIG A   1      -2.482   1.336   0.100  0.00  0.00    +0.090 A 
ATOM     15  N   LIG A   1      -1.177   1.652   0.082  0.00  0.00    -0.243 NA
ATOM     16  C   LIG A   1      -3.443   2.341   0.129  0.00  0.00    +0.030 A 
ATOM     17  C   LIG A   1      -4.806   2.042   0.149  0.00  0.00    +0.002 A 
ATOM     18  C   LIG A   1      -5.213   0.715   0.141  0.00  0.00    +0.002 A 
ATOM     19  C   LIG A   1      -4.252  -0.296   0.113  0.00  0.00    +0.030 A 
ATOM     20  C   LIG A   1       4.545  -0.897  -0.025  0.00  0.00    +0.044 C 
ENDROOT
BRANCH  10  21
ATOM     21  C   LIG A   1      -0.099  -3.134  -0.021  0.00  0.00    -0.048 C 
ATOM     22  C   LIG A   1       0.285  -3.956   0.970  0.00  0.00    +0.012 C 
ATOM     23  C   LIG A   1      -0.899  -3.611  -1.200  0.00  0.00    +0.044 C 
ENDBRANCH  10  21
TORSDOF 1
