REMARK  Name = NuBBE_1830
REMARK  6 active torsions:
REMARK  status: ('A' for Active; 'I' for Inactive)
REMARK    1  A    between atoms: C_6  and  C_8
REMARK    2  A    between atoms: C_17  and  C_27
REMARK    3  A    between atoms: C_19  and  C_24
REMARK    4  A    between atoms: C_21  and  O_22
REMARK    5  A    between atoms: O_22  and  C_23
REMARK    6  A    between atoms: C_24  and  C_25
REMARK                            x       y       z     vdW  Elec       q    Type
REMARK                         _______ _______ _______ _____ _____    ______ ____
ROOT
ATOM      1  O   LIG A   1      -4.592   1.371   1.610  0.00  0.00    -0.284 OA
ATOM      2  C   LIG A   1      -3.597   1.034   0.964  0.00  0.00    +0.223 C 
ATOM      3  C   LIG A   1      -2.279   1.576   1.368  0.00  0.00    +0.096 C 
ATOM      4  C   LIG A   1      -1.161   1.100   0.811  0.00  0.00    +0.113 C 
ATOM      5  O   LIG A   1       0.048   1.769   0.946  0.00  0.00    -0.487 OA
ATOM      6  C   LIG A   1       0.795   1.505  -0.275  0.00  0.00    +0.207 C 
ATOM      7  C   LIG A   1      -0.178   0.720  -1.191  0.00  0.00    +0.049 C 
ATOM      8  C   LIG A   1      -1.127   0.002  -0.215  0.00  0.00    +0.059 C 
ATOM      9  C   LIG A   1      -2.491  -0.253  -0.812  0.00  0.00    +0.038 C 
ATOM     10  C   LIG A   1      -3.649   0.161  -0.270  0.00  0.00    +0.164 C 
ATOM     11  C   LIG A   1       0.404  -0.102  -2.328  0.00  0.00    +0.013 C 
ENDROOT
BRANCH   6  12
ATOM     12  C   LIG A   1       2.170   0.940   0.057  0.00  0.00    -0.003 A 
ATOM     13  C   LIG A   1       3.267   1.210  -0.785  0.00  0.00    +0.056 A 
ATOM     14  C   LIG A   1       4.509   0.703  -0.442  0.00  0.00    +0.167 A 
ATOM     15  C   LIG A   1       4.696  -0.061   0.685  0.00  0.00    +0.166 A 
ATOM     16  C   LIG A   1       3.661  -0.341   1.542  0.00  0.00    +0.050 A 
ATOM     17  C   LIG A   1       2.404   0.190   1.236  0.00  0.00    +0.011 A 
ATOM     18  O   LIG A   1       5.983  -0.467   0.839  0.00  0.00    -0.453 OA
ATOM     19  C   LIG A   1       6.597   0.143  -0.314  0.00  0.00    +0.466 C 
ATOM     20  O   LIG A   1       5.666   0.882  -1.136  0.00  0.00    -0.453 OA
ENDBRANCH   6  12
BRANCH  10  21
ATOM     21  O   LIG A   1      -4.817  -0.269  -0.883  0.00  0.00    -0.492 OA
ATOM     22  C   LIG A   1      -6.051   0.133  -0.306  0.00  0.00    +0.277 C 
ENDBRANCH  10  21
BRANCH   8  23
ATOM     23  C   LIG A   1      -0.590  -1.347   0.355  0.00  0.00    +0.045 C 
BRANCH  23  24
ATOM     24  C   LIG A   1      -1.464  -2.028   1.384  0.00  0.00    -0.033 C 
ATOM     25  C   LIG A   1      -2.306  -3.031   1.100  0.00  0.00    +0.004 C 
ENDBRANCH  23  24
ENDBRANCH   8  23
TORSDOF 4
