@<TRIPOS>MOLECULE
NuBBE_576
 52 55 0 0 0
SMALL
GASTEIGER

@<TRIPOS>ATOM
      1 O          -2.7373   -0.7351   -1.8413 O.2     1  LIG1       -0.2921
      2 C          -1.5310   -0.6207   -1.5818 C.2     1  LIG1        0.1626
      3 C          -0.8762   -1.7747   -0.8753 C.2     1  LIG1        0.0076
      4 C          -1.2724   -2.9735   -1.7259 C.3     1  LIG1        0.0121
      5 C          -0.1489   -3.9495   -1.5090 C.3     1  LIG1        0.1292
      6 C           1.1358   -3.5075   -2.2142 C.3     1  LIG1       -0.0285
      7 O          -0.5269   -5.2260   -1.9607 O.3     1  LIG1       -0.3807
      8 C          -0.0500   -3.6633   -0.0331 C.2     1  LIG1        0.1934
      9 O           0.0891   -4.5078    0.8609 O.2     1  LIG1       -0.2892
     10 C          -0.2374   -2.1790    0.2587 C.2     1  LIG1        0.0358
     11 C           0.1691   -1.7883    1.6301 C.3     1  LIG1        0.1167
     12 H          -0.5656   -2.2051    2.3238 H       1  LIG1        0.0677
     13 C           1.1666   -0.8875    2.3680 C.3     1  LIG1        0.0979
     14 O           1.5816   -2.1360    1.8996 O.3     1  LIG1       -0.3600
     15 C           1.1178   -0.8427    3.8837 C.3     1  LIG1       -0.0330
     16 C           1.7553    0.3215    1.7165 C.3     1  LIG1       -0.0209
     17 C           0.6351    1.3409    1.6766 C.3     1  LIG1       -0.0468
     18 C           0.8051    2.4552    0.7109 C.3     1  LIG1       -0.0322
     19 H           1.8172    2.8491    0.7249 H       1  LIG1        0.0309
     20 C           0.0194    2.5743   -0.5812 C.3     1  LIG1       -0.0317
     21 H           0.4976    3.0627   -1.4246 H       1  LIG1        0.0309
     22 C          -0.3355    3.4558    0.6150 C.3     1  LIG1       -0.0287
     23 C           0.0045    4.9153    0.5524 C.3     1  LIG1       -0.0593
     24 C          -1.6355    3.2002    1.3745 C.3     1  LIG1       -0.0593
     25 C          -1.0511    1.6349   -1.0074 C.3     1  LIG1       -0.0398
     26 C          -0.8042    0.6167   -2.0983 C.3     1  LIG1        0.0193
     27 H          -1.4146    0.9592   -2.9527 H       1  LIG1        0.0378
     28 C           0.5647    0.4274   -2.7288 C.3     1  LIG1       -0.0554
     29 H          -1.4235   -2.7586   -2.7888 H       1  LIG1        0.0346
     30 H          -2.2308   -3.3692   -1.3466 H       1  LIG1        0.0346
     31 H           0.9217   -3.1995   -3.2436 H       1  LIG1        0.0262
     32 H           1.8514   -4.3320   -2.2605 H       1  LIG1        0.0262
     33 H           1.6344   -2.6680   -1.7150 H       1  LIG1        0.0262
     34 H          -0.9114   -5.1327   -2.8491 H       1  LIG1        0.2108
     35 H           0.8006   -1.7997    4.3138 H       1  LIG1        0.0258
     36 H           0.4162   -0.0768    4.2299 H       1  LIG1        0.0258
     37 H           2.1048   -0.6104    4.3014 H       1  LIG1        0.0258
     38 H           2.1639    0.0967    0.7269 H       1  LIG1        0.0294
     39 H           2.5858    0.7180    2.3190 H       1  LIG1        0.0294
     40 H           0.4942    1.7626    2.6793 H       1  LIG1        0.0269
     41 H          -0.2848    0.7964    1.4618 H       1  LIG1        0.0269
     42 H           0.9455    5.0999    0.0274 H       1  LIG1        0.0235
     43 H           0.0922    5.3152    1.5677 H       1  LIG1        0.0235
     44 H          -0.7933    5.4576    0.0352 H       1  LIG1        0.0235
     45 H          -2.4738    3.6677    0.8491 H       1  LIG1        0.0235
     46 H          -1.5727    3.6078    2.3866 H       1  LIG1        0.0235
     47 H          -1.8965    2.1445    1.4937 H       1  LIG1        0.0235
     48 H          -1.9090    2.2456   -1.3200 H       1  LIG1        0.0275
     49 H          -1.4224    1.0892   -0.1400 H       1  LIG1        0.0275
     50 H           1.2421   -0.1875   -2.1368 H       1  LIG1        0.0237
     51 H           1.0467    1.3870   -2.9487 H       1  LIG1        0.0237
     52 H           0.4465   -0.0702   -3.7040 H       1  LIG1        0.0237
@<TRIPOS>BOND
     1     1     2    2
     2     2     3    1
     3     3     4    1
     4     4     5    1
     5     5     6    1
     6     5     7    1
     7     5     8    1
     8     8     9    2
     9     3    10    2
    10     8    10    1
    11    10    11    1
    12    11    12    1
    13    11    13    1
    14    13    14    1
    15    11    14    1
    16    13    15    1
    17    13    16    1
    18    16    17    1
    19    17    18    1
    20    18    19    1
    21    18    20    1
    22    20    21    1
    23    20    22    1
    24    22    23    1
    25    18    22    1
    26    22    24    1
    27    20    25    1
    28    25    26    1
    29     2    26    1
    30    26    28    1
    31    26    27    1
    32     4    29    1
    33     4    30    1
    34     6    31    1
    35     6    32    1
    36     6    33    1
    37     7    34    1
    38    15    35    1
    39    15    36    1
    40    15    37    1
    41    16    38    1
    42    16    39    1
    43    17    40    1
    44    17    41    1
    45    23    42    1
    46    23    43    1
    47    23    44    1
    48    24    45    1
    49    24    46    1
    50    24    47    1
    51    25    48    1
    52    25    49    1
    53    28    50    1
    54    28    51    1
    55    28    52    1
