@<TRIPOS>MOLECULE
NuBBE_2414
 31 32 0 0 0
SMALL
GASTEIGER

@<TRIPOS>ATOM
      1 C           1.8260   -0.2952    0.2011 C.2     1  LIG1        0.1896
      2 O           2.9064    0.1486   -0.1732 O.2     1  LIG1       -0.2872
      3 C           0.5317    0.2998   -0.2343 C.2     1  LIG1       -0.0137
      4 C           0.5081    1.2073   -1.2224 C.2     1  LIG1       -0.0510
      5 C          -0.7029    1.9084   -1.6753 C.ar    1  LIG1       -0.0247
      6 C          -1.9785    1.3251   -1.6499 C.ar    1  LIG1       -0.0511
      7 C          -3.1016    2.0427   -2.0774 C.ar    1  LIG1       -0.0196
      8 C          -2.9465    3.3429   -2.5449 C.ar    1  LIG1        0.1169
      9 C          -1.6892    3.9281   -2.6067 C.ar    1  LIG1       -0.0196
     10 C          -0.5699    3.2101   -2.1790 C.ar    1  LIG1       -0.0511
     11 O          -4.0132    4.0845   -2.9572 O.3     1  LIG1       -0.5068
     12 C           1.7819   -1.3945    1.2003 C.ar    1  LIG1        0.0632
     13 C           0.8501   -2.4416    1.1602 C.ar    1  LIG1        0.1311
     14 O          -0.0679   -2.5154    0.1482 O.3     1  LIG1       -0.5059
     15 C           0.8597   -3.4385    2.1409 C.ar    1  LIG1        0.0220
     16 C           1.8122   -3.3866    3.1555 C.ar    1  LIG1        0.1204
     17 C           2.7606   -2.3715    3.1959 C.ar    1  LIG1       -0.0193
     18 C           2.7516   -1.3788    2.2146 C.ar    1  LIG1       -0.0440
     19 O           1.8532   -4.3271    4.1418 O.3     1  LIG1       -0.5066
     20 H          -0.3609    0.0025    0.3002 H       1  LIG1        0.0656
     21 H           1.4374    1.4975   -1.7107 H       1  LIG1        0.0625
     22 H          -2.1148    0.3044   -1.3015 H       1  LIG1        0.0625
     23 H          -4.0788    1.5721   -2.0386 H       1  LIG1        0.0654
     24 H          -1.5776    4.9418   -2.9804 H       1  LIG1        0.0654
     25 H           0.4076    3.6855   -2.2279 H       1  LIG1        0.0625
     26 H          -4.8222    3.5630   -2.8301 H       1  LIG1        0.2921
     27 H          -0.5338   -3.3673    0.1914 H       1  LIG1        0.2922
     28 H           0.1359   -4.2454    2.1139 H       1  LIG1        0.0691
     29 H           3.5049   -2.3512    3.9878 H       1  LIG1        0.0654
     30 H           3.4985   -0.5873    2.2459 H       1  LIG1        0.0627
     31 H           1.1319   -4.9639    4.0117 H       1  LIG1        0.2921
@<TRIPOS>BOND
     1     1     2    2
     2     1     3    1
     3     3     4    2
     4     4     5    1
     5     5     6   ar
     6     6     7   ar
     7     7     8   ar
     8     8     9   ar
     9     9    10   ar
    10     5    10   ar
    11     8    11    1
    12     1    12    1
    13    12    13   ar
    14    13    14    1
    15    13    15   ar
    16    15    16   ar
    17    16    17   ar
    18    17    18   ar
    19    12    18   ar
    20    16    19    1
    21     3    20    1
    22     4    21    1
    23     6    22    1
    24     7    23    1
    25     9    24    1
    26    10    25    1
    27    11    26    1
    28    14    27    1
    29    15    28    1
    30    17    29    1
    31    18    30    1
    32    19    31    1
