REMARK  Name = NuBBE_993
REMARK  10 active torsions:
REMARK  status: ('A' for Active; 'I' for Inactive)
REMARK    1  A    between atoms: C_1  and  C_2
REMARK    2  A    between atoms: C_9  and  O_11
REMARK    3  A    between atoms: O_11  and  C_12
REMARK    4  A    between atoms: C_12  and  C_13
REMARK    5  A    between atoms: C_15  and  C_19
REMARK    6  A    between atoms: C_19  and  O_20
REMARK    7  A    between atoms: O_20  and  C_21
REMARK    8  A    between atoms: C_21  and  C_22
REMARK    9  A    between atoms: C_29  and  C_31
REMARK   10  A    between atoms: C_31  and  C_32
REMARK                            x       y       z     vdW  Elec       q    Type
REMARK                         _______ _______ _______ _____ _____    ______ ____
ROOT
ATOM      1  C   LIG A   1      -2.632  -3.139   1.553  0.00  0.00    +0.012 C 
ATOM      2  C   LIG A   1      -1.115  -2.878   1.390  0.00  0.00    -0.019 C 
ATOM      3  C   LIG A   1      -0.888  -2.368  -0.065  0.00  0.00    +0.006 C 
ATOM      4  C   LIG A   1       0.289  -1.378  -0.207  0.00  0.00    -0.003 C 
ATOM      5  C   LIG A   1       0.504  -0.952  -1.663  0.00  0.00    +0.004 C 
ATOM      6  C   LIG A   1       1.503   0.181  -1.730  0.00  0.00    +0.004 C 
ATOM      7  C   LIG A   1       0.903   1.473  -1.177  0.00  0.00    +0.003 C 
ATOM      8  C   LIG A   1       2.026   2.504  -1.028  0.00  0.00    +0.056 C 
ATOM      9  C   LIG A   1       1.451   3.863  -0.647  0.00  0.00    +0.242 C 
ATOM     10  C   LIG A   1       0.022   1.294   0.116  0.00  0.00    +0.018 C 
ATOM     11  C   LIG A   1       0.421   2.348   1.200  0.00  0.00    +0.089 C 
ATOM     12  C   LIG A   1       0.735   3.745   0.694  0.00  0.00    +0.174 C 
ATOM     13  O   LIG A   1       0.474   4.732   1.386  0.00  0.00    -0.293 OA
ATOM     14  C   LIG A   1       0.231  -0.154   0.764  0.00  0.00    +0.002 C 
ATOM     15  C   LIG A   1      -0.656  -0.418   2.004  0.00  0.00    +0.005 C 
ATOM     16  C   LIG A   1      -0.634  -1.872   2.462  0.00  0.00    +0.008 C 
ATOM     17  C   LIG A   1      -0.729  -3.651  -0.902  0.00  0.00    +0.079 C 
ATOM     18  C   LIG A   1      -0.196  -4.662   0.068  0.00  0.00    +0.137 C 
ATOM     19  C   LIG A   1      -0.267  -4.197   1.505  0.00  0.00    +0.061 C 
ATOM     20  O   LIG A   1       0.276  -5.733  -0.296  0.00  0.00    -0.297 OA
ENDROOT
BRANCH  19  21
ATOM     21  C   LIG A   1      -0.812  -5.250   2.481  0.00  0.00    +0.008 C 
ATOM     22  C   LIG A   1       0.030  -6.519   2.568  0.00  0.00    +0.004 C 
ENDBRANCH  19  21
BRANCH   9  23
ATOM     23  O   LIG A   1       2.504   4.833  -0.582  0.00  0.00    -0.454 OA
BRANCH  23  24
ATOM     24  C   LIG A   1       2.875   5.335  -1.795  0.00  0.00    +0.305 C 
ATOM     25  C   LIG A   1       3.934   6.384  -1.641  0.00  0.00    +0.136 C 
ATOM     26  O   LIG A   1       2.406   5.000  -2.869  0.00  0.00    -0.251 OA
ENDBRANCH  23  24
ENDBRANCH   9  23
BRANCH  10  27
ATOM     27  C   LIG A   1      -1.487   1.517  -0.252  0.00  0.00    +0.240 C 
BRANCH  27  28
ATOM     28  O   LIG A   1      -1.726   2.790  -0.893  0.00  0.00    -0.464 OA
BRANCH  28  29
ATOM     29  C   LIG A   1      -2.287   2.761  -2.124  0.00  0.00    +0.304 C 
ATOM     30  C   LIG A   1      -2.680   4.106  -2.617  0.00  0.00    +0.136 C 
ATOM     31  O   LIG A   1      -2.493   1.740  -2.767  0.00  0.00    -0.251 OA
ENDBRANCH  28  29
ENDBRANCH  27  28
ENDBRANCH  10  27
TORSDOF 6
