REMARK  Name = NuBBE_2386
REMARK  7 active torsions:
REMARK  status: ('A' for Active; 'I' for Inactive)
REMARK    1  A    between atoms: C_1  and  C_2
REMARK    2  A    between atoms: C_1  and  C_12
REMARK    3  A    between atoms: C_2  and  C_3
REMARK    4  A    between atoms: C_3  and  C_4
REMARK    5  A    between atoms: C_7  and  O_10
REMARK    6  A    between atoms: O_10  and  C_11
REMARK    7  A    between atoms: C_17  and  O_18
REMARK                            x       y       z     vdW  Elec       q    Type
REMARK                         _______ _______ _______ _____ _____    ______ ____
ROOT
ATOM      1  C   LIG A   1       0.113  -2.059  -0.078  0.00  0.00    +0.039 C 
ENDROOT
BRANCH   1   2
ATOM      2  C   LIG A   1       1.594  -2.225  -0.343  0.00  0.00    -0.002 A 
ATOM      3  C   LIG A   1       2.088  -2.135  -1.658  0.00  0.00    +0.056 A 
ATOM      4  C   LIG A   1       3.435  -2.366  -1.871  0.00  0.00    +0.167 A 
ATOM      5  C   LIG A   1       4.292  -2.663  -0.842  0.00  0.00    +0.170 A 
ATOM      6  C   LIG A   1       3.858  -2.742   0.465  0.00  0.00    +0.095 A 
ATOM      7  C   LIG A   1       2.498  -2.520   0.702  0.00  0.00    +0.124 A 
ATOM      8  O   LIG A   1       5.567  -2.873  -1.266  0.00  0.00    -0.453 OA
ATOM      9  C   LIG A   1       5.405  -2.713  -2.691  0.00  0.00    +0.466 C 
ATOM     10  O   LIG A   1       4.065  -2.351  -3.079  0.00  0.00    -0.453 OA
BRANCH   7  11
ATOM     11  O   LIG A   1       2.013  -2.613   1.980  0.00  0.00    -0.506 OA
ATOM     12  H   LIG A   1       2.743  -2.851   2.574  0.00  0.00    +0.292 HD
ENDBRANCH   7  11
ENDBRANCH   1   2
BRANCH   1  13
ATOM     13  C   LIG A   1      -0.330  -0.615   0.182  0.00  0.00    +0.009 C 
BRANCH  13  14
ATOM     14  C   LIG A   1      -1.835  -0.560   0.478  0.00  0.00    +0.035 C 
BRANCH  14  15
ATOM     15  C   LIG A   1      -2.328   0.845   0.723  0.00  0.00    -0.047 A 
ATOM     16  C   LIG A   1      -2.761   1.636  -0.347  0.00  0.00    +0.007 A 
ATOM     17  C   LIG A   1      -3.214   2.942  -0.134  0.00  0.00    +0.046 A 
ATOM     18  C   LIG A   1      -3.236   3.478   1.154  0.00  0.00    +0.120 A 
ATOM     19  C   LIG A   1      -2.802   2.693   2.224  0.00  0.00    +0.046 A 
ATOM     20  C   LIG A   1      -2.349   1.386   2.013  0.00  0.00    +0.007 A 
BRANCH  18  21
ATOM     21  O   LIG A   1      -3.651   4.739   1.487  0.00  0.00    -0.495 OA
ATOM     22  C   LIG A   1      -4.115   5.555   0.419  0.00  0.00    +0.277 C 
ENDBRANCH  18  21
ENDBRANCH  14  15
ENDBRANCH  13  14
ENDBRANCH   1  13
TORSDOF 6
