REMARK  Name = NuBBE_301
REMARK  22 active torsions:
REMARK  status: ('A' for Active; 'I' for Inactive)
REMARK    1  A    between atoms: C_1  and  C_2
REMARK    2  A    between atoms: C_4  and  O_6
REMARK    3  A    between atoms: O_6  and  C_7
REMARK    4  A    between atoms: C_7  and  O_8
REMARK    5  A    between atoms: O_8  and  C_9
REMARK    6  A    between atoms: C_9  and  C_10
REMARK    7  A    between atoms: C_9  and  C_11
REMARK    8  A    between atoms: C_9  and  C_12
REMARK    9  A    between atoms: C_16  and  C_18
REMARK   10  A    between atoms: C_18  and  C_19
REMARK   11  A    between atoms: C_19  and  C_20
REMARK   12  A    between atoms: C_20  and  C_21
REMARK   13  A    between atoms: C_21  and  C_22
REMARK   14  A    between atoms: C_22  and  C_23
REMARK   15  A    between atoms: C_23  and  C_24
REMARK   16  A    between atoms: C_24  and  C_25
REMARK   17  A    between atoms: C_25  and  C_26
REMARK   18  A    between atoms: C_26  and  C_27
REMARK   19  A    between atoms: C_27  and  C_28
REMARK   20  A    between atoms: C_28  and  C_29
REMARK   21  A    between atoms: C_29  and  C_30
REMARK   22  A    between atoms: C_30  and  C_31
REMARK                            x       y       z     vdW  Elec       q    Type
REMARK                         _______ _______ _______ _____ _____    ______ ____
ROOT
ATOM      1  C   LIG A   1       3.659   1.861  -3.762  0.00  0.00    +0.067 C 
ATOM      2  C   LIG A   1       3.309   0.845  -2.693  0.00  0.00    +0.101 C 
ATOM      3  C   LIG A   1       3.865  -0.588  -2.911  0.00  0.00    +0.228 C 
ATOM      4  C   LIG A   1       3.540  -1.480  -1.702  0.00  0.00    +0.056 C 
ATOM      5  C   LIG A   1       2.498  -0.889  -0.716  0.00  0.00    +0.058 C 
ATOM      6  C   LIG A   1       1.395   0.083  -1.214  0.00  0.00    +0.063 C 
ATOM      7  N   LIG A   1       1.816   0.747  -2.505  0.00  0.00    +0.234 N 
ATOM      8  H   LIG A   1       1.402   0.190  -3.272  0.00  0.00    +0.202 HD
ATOM      9  H   LIG A   1       1.374   1.675  -2.580  0.00  0.00    +0.202 HD
ENDROOT
BRANCH   6  10
ATOM     10  C   LIG A   1      -0.049  -0.477  -1.342  0.00  0.00    +0.054 C 
BRANCH  10  11
ATOM     11  C   LIG A   1      -0.640  -0.991  -0.024  0.00  0.00    +0.005 C 
BRANCH  11  12
ATOM     12  C   LIG A   1      -2.063  -1.564  -0.198  0.00  0.00    +0.000 C 
BRANCH  12  13
ATOM     13  C   LIG A   1      -2.671  -2.119   1.101  0.00  0.00    -0.000 C 
BRANCH  13  14
ATOM     14  C   LIG A   1      -2.768  -1.103   2.228  0.00  0.00    -0.000 C 
BRANCH  14  15
ATOM     15  C   LIG A   1      -3.537   0.177   1.921  0.00  0.00    -0.000 C 
BRANCH  15  16
ATOM     16  C   LIG A   1      -3.559   1.159   3.095  0.00  0.00    -0.000 C 
BRANCH  16  17
ATOM     17  C   LIG A   1      -2.224   1.804   3.511  0.00  0.00    -0.000 C 
BRANCH  17  18
ATOM     18  C   LIG A   1      -1.085   0.914   4.051  0.00  0.00    +0.000 C 
BRANCH  18  19
ATOM     19  C   LIG A   1       0.165   1.671   4.448  0.00  0.00    +0.000 C 
BRANCH  19  20
ATOM     20  C   LIG A   1      -0.029   2.782   5.469  0.00  0.00    +0.007 C 
BRANCH  20  21
ATOM     21  C   LIG A   1      -0.382   2.354   6.895  0.00  0.00    +0.074 C 
BRANCH  21  22
ATOM     22  C   LIG A   1      -1.752   1.743   7.184  0.00  0.00    +0.130 C 
ATOM     23  C   LIG A   1      -2.017   1.298   8.592  0.00  0.00    +0.086 C 
ATOM     24  O   LIG A   1      -2.638   1.580   6.350  0.00  0.00    -0.298 OA
ENDBRANCH  21  22
ENDBRANCH  20  21
ENDBRANCH  19  20
ENDBRANCH  18  19
ENDBRANCH  17  18
ENDBRANCH  16  17
ENDBRANCH  15  16
ENDBRANCH  14  15
ENDBRANCH  13  14
ENDBRANCH  12  13
ENDBRANCH  11  12
ENDBRANCH  10  11
ENDBRANCH   6  10
BRANCH   3  25
ATOM     25  O   LIG A   1       3.477  -1.216  -4.172  0.00  0.00    -0.425 OA
BRANCH  25  26
ATOM     26  C   LIG A   1       2.281  -1.798  -4.272  0.00  0.00    +0.511 C 
ATOM     27  O   LIG A   1       1.406  -1.669  -3.446  0.00  0.00    -0.203 OA
BRANCH  26  28
ATOM     28  O   LIG A   1       2.154  -2.351  -5.481  0.00  0.00    -0.428 OA
BRANCH  28  29
ATOM     29  C   LIG A   1       0.867  -2.259  -6.124  0.00  0.00    +0.109 C 
ATOM     30  C   LIG A   1       0.736  -0.798  -6.598  0.00  0.00    +0.055 C 
ATOM     31  C   LIG A   1       1.000  -3.182  -7.343  0.00  0.00    +0.055 C 
ATOM     32  C   LIG A   1      -0.365  -2.678  -5.319  0.00  0.00    +0.055 C 
ENDBRANCH  28  29
ENDBRANCH  26  28
ENDBRANCH  25  26
ENDBRANCH   3  25
TORSDOF 17
REMARK  Name = NuBBE_301
REMARK  22 active torsions:
REMARK  status: ('A' for Active; 'I' for Inactive)
REMARK    1  A    between atoms: C_1  and  C_2
REMARK    2  A    between atoms: C_4  and  O_6
REMARK    3  A    between atoms: O_6  and  C_7
REMARK    4  A    between atoms: C_7  and  O_8
REMARK    5  A    between atoms: O_8  and  C_9
REMARK    6  A    between atoms: C_9  and  C_10
REMARK    7  A    between atoms: C_9  and  C_11
REMARK    8  A    between atoms: C_9  and  C_12
REMARK    9  A    between atoms: C_16  and  C_18
REMARK   10  A    between atoms: C_18  and  C_19
REMARK   11  A    between atoms: C_19  and  C_20
REMARK   12  A    between atoms: C_20  and  C_21
REMARK   13  A    between atoms: C_21  and  C_22
REMARK   14  A    between atoms: C_22  and  C_23
REMARK   15  A    between atoms: C_23  and  C_24
REMARK   16  A    between atoms: C_24  and  C_25
REMARK   17  A    between atoms: C_25  and  C_26
REMARK   18  A    between atoms: C_26  and  C_27
REMARK   19  A    between atoms: C_27  and  C_28
REMARK   20  A    between atoms: C_28  and  C_29
REMARK   21  A    between atoms: C_29  and  C_30
REMARK   22  A    between atoms: C_30  and  C_31
REMARK                            x       y       z     vdW  Elec       q    Type
REMARK                         _______ _______ _______ _____ _____    ______ ____
ROOT
ATOM      1 CL   LIG A   2      -2.696   9.136   0.972  0.00  0.00    +0.000 Cl
ENDROOT
TORSDOF 0
