@<TRIPOS>MOLECULE
NuBBE_1847
 38 39 0 0 0
SMALL
GASTEIGER

@<TRIPOS>ATOM
      1 O           3.1683    2.4753   -3.8794 O.3     1  LIG1       -0.5059
      2 C           3.7496    2.0173   -2.7248 C.ar    1  LIG1        0.1311
      3 C           3.0092    1.6498   -1.5879 C.ar    1  LIG1        0.0632
      4 C           1.5289    1.8032   -1.6233 C.2     1  LIG1        0.1896
      5 C           0.6863    0.9018   -0.7904 C.2     1  LIG1       -0.0137
      6 C          -0.6498    1.0109   -0.8661 C.2     1  LIG1       -0.0508
      7 C          -1.6006    0.1760   -0.1181 C.ar    1  LIG1       -0.0212
      8 C          -1.3169   -0.3376    1.1525 C.ar    1  LIG1       -0.0092
      9 C          -2.2669   -1.0745    1.8799 C.ar    1  LIG1        0.1620
     10 O          -1.7834   -1.4911    3.0949 O.3     1  LIG1       -0.4914
     11 C          -2.6228   -2.2884    3.9175 C.3     1  LIG1        0.0790
     12 C          -3.5376   -1.2965    1.3255 C.ar    1  LIG1        0.1615
     13 O          -4.4836   -1.9432    2.0729 O.3     1  LIG1       -0.4915
     14 C          -5.4488   -2.7079    1.3631 C.3     1  LIG1        0.0790
     15 C          -3.8282   -0.7772    0.0575 C.ar    1  LIG1       -0.0157
     16 C          -2.8696   -0.0503   -0.6564 C.ar    1  LIG1       -0.0509
     17 O           1.0374    2.6224   -2.3889 O.2     1  LIG1       -0.2872
     18 C           3.6924    1.1752   -0.4577 C.ar    1  LIG1       -0.0440
     19 C           5.0889    1.0644   -0.4727 C.ar    1  LIG1       -0.0193
     20 C           5.7980    1.4361   -1.6115 C.ar    1  LIG1        0.1204
     21 O           7.1574    1.3495   -1.6624 O.3     1  LIG1       -0.5066
     22 C           5.1381    1.9111   -2.7375 C.ar    1  LIG1        0.0220
     23 H           2.2153    2.6355   -3.6985 H       1  LIG1        0.2922
     24 H           1.1633    0.1488   -0.1795 H       1  LIG1        0.0656
     25 H          -1.0982    1.7515   -1.5280 H       1  LIG1        0.0625
     26 H          -0.3515   -0.1530    1.6176 H       1  LIG1        0.0661
     27 H          -2.0487   -2.5765    4.8030 H       1  LIG1        0.0660
     28 H          -2.9162   -3.2145    3.4120 H       1  LIG1        0.0660
     29 H          -3.4875   -1.7151    4.2665 H       1  LIG1        0.0660
     30 H          -5.8807   -3.4244    2.0688 H       1  LIG1        0.0660
     31 H          -4.9981   -3.2778    0.5439 H       1  LIG1        0.0660
     32 H          -6.2562   -2.0645    1.0020 H       1  LIG1        0.0660
     33 H          -4.8110   -0.8970   -0.3879 H       1  LIG1        0.0655
     34 H          -3.1350    0.3489   -1.6337 H       1  LIG1        0.0625
     35 H           3.1671    0.9035    0.4529 H       1  LIG1        0.0627
     36 H           5.6035    0.6948    0.4097 H       1  LIG1        0.0654
     37 H           7.4887    1.0130   -0.8142 H       1  LIG1        0.2921
     38 H           5.6990    2.2004   -3.6214 H       1  LIG1        0.0691
@<TRIPOS>BOND
     1     1     2    1
     2     2     3   ar
     3     3     4    1
     4     4     5    1
     5     5     6    2
     6     6     7    1
     7     7     8   ar
     8     8     9   ar
     9     9    10    1
    10    10    11    1
    11     9    12   ar
    12    12    13    1
    13    13    14    1
    14    12    15   ar
    15    15    16   ar
    16     7    16   ar
    17     4    17    2
    18     3    18   ar
    19    18    19   ar
    20    19    20   ar
    21    20    21    1
    22    20    22   ar
    23     2    22   ar
    24     1    23    1
    25     5    24    1
    26     6    25    1
    27     8    26    1
    28    11    27    1
    29    11    28    1
    30    11    29    1
    31    14    30    1
    32    14    31    1
    33    14    32    1
    34    15    33    1
    35    16    34    1
    36    18    35    1
    37    19    36    1
    38    21    37    1
    39    22    38    1
