@<TRIPOS>MOLECULE
NuBBE_1033
 86 90 0 0 0
SMALL
GASTEIGER

@<TRIPOS>ATOM
      1 C          -0.1876    2.0944    4.5263 C.3     1  LIG1       -0.0562
      2 C           0.8930    2.1299    3.4284 C.3     1  LIG1        0.0055
      3 C           1.3933    3.6096    3.2404 C.3     1  LIG1        0.1084
      4 O           2.6399    3.6584    2.4870 O.3     1  LIG1       -0.4610
      5 C           3.8029    3.5696    3.1874 C.2     1  LIG1        0.3042
      6 C           4.9932    3.6501    2.2849 C.3     1  LIG1        0.0332
      7 O           3.8965    3.4667    4.4103 O.2     1  LIG1       -0.2512
      8 C           0.3619    4.4866    2.4639 C.3     1  LIG1       -0.0146
      9 C          -0.2951    3.8700    1.1883 C.3     1  LIG1       -0.0437
     10 C          -0.7771    2.3902    1.3675 C.3     1  LIG1       -0.0249
     11 C           0.4580    1.6694    1.9986 C.3     1  LIG1       -0.0268
     12 C           0.5176    0.1915    1.6262 C.3     1  LIG1       -0.0486
     13 C           0.8741    0.0974    0.1253 C.3     1  LIG1       -0.0463
     14 C          -0.0098    0.9845   -0.8364 C.3     1  LIG1       -0.0194
     15 C          -1.1994    1.6299   -0.0031 C.3     1  LIG1       -0.0257
     16 C          -2.3466    0.5469    0.2171 C.3     1  LIG1       -0.0306
     17 C          -2.1662   -0.8300   -0.3708 C.2     1  LIG1       -0.0836
     18 C          -1.3170   -1.0981   -1.3750 C.2     1  LIG1       -0.0626
     19 C          -0.6085    0.0906   -2.0378 C.3     1  LIG1       -0.0051
     20 C           0.4769   -0.4273   -3.0303 C.3     1  LIG1       -0.0424
     21 C          -0.0433   -1.5123   -3.9898 C.3     1  LIG1       -0.0359
     22 C          -0.6956   -2.7333   -3.2717 C.3     1  LIG1        0.0743
     23 C          -0.8005   -2.4972   -1.7435 C.3     1  LIG1       -0.0008
     24 C          -1.2616   -3.7432   -0.9212 C.3     1  LIG1       -0.0337
     25 H          -1.1491   -3.4936    0.1435 H       1  LIG1        0.0307
     26 C          -0.3371   -4.9628   -1.2081 C.3     1  LIG1       -0.0407
     27 C           1.0274   -4.8262   -0.5130 C.3     1  LIG1       -0.0622
     28 C          -0.1637   -5.2053   -2.7154 C.3     1  LIG1       -0.0492
     29 C           0.2507   -3.9537   -3.4891 C.3     1  LIG1       -0.0364
     30 H          -0.8009   -5.8611   -0.7789 H       1  LIG1        0.0301
     31 C          -2.7254   -4.1631   -1.1042 C.3     1  LIG1       -0.0616
     32 H           0.2475   -2.4192   -1.4246 H       1  LIG1        0.0359
     33 C          -2.0375   -3.0056   -3.9712 C.2     1  LIG1        0.3115
     34 O          -3.1094   -2.3314   -3.5118 O.3     1  LIG1       -0.4802
     35 O          -2.1523   -3.7447   -4.9437 O.2     1  LIG1       -0.2504
     36 C          -1.6304    0.8904   -2.9055 C.3     1  LIG1       -0.0553
     37 H          -1.6543    2.4155   -0.6236 H       1  LIG1        0.0315
     38 C           0.8853    2.0955   -1.4425 C.3     1  LIG1       -0.0585
     39 H           1.3073    2.0365    1.4041 H       1  LIG1        0.0312
     40 C          -2.0596    2.5052    2.2405 C.3     1  LIG1       -0.0590
     41 C           2.0026    1.1951    3.9675 C.3     1  LIG1       -0.0562
     42 H          -0.8805    2.9339    4.4866 H       1  LIG1        0.0236
     43 H           0.2700    2.1731    5.5210 H       1  LIG1        0.0236
     44 H          -0.7507    1.1566    4.5044 H       1  LIG1        0.0236
     45 H           1.5593    4.0834    4.2166 H       1  LIG1        0.0739
     46 H           5.8167    3.0745    2.7211 H       1  LIG1        0.0342
     47 H           5.2926    4.6945    2.1784 H       1  LIG1        0.0342
     48 H           4.7704    3.2166    1.3066 H       1  LIG1        0.0342
     49 H           0.8508    5.4213    2.1586 H       1  LIG1        0.0301
     50 H          -0.4333    4.7795    3.1579 H       1  LIG1        0.0301
     51 H           0.4206    3.9622    0.3717 H       1  LIG1        0.0272
     52 H          -1.1432    4.5032    0.8927 H       1  LIG1        0.0272
     53 H          -0.4127   -0.3253    1.8719 H       1  LIG1        0.0268
     54 H           1.3047   -0.3496    2.1558 H       1  LIG1        0.0268
     55 H           0.8659   -0.9602   -0.1330 H       1  LIG1        0.0271
     56 H           1.9297    0.3787    0.0026 H       1  LIG1        0.0271
     57 H          -3.3013    0.9565   -0.1359 H       1  LIG1        0.0310
     58 H          -2.4876    0.3488    1.2808 H       1  LIG1        0.0310
     59 H          -2.6525   -1.6257    0.1864 H       1  LIG1        0.0572
     60 H           1.3503   -0.8148   -2.4919 H       1  LIG1        0.0274
     61 H           0.8510    0.3967   -3.6510 H       1  LIG1        0.0274
     62 H           0.8010   -1.8352   -4.6139 H       1  LIG1        0.0276
     63 H          -0.7441   -1.0607   -4.7027 H       1  LIG1        0.0276
     64 H           1.6176   -3.9863   -0.8895 H       1  LIG1        0.0233
     65 H           1.6232   -5.7338   -0.6592 H       1  LIG1        0.0233
     66 H           0.8981   -4.6870    0.5655 H       1  LIG1        0.0233
     67 H          -1.0994   -5.5926   -3.1338 H       1  LIG1        0.0268
     68 H           0.5841   -5.9910   -2.8814 H       1  LIG1        0.0268
     69 H           0.3237   -4.2048   -4.5551 H       1  LIG1        0.0276
     70 H           1.2697   -3.6789   -3.1826 H       1  LIG1        0.0276
     71 H          -2.9101   -4.6379   -2.0705 H       1  LIG1        0.0233
     72 H          -3.4179   -3.3261   -0.9981 H       1  LIG1        0.0233
     73 H          -2.9951   -4.8987   -0.3373 H       1  LIG1        0.0233
     74 H          -2.9588   -1.7639   -2.7335 H       1  LIG1        0.2951
     75 H          -2.1105    0.2577   -3.6588 H       1  LIG1        0.0238
     76 H          -1.1396    1.7097   -3.4417 H       1  LIG1        0.0238
     77 H          -2.4525    1.3253   -2.3329 H       1  LIG1        0.0238
     78 H           1.4710    2.6181   -0.6857 H       1  LIG1        0.0235
     79 H           0.2937    2.8385   -1.9868 H       1  LIG1        0.0235
     80 H           1.6329    1.6926   -2.1313 H       1  LIG1        0.0235
     81 H          -2.0539    3.3570    2.9227 H       1  LIG1        0.0235
     82 H          -2.2468    1.6080    2.8355 H       1  LIG1        0.0235
     83 H          -2.9415    2.6890    1.6132 H       1  LIG1        0.0235
     84 H           2.8092    1.0427    3.2441 H       1  LIG1        0.0236
     85 H           1.5918    0.2091    4.2199 H       1  LIG1        0.0236
     86 H           2.4341    1.5798    4.8965 H       1  LIG1        0.0236
@<TRIPOS>BOND
     1     2     3    1
     2     4     5    1
     3     5     6    1
     4     5     7    2
     5     3     8    1
     6     8     9    1
     7     9    10    1
     8    10    11    1
     9    11    12    1
    10    12    13    1
    11    13    14    1
    12    14    15    1
    13    15    16    1
    14    16    17    1
    15    17    18    2
    16    18    19    1
    17    19    20    1
    18    20    21    1
    19    21    22    1
    20    22    23    1
    21    23    24    1
    22    24    26    1
    23    26    28    1
    24    28    29    1
    25    18    23    1
    26    29    22    1
    27    33    34    1
    28    33    35    2
    29    19    14    1
    30    15    10    1
    31    11     2    1
    32     1     2    1
    33     2    41    1
    34     3     4    1
    35    10    40    1
    36    11    39    1
    37    14    38    1
    38    15    37    1
    39    19    36    1
    40    22    33    1
    41    23    32    1
    42    24    31    1
    43    24    25    1
    44    26    30    1
    45    26    27    1
    46     1    42    1
    47     1    43    1
    48     1    44    1
    49     3    45    1
    50     6    46    1
    51     6    47    1
    52     6    48    1
    53     8    49    1
    54     8    50    1
    55     9    51    1
    56     9    52    1
    57    12    53    1
    58    12    54    1
    59    13    55    1
    60    13    56    1
    61    16    57    1
    62    16    58    1
    63    17    59    1
    64    20    60    1
    65    20    61    1
    66    21    62    1
    67    21    63    1
    68    27    64    1
    69    27    65    1
    70    27    66    1
    71    28    67    1
    72    28    68    1
    73    29    69    1
    74    29    70    1
    75    31    71    1
    76    31    72    1
    77    31    73    1
    78    34    74    1
    79    36    75    1
    80    36    76    1
    81    36    77    1
    82    38    78    1
    83    38    79    1
    84    38    80    1
    85    40    81    1
    86    40    82    1
    87    40    83    1
    88    41    84    1
    89    41    85    1
    90    41    86    1
