@<TRIPOS>MOLECULE
NuBBE_74
 79 83 0 0 0
SMALL
GASTEIGER

@<TRIPOS>ATOM
      1 C           0.5618   -3.4222    1.0697 C.3     1  LIG1       -0.0590
      2 C           1.3194   -2.5528    0.0044 C.3     1  LIG1       -0.0243
      3 C           0.5166   -2.0865   -1.2566 C.3     1  LIG1       -0.0235
      4 C          -0.6726   -3.0154   -1.6263 C.3     1  LIG1        0.0267
      5 C          -1.2928   -2.6457   -2.9979 C.3     1  LIG1       -0.0528
      6 C          -0.0842   -4.4480   -1.7755 C.2     1  LIG1        0.1392
      7 C           1.3719   -4.7571   -1.3069 C.3     1  LIG1        0.0069
      8 C           2.2328   -3.6245   -0.6660 C.3     1  LIG1       -0.0404
      9 O          -0.7567   -5.3564   -2.2468 O.2     1  LIG1       -0.2968
     10 C          -1.8854   -2.9566   -0.6675 C.3     1  LIG1       -0.0528
     11 H           1.1883   -2.1862   -2.1263 H       1  LIG1        0.0315
     12 C           0.2345   -0.6103   -1.2970 C.3     1  LIG1       -0.0483
     13 C           1.5082    0.2262   -1.2283 C.3     1  LIG1       -0.0463
     14 C           2.3125    0.1305    0.0853 C.3     1  LIG1       -0.0194
     15 C           2.1090   -1.3565    0.8046 C.3     1  LIG1       -0.0257
     16 H           3.1188   -1.7524    0.9890 H       1  LIG1        0.0315
     17 C           1.4694   -1.1407    2.2582 C.3     1  LIG1       -0.0306
     18 C           0.2747   -0.2100    2.1790 C.2     1  LIG1       -0.0836
     19 C           0.4372    0.9520    1.5244 C.2     1  LIG1       -0.0634
     20 C           1.8991    1.3160    1.1499 C.3     1  LIG1       -0.0051
     21 C           1.9845    2.8493    0.8268 C.3     1  LIG1       -0.0429
     22 C           0.7812    3.6213    0.3176 C.3     1  LIG1       -0.0463
     23 C          -0.5842    3.2465    0.9463 C.3     1  LIG1       -0.0255
     24 C          -0.7114    1.7280    0.7879 C.3     1  LIG1       -0.0135
     25 H          -0.4732    1.5886   -0.2661 H       1  LIG1        0.0351
     26 C          -2.1949    1.2647    0.8536 C.3     1  LIG1       -0.0408
     27 C          -3.0339    1.8249   -0.3474 C.3     1  LIG1       -0.0343
     28 C          -4.5498    1.7181   -0.0637 C.3     1  LIG1       -0.0598
     29 C          -2.6812    3.2936   -0.6950 C.3     1  LIG1       -0.0473
     30 C          -1.6740    4.0414    0.1720 C.3     1  LIG1       -0.0466
     31 C          -2.8290    0.9809   -1.6297 C.3     1  LIG1       -0.0598
     32 C          -0.6886    3.6300    2.4379 C.3     1  LIG1       -0.0590
     33 C           2.9830    1.2704    2.3266 C.3     1  LIG1       -0.0553
     34 C           3.7945    0.3253   -0.3488 C.3     1  LIG1       -0.0585
     35 H           0.0076   -4.2784    0.6866 H       1  LIG1        0.0235
     36 H          -0.1725   -2.8518    1.6385 H       1  LIG1        0.0235
     37 H           1.2823   -3.8619    1.7736 H       1  LIG1        0.0235
     38 H          -0.5697   -2.7394   -3.8134 H       1  LIG1        0.0239
     39 H          -1.6966   -1.6215   -3.0105 H       1  LIG1        0.0239
     40 H          -2.1393   -3.3002   -3.2323 H       1  LIG1        0.0239
     41 H           1.9128   -5.1892   -2.1566 H       1  LIG1        0.0342
     42 H           1.2670   -5.5581   -0.5661 H       1  LIG1        0.0342
     43 H           2.8682   -3.1720   -1.4385 H       1  LIG1        0.0275
     44 H           2.9278   -4.0672    0.0571 H       1  LIG1        0.0275
     45 H          -1.6523   -2.8969    0.3882 H       1  LIG1        0.0239
     46 H          -2.5286   -3.8360   -0.7858 H       1  LIG1        0.0239
     47 H          -2.5008   -2.0692   -0.8565 H       1  LIG1        0.0239
     48 H          -0.4888   -0.4029   -0.5237 H       1  LIG1        0.0269
     49 H          -0.2103   -0.3603   -2.2608 H       1  LIG1        0.0269
     50 H           1.2804    1.2721   -1.4567 H       1  LIG1        0.0271
     51 H           2.1327   -0.0917   -2.0756 H       1  LIG1        0.0271
     52 H           2.1983   -0.7868    2.9855 H       1  LIG1        0.0310
     53 H           1.2032   -2.0609    2.7755 H       1  LIG1        0.0310
     54 H          -0.6981   -0.6125    2.4178 H       1  LIG1        0.0572
     55 H           2.8568    3.0619    0.2017 H       1  LIG1        0.0274
     56 H           2.1994    3.3685    1.7802 H       1  LIG1        0.0274
     57 H           0.7405    3.4950   -0.7715 H       1  LIG1        0.0271
     58 H           0.9693    4.6975    0.4901 H       1  LIG1        0.0271
     59 H          -2.6452    1.5796    1.8000 H       1  LIG1        0.0276
     60 H          -2.2571    0.1681    0.8394 H       1  LIG1        0.0276
     61 H          -4.8604    2.3988    0.7278 H       1  LIG1        0.0235
     62 H          -4.8294    0.6999    0.2232 H       1  LIG1        0.0235
     63 H          -5.1277    1.9706   -0.9630 H       1  LIG1        0.0235
     64 H          -3.6001    3.8965   -0.7054 H       1  LIG1        0.0271
     65 H          -2.3215    3.3480   -1.7302 H       1  LIG1        0.0271
     66 H          -2.2332    4.6839    0.8617 H       1  LIG1        0.0271
     67 H          -1.1812    4.7605   -0.5017 H       1  LIG1        0.0271
     68 H          -1.7768    0.8377   -1.8417 H       1  LIG1        0.0235
     69 H          -3.2439    1.4763   -2.5157 H       1  LIG1        0.0235
     70 H          -3.3105    0.0004   -1.5574 H       1  LIG1        0.0235
     71 H           0.1092    3.1958    3.0486 H       1  LIG1        0.0235
     72 H          -1.6401    3.2816    2.8624 H       1  LIG1        0.0235
     73 H          -0.6575    4.7150    2.5757 H       1  LIG1        0.0235
     74 H           2.5226    1.4486    3.3053 H       1  LIG1        0.0238
     75 H           3.7650    2.0297    2.1921 H       1  LIG1        0.0238
     76 H           3.5706    0.3517    2.3706 H       1  LIG1        0.0238
     77 H           4.0796   -0.3834   -1.1357 H       1  LIG1        0.0235
     78 H           4.5095    0.1839    0.4650 H       1  LIG1        0.0235
     79 H           3.9530    1.3327   -0.7553 H       1  LIG1        0.0235
@<TRIPOS>BOND
     1     2     3    1
     2     3     4    1
     3     4     6    1
     4     6     7    1
     5     7     8    1
     6     2     8    1
     7     3    12    1
     8    12    13    1
     9    13    14    1
    10    14    15    1
    11     2    15    1
    12    15    17    1
    13    17    18    1
    14    18    19    2
    15    19    20    1
    16    20    21    1
    17    21    22    1
    18    22    23    1
    19    23    24    1
    20    19    24    1
    21    24    26    1
    22    26    27    1
    23    27    29    1
    24    29    30    1
    25    30    23    1
    26    14    20    1
    27     1     2    1
    28     3    11    1
    29     4     5    1
    30     4    10    1
    31     6     9    2
    32    14    34    1
    33    15    16    1
    34    20    33    1
    35    23    32    1
    36    24    25    1
    37    27    28    1
    38    27    31    1
    39     1    35    1
    40     1    36    1
    41     1    37    1
    42     5    38    1
    43     5    39    1
    44     5    40    1
    45     7    41    1
    46     7    42    1
    47     8    43    1
    48     8    44    1
    49    10    45    1
    50    10    46    1
    51    10    47    1
    52    12    48    1
    53    12    49    1
    54    13    50    1
    55    13    51    1
    56    17    52    1
    57    17    53    1
    58    18    54    1
    59    21    55    1
    60    21    56    1
    61    22    57    1
    62    22    58    1
    63    26    59    1
    64    26    60    1
    65    28    61    1
    66    28    62    1
    67    28    63    1
    68    29    64    1
    69    29    65    1
    70    30    66    1
    71    30    67    1
    72    31    68    1
    73    31    69    1
    74    31    70    1
    75    32    71    1
    76    32    72    1
    77    32    73    1
    78    33    74    1
    79    33    75    1
    80    33    76    1
    81    34    77    1
    82    34    78    1
    83    34    79    1
