REMARK  Name = NuBBE_984
REMARK  6 active torsions:
REMARK  status: ('A' for Active; 'I' for Inactive)
REMARK    1  A    between atoms: C_1  and  C_2
REMARK    2  A    between atoms: C_2  and  C_3
REMARK    3  A    between atoms: C_2  and  O_4
REMARK    4  A    between atoms: C_2  and  C_5
REMARK    5  A    between atoms: C_8  and  O_9
REMARK    6  A    between atoms: C_12  and  C_13
REMARK                            x       y       z     vdW  Elec       q    Type
REMARK                         _______ _______ _______ _____ _____    ______ ____
ROOT
ATOM      1  C   LIG A   1      -0.963   0.265  -0.803  0.00  0.00    +0.023 C 
ATOM      2  C   LIG A   1      -0.926  -0.982   0.121  0.00  0.00    +0.042 C 
ATOM      3  C   LIG A   1       0.265  -1.948  -0.031  0.00  0.00    +0.140 C 
ATOM      4  C   LIG A   1      -0.276   1.486  -0.123  0.00  0.00    +0.011 C 
ATOM      5  C   LIG A   1       1.129   1.825  -0.641  0.00  0.00    +0.038 C 
ATOM      6  C   LIG A   1       2.407   1.315  -0.019  0.00  0.00    -0.012 C 
ATOM      7  C   LIG A   1       2.696   0.543   1.046  0.00  0.00    -0.020 C 
ATOM      8  C   LIG A   1       1.819  -0.143   2.056  0.00  0.00    +0.032 C 
ATOM      9  C   LIG A   1       1.940  -1.676   1.976  0.00  0.00    +0.037 C 
ATOM     10  C   LIG A   1       0.790  -2.414   1.314  0.00  0.00    -0.048 C 
ATOM     11  C   LIG A   1       0.251  -3.494   1.913  0.00  0.00    +0.010 C 
ENDROOT
BRANCH   1  13
ATOM     12  C   LIG A   1      -2.525   1.724  -2.257  0.00  0.00    +0.041 C 
ATOM     13  C   LIG A   1      -2.443   0.581  -1.232  0.00  0.00    +0.063 C 
ATOM     14  C   LIG A   1      -3.366   0.877  -0.042  0.00  0.00    +0.041 C 
BRANCH  13  15
ATOM     15  O   LIG A   1      -2.956  -0.587  -1.897  0.00  0.00    -0.389 OA
ATOM     16  H   LIG A   1      -3.861  -0.392  -2.194  0.00  0.00    +0.210 HD
ENDBRANCH  13  15
ENDBRANCH   1  13
BRANCH   3  17
ATOM     17  O   LIG A   1       1.326  -1.435  -0.814  0.00  0.00    -0.388 OA
ATOM     18  H   LIG A   1       1.965  -2.159  -0.922  0.00  0.00    +0.210 HD
ENDBRANCH   3  17
BRANCH   6  19
ATOM     19  C   LIG A   1       3.630   1.774  -0.768  0.00  0.00    +0.254 C 
ATOM     20  O   LIG A   1       3.600   2.638  -1.639  0.00  0.00    -0.296 OA
ENDBRANCH   6  19
TORSDOF 4
