REMARK  Name = NuBBE_1655
REMARK  17 active torsions:
REMARK  status: ('A' for Active; 'I' for Inactive)
REMARK    1  A    between atoms: C_1  and  C_11
REMARK    2  A    between atoms: C_1  and  C_24
REMARK    3  A    between atoms: C_2  and  C_3
REMARK    4  A    between atoms: C_3  and  C_4
REMARK    5  A    between atoms: C_4  and  C_5
REMARK    6  A    between atoms: C_5  and  C_10
REMARK    7  A    between atoms: C_6  and  C_7
REMARK    8  A    between atoms: C_7  and  O_9
REMARK    9  A    between atoms: C_11  and  C_12
REMARK   10  A    between atoms: C_12  and  C_13
REMARK   11  A    between atoms: C_14  and  C_15
REMARK   12  A    between atoms: C_14  and  C_23
REMARK   13  A    between atoms: C_15  and  C_16
REMARK   14  A    between atoms: C_16  and  C_17
REMARK   15  A    between atoms: C_18  and  C_19
REMARK   16  A    between atoms: C_18  and  C_22
REMARK   17  A    between atoms: C_19  and  O_21
REMARK                            x       y       z     vdW  Elec       q    Type
REMARK                         _______ _______ _______ _____ _____    ______ ____
ROOT
ATOM      1  C   LIG A   1       2.245   0.724   0.223  0.00  0.00    +0.034 C 
ENDROOT
BRANCH   1   2
ATOM      2  C   LIG A   1       2.518   0.739  -1.272  0.00  0.00    -0.076 C 
ATOM      3  C   LIG A   1       1.673   0.177  -2.160  0.00  0.00    -0.027 C 
ATOM      4  C   LIG A   1       3.822   1.397  -1.635  0.00  0.00    +0.038 C 
BRANCH   3   5
ATOM      5  C   LIG A   1       1.779   0.113  -3.654  0.00  0.00    +0.031 C 
BRANCH   5   6
ATOM      6  C   LIG A   1       0.386   0.139  -4.317  0.00  0.00    +0.035 C 
BRANCH   6   7
ATOM      7  C   LIG A   1      -0.397   1.413  -3.999  0.00  0.00    -0.066 C 
ATOM      8  C   LIG A   1      -1.594   1.329  -3.372  0.00  0.00    +0.090 C 
ATOM      9  C   LIG A   1       0.288   2.668  -4.449  0.00  0.00    +0.039 C 
BRANCH   8  10
ATOM     10  C   LIG A   1      -2.527   2.369  -2.910  0.00  0.00    +0.330 C 
ATOM     11  O   LIG A   1      -3.719   2.098  -2.670  0.00  0.00    -0.246 OA
BRANCH  10  12
ATOM     12  O   LIG A   1      -2.017   3.580  -2.684  0.00  0.00    -0.477 OA
ATOM     13  H   LIG A   1      -1.048   3.620  -2.768  0.00  0.00    +0.295 HD
ENDBRANCH  10  12
ENDBRANCH   8  10
ENDBRANCH   6   7
ENDBRANCH   5   6
ENDBRANCH   3   5
ENDBRANCH   1   2
BRANCH   1  14
ATOM     14  C   LIG A   1       0.936   0.055   0.625  0.00  0.00    +0.031 C 
BRANCH  14  15
ATOM     15  C   LIG A   1       0.763   0.032   2.108  0.00  0.00    -0.027 C 
ATOM     16  C   LIG A   1       0.864  -1.051   2.904  0.00  0.00    -0.076 C 
ATOM     17  C   LIG A   1       1.257  -2.448   2.368  0.00  0.00    +0.038 C 
BRANCH  16  18
ATOM     18  C   LIG A   1       0.320  -0.942   4.334  0.00  0.00    +0.034 C 
BRANCH  18  19
ATOM     19  C   LIG A   1      -1.129  -0.359   4.550  0.00  0.00    +0.032 C 
BRANCH  19  20
ATOM     20  C   LIG A   1      -2.430  -1.041   4.062  0.00  0.00    -0.016 C 
ATOM     21  C   LIG A   1      -2.678  -1.808   2.977  0.00  0.00    +0.029 C 
ATOM     22  C   LIG A   1      -1.668  -2.284   2.027  0.00  0.00    +0.051 C 
BRANCH  21  23
ATOM     23  C   LIG A   1      -3.978  -2.357   2.487  0.00  0.00    +0.332 C 
ATOM     24  O   LIG A   1      -4.077  -3.336   1.807  0.00  0.00    -0.245 OA
BRANCH  23  25
ATOM     25  O   LIG A   1      -5.011  -1.520   2.766  0.00  0.00    -0.477 OA
ATOM     26  H   LIG A   1      -4.693  -0.672   3.114  0.00  0.00    +0.295 HD
ENDBRANCH  23  25
ENDBRANCH  21  23
ENDBRANCH  19  20
ENDBRANCH  18  19
ENDBRANCH  16  18
ENDBRANCH  14  15
ENDBRANCH   1  14
TORSDOF 13
