REMARK  Name = NuBBE_1588
REMARK  9 active torsions:
REMARK  status: ('A' for Active; 'I' for Inactive)
REMARK    1  A    between atoms: C_1  and  O_2
REMARK    2  A    between atoms: O_2  and  C_3
REMARK    3  A    between atoms: C_4  and  O_5
REMARK    4  A    between atoms: O_5  and  C_6
REMARK    5  A    between atoms: C_7  and  O_8
REMARK    6  A    between atoms: O_8  and  C_9
REMARK    7  A    between atoms: C_13  and  C_14
REMARK    8  A    between atoms: C_16  and  O_17
REMARK    9  A    between atoms: O_17  and  C_18
REMARK                            x       y       z     vdW  Elec       q    Type
REMARK                         _______ _______ _______ _____ _____    ______ ____
ROOT
ATOM      1  C   LIG A   1       2.078  -2.858  -0.227  0.00  0.00    +0.179 A 
ATOM      2  C   LIG A   1       2.648  -2.803   1.082  0.00  0.00    +0.204 A 
ATOM      3  C   LIG A   1       2.556  -1.608   1.833  0.00  0.00    +0.169 A 
ATOM      4  C   LIG A   1       1.790  -0.552   1.348  0.00  0.00    +0.096 A 
ATOM      5  C   LIG A   1       1.188  -0.622   0.110  0.00  0.00    +0.146 A 
ATOM      6  O   LIG A   1       0.401   0.459  -0.200  0.00  0.00    -0.454 OA
ATOM      7  C   LIG A   1      -0.526   0.303  -1.210  0.00  0.00    +0.140 A 
ATOM      8  C   LIG A   1      -0.404  -0.658  -2.137  0.00  0.00    +0.098 A 
ATOM      9  C   LIG A   1       1.367  -1.727  -0.709  0.00  0.00    +0.109 A 
ATOM     10  C   LIG A   1       0.763  -1.586  -2.062  0.00  0.00    +0.197 A 
ATOM     11  O   LIG A   1       1.189  -2.112  -3.064  0.00  0.00    -0.287 OA
ENDROOT
BRANCH   7  12
ATOM     12  C   LIG A   1      -1.609   1.323  -1.195  0.00  0.00    +0.025 A 
ATOM     13  C   LIG A   1      -1.393   2.615  -0.639  0.00  0.00    +0.061 A 
ATOM     14  C   LIG A   1      -2.390   3.611  -0.651  0.00  0.00    +0.166 A 
ATOM     15  C   LIG A   1      -3.617   3.272  -1.188  0.00  0.00    +0.208 A 
ATOM     16  O   LIG A   1      -4.726   4.056  -1.285  0.00  0.00    -0.449 OA
ATOM     17  C   LIG A   1      -5.658   3.171  -1.924  0.00  0.00    +0.467 C 
ATOM     18  O   LIG A   1      -5.114   1.863  -2.174  0.00  0.00    -0.452 OA
ATOM     19  C   LIG A   1      -3.848   2.013  -1.694  0.00  0.00    +0.171 A 
ATOM     20  C   LIG A   1      -2.880   1.027  -1.707  0.00  0.00    +0.061 A 
BRANCH  14  21
ATOM     21  O   LIG A   1      -2.052   4.816  -0.098  0.00  0.00    -0.491 OA
ATOM     22  C   LIG A   1      -2.734   5.952  -0.629  0.00  0.00    +0.277 C 
ENDBRANCH  14  21
ENDBRANCH   7  12
BRANCH   1  24
ATOM     23  C   LIG A   1       2.689  -5.166  -0.652  0.00  0.00    +0.277 C 
ATOM     24  O   LIG A   1       2.088  -3.945  -1.072  0.00  0.00    -0.490 OA
ENDBRANCH   1  24
BRANCH   2  25
ATOM     25  O   LIG A   1       3.336  -3.905   1.532  0.00  0.00    -0.488 OA
ATOM     26  C   LIG A   1       3.277  -4.224   2.921  0.00  0.00    +0.277 C 
ENDBRANCH   2  25
BRANCH   3  27
ATOM     27  O   LIG A   1       3.193  -1.506   3.047  0.00  0.00    -0.491 OA
ATOM     28  C   LIG A   1       3.493  -0.175   3.474  0.00  0.00    +0.277 C 
ENDBRANCH   3  27
TORSDOF 5
