REMARK  Name = NuBBE_1952
REMARK  7 active torsions:
REMARK  status: ('A' for Active; 'I' for Inactive)
REMARK    1  A    between atoms: O_1  and  C_2
REMARK    2  A    between atoms: O_1  and  C_3
REMARK    3  A    between atoms: C_4  and  O_5
REMARK    4  A    between atoms: O_5  and  C_6
REMARK    5  A    between atoms: C_9  and  C_11
REMARK    6  A    between atoms: C_12  and  C_13
REMARK    7  A    between atoms: C_13  and  O_15
REMARK                            x       y       z     vdW  Elec       q    Type
REMARK                         _______ _______ _______ _____ _____    ______ ____
ROOT
ATOM      1  C   LIG A   1      -0.944   0.607   0.470  0.00  0.00    +0.162 A 
ATOM      2  C   LIG A   1      -0.070   1.696   0.343  0.00  0.00    +0.162 A 
ATOM      3  C   LIG A   1       1.298   1.449   0.161  0.00  0.00    +0.050 A 
ATOM      4  C   LIG A   1       1.790   0.142   0.057  0.00  0.00    +0.012 A 
ATOM      5  C   LIG A   1       0.923  -0.948   0.133  0.00  0.00    -0.021 A 
ATOM      6  C   LIG A   1      -0.435  -0.698   0.368  0.00  0.00    +0.057 A 
ENDROOT
BRANCH   1   7
ATOM      7  O   LIG A   1      -2.299   0.611   0.680  0.00  0.00    -0.491 OA
ATOM      8  C   LIG A   1      -2.971   1.859   0.743  0.00  0.00    +0.277 C 
ENDBRANCH   1   7
BRANCH   2   9
ATOM      9  O   LIG A   1      -0.560   2.967   0.476  0.00  0.00    -0.491 OA
ATOM     10  C   LIG A   1       0.084   3.975  -0.296  0.00  0.00    +0.277 C 
ENDBRANCH   2   9
BRANCH   5  11
ATOM     11  C   LIG A   1       1.454  -2.313   0.011  0.00  0.00    +0.015 C 
ATOM     12  C   LIG A   1       0.748  -3.325  -0.517  0.00  0.00    +0.092 C 
BRANCH  12  13
ATOM     13  C   LIG A   1       1.334  -4.675  -0.610  0.00  0.00    +0.330 C 
ATOM     14  O   LIG A   1       2.448  -4.975  -0.230  0.00  0.00    -0.246 OA
BRANCH  13  15
ATOM     15  O   LIG A   1       0.477  -5.556  -1.168  0.00  0.00    -0.477 OA
ATOM     16  H   LIG A   1      -0.385  -5.195  -1.430  0.00  0.00    +0.295 HD
ENDBRANCH  13  15
ENDBRANCH  12  13
ENDBRANCH   5  11
TORSDOF 5
