@<TRIPOS>MOLECULE
NuBBE_1541
 39 41 0 0 0
SMALL
GASTEIGER

@<TRIPOS>ATOM
      1 C          -1.5854    1.5135    0.4414 C.3     1  LIG1       -0.0593
      2 C          -0.2551    1.9851   -0.1161 C.3     1  LIG1       -0.0284
      3 C          -0.3317    3.4597   -0.4479 C.3     1  LIG1       -0.0593
      4 C           0.5407    0.9003   -0.8786 C.3     1  LIG1       -0.0287
      5 H           0.8657    1.1846   -1.8790 H       1  LIG1        0.0312
      6 C           1.1931    1.6065    0.2732 C.3     1  LIG1       -0.0317
      7 H           2.0141    2.2428   -0.0654 H       1  LIG1        0.0309
      8 C           1.4859    1.1810    1.6730 C.3     1  LIG1       -0.0457
      9 C           2.1244   -0.1923    1.8729 C.3     1  LIG1       -0.0314
     10 C           1.3706   -1.4318    1.4135 C.2     1  LIG1       -0.0732
     11 C           1.8360   -2.6202    1.7830 C.2     1  LIG1       -0.0992
     12 C           0.1054   -1.1961    0.5982 C.3     1  LIG1       -0.0168
     13 H          -0.4591   -0.5009    1.2181 H       1  LIG1        0.0348
     14 C           0.3884   -0.6098   -0.8092 C.3     1  LIG1       -0.0284
     15 H           1.3610   -1.0074   -1.1400 H       1  LIG1        0.0312
     16 C          -0.6566   -1.2186   -1.7812 C.3     1  LIG1       -0.0402
     17 H          -0.0956   -1.8238   -2.5092 H       1  LIG1        0.0301
     18 C          -1.5256   -0.2730   -2.6192 C.3     1  LIG1       -0.0621
     19 C          -1.5027   -2.2019   -0.9685 C.3     1  LIG1       -0.0496
     20 C          -0.8544   -2.3709    0.3948 C.3     1  LIG1       -0.0460
     21 H          -1.8365    0.4782    0.2102 H       1  LIG1        0.0235
     22 H          -2.3998    2.0740   -0.0359 H       1  LIG1        0.0235
     23 H          -1.6541    1.6700    1.5194 H       1  LIG1        0.0235
     24 H           0.6494    3.9369   -0.5274 H       1  LIG1        0.0235
     25 H          -0.8537    3.9745    0.3716 H       1  LIG1        0.0235
     26 H          -0.8908    3.6331   -1.3691 H       1  LIG1        0.0235
     27 H           0.6106    1.3050    2.3157 H       1  LIG1        0.0271
     28 H           2.2190    1.9082    2.0559 H       1  LIG1        0.0271
     29 H           2.2748   -0.2930    2.9590 H       1  LIG1        0.0310
     30 H           3.1223   -0.2019    1.4180 H       1  LIG1        0.0310
     31 H           2.7379   -2.7114    2.3928 H       1  LIG1        0.0534
     32 H           1.3699   -3.5662    1.5131 H       1  LIG1        0.0534
     33 H          -1.6040    0.7355   -2.2121 H       1  LIG1        0.0233
     34 H          -2.5485   -0.6500   -2.7302 H       1  LIG1        0.0233
     35 H          -1.1124   -0.1781   -3.6293 H       1  LIG1        0.0233
     36 H          -1.5405   -3.1737   -1.4774 H       1  LIG1        0.0268
     37 H          -2.5396   -1.8684   -0.8567 H       1  LIG1        0.0268
     38 H          -0.3899   -3.3556    0.4600 H       1  LIG1        0.0271
     39 H          -1.6332   -2.3438    1.1688 H       1  LIG1        0.0271
@<TRIPOS>BOND
     1     2     4    1
     2     4     6    1
     3     2     6    1
     4     6     8    1
     5     8     9    1
     6     9    10    1
     7    10    12    1
     8    12    14    1
     9     4    14    1
    10    14    16    1
    11    16    19    1
    12    19    20    1
    13    12    20    1
    14     1     2    1
    15     2     3    1
    16     4     5    1
    17     6     7    1
    18    10    11    2
    19    12    13    1
    20    14    15    1
    21    16    17    1
    22    16    18    1
    23     1    21    1
    24     1    22    1
    25     1    23    1
    26     3    24    1
    27     3    25    1
    28     3    26    1
    29     8    27    1
    30     8    28    1
    31     9    29    1
    32     9    30    1
    33    11    31    1
    34    11    32    1
    35    18    33    1
    36    18    34    1
    37    18    35    1
    38    19    36    1
    39    19    37    1
    40    20    38    1
    41    20    39    1
