@<TRIPOS>MOLECULE
NuBBE_32
 57 58 0 0 0
SMALL
GASTEIGER

@<TRIPOS>ATOM
      1 O          -3.7257   -1.3306    2.5650 O.3     1  LIG1       -0.5055
      2 C          -2.4115   -1.3672    2.1621 C.ar    1  LIG1        0.1377
      3 C          -1.7313   -0.1439    2.1688 C.ar    1  LIG1        0.0369
      4 C          -0.3962   -0.1089    1.7521 C.ar    1  LIG1        0.1321
      5 O           0.3175    1.0635    1.6699 O.3     1  LIG1       -0.4812
      6 C          -0.4209    2.2998    1.7053 C.3     1  LIG1        0.1266
      7 C          -0.9947    2.6469    0.3329 C.2     1  LIG1       -0.0413
      8 C          -0.4467    2.3180   -0.8506 C.2     1  LIG1       -0.0620
      9 C          -1.0092    2.7206   -2.1240 C.2     1  LIG1       -0.0632
     10 C          -0.5430    2.4195   -3.3532 C.2     1  LIG1       -0.0757
     11 C           0.6340    1.5404   -3.6642 C.3     1  LIG1       -0.0438
     12 C          -1.2026    2.9831   -4.5848 C.3     1  LIG1       -0.0438
     13 C           0.6049    3.3842    2.0752 C.3     1  LIG1       -0.0212
     14 C          -1.4872    2.2553    2.8077 C.3     1  LIG1       -0.0053
     15 C          -2.4537    1.1085    2.5784 C.3     1  LIG1       -0.0168
     16 C           0.2911   -1.2952    1.3939 C.ar    1  LIG1        0.0022
     17 C           1.7759   -1.2135    1.0456 C.3     1  LIG1       -0.0055
     18 C           2.0309   -1.0150   -0.4272 C.2     1  LIG1       -0.0809
     19 C           3.0955   -1.4322   -1.1428 C.2     1  LIG1       -0.0793
     20 C           4.2495   -2.2156   -0.5842 C.3     1  LIG1       -0.0440
     21 C           3.2211   -1.1063   -2.6076 C.3     1  LIG1       -0.0440
     22 C          -0.4187   -2.5274    1.3490 C.ar    1  LIG1       -0.0260
     23 C           0.2609   -3.7943    0.8822 C.3     1  LIG1       -0.0384
     24 C          -1.7778   -2.5590    1.7583 C.ar    1  LIG1        0.1038
     25 C          -2.5288   -3.8427    1.7966 C.2     1  LIG1        0.3406
     26 O          -3.8490   -3.6730    1.5807 O.3     1  LIG1       -0.4770
     27 O          -2.0793   -4.9658    1.9676 O.2     1  LIG1       -0.2450
     28 H          -4.1501   -2.1620    2.2672 H       1  LIG1        0.2922
     29 H          -1.9100    3.2351    0.3443 H       1  LIG1        0.0611
     30 H           0.4873    1.7658   -0.8518 H       1  LIG1        0.0616
     31 H          -1.8921    3.3564   -2.0573 H       1  LIG1        0.0617
     32 H           1.0431    1.0603   -2.7780 H       1  LIG1        0.0274
     33 H           1.4354    2.1226   -4.1303 H       1  LIG1        0.0274
     34 H           0.3419    0.7440   -4.3587 H       1  LIG1        0.0274
     35 H          -2.0342    3.6521   -4.3437 H       1  LIG1        0.0274
     36 H          -1.5896    2.1755   -5.2149 H       1  LIG1        0.0274
     37 H          -0.4732    3.5571   -5.1668 H       1  LIG1        0.0274
     38 H           1.4213    3.4230    1.3439 H       1  LIG1        0.0271
     39 H           1.0752    3.1605    3.0404 H       1  LIG1        0.0271
     40 H           0.1477    4.3779    2.1367 H       1  LIG1        0.0271
     41 H          -2.0416    3.1997    2.8754 H       1  LIG1        0.0310
     42 H          -0.9988    2.1023    3.7805 H       1  LIG1        0.0310
     43 H          -3.1751    1.3719    1.7959 H       1  LIG1        0.0317
     44 H          -3.0152    0.9413    3.5060 H       1  LIG1        0.0317
     45 H           2.2797   -2.1027    1.4377 H       1  LIG1        0.0357
     46 H           2.2349   -0.3800    1.5921 H       1  LIG1        0.0357
     47 H           1.2635   -0.4369   -0.9378 H       1  LIG1        0.0575
     48 H           3.9820   -2.7883    0.3064 H       1  LIG1        0.0274
     49 H           5.0756   -1.5423   -0.3349 H       1  LIG1        0.0274
     50 H           4.6122   -2.9394   -1.3226 H       1  LIG1        0.0274
     51 H           2.3205   -0.6367   -3.0054 H       1  LIG1        0.0274
     52 H           3.3838   -2.0162   -3.1935 H       1  LIG1        0.0274
     53 H           4.0612   -0.4243   -2.7752 H       1  LIG1        0.0274
     54 H           1.1406   -3.6006    0.2649 H       1  LIG1        0.0278
     55 H          -0.4044   -4.3781    0.2377 H       1  LIG1        0.0278
     56 H           0.5697   -4.3970    1.7415 H       1  LIG1        0.0278
     57 H          -4.1962   -4.5900    1.5477 H       1  LIG1        0.2954
@<TRIPOS>BOND
     1     1     2    1
     2     2     3   ar
     3     3     4   ar
     4     4     5    1
     5     5     6    1
     6     6     7    1
     7     7     8    2
     8     8     9    1
     9     9    10    2
    10    10    11    1
    11    10    12    1
    12     6    13    1
    13     6    14    1
    14    14    15    1
    15     3    15    1
    16     4    16   ar
    17    16    17    1
    18    17    18    1
    19    18    19    2
    20    19    20    1
    21    19    21    1
    22    16    22   ar
    23    22    23    1
    24    22    24   ar
    25     2    24   ar
    26    24    25    1
    27    25    26    1
    28    25    27    2
    29     1    28    1
    30     7    29    1
    31     8    30    1
    32     9    31    1
    33    11    32    1
    34    11    33    1
    35    11    34    1
    36    12    35    1
    37    12    36    1
    38    12    37    1
    39    13    38    1
    40    13    39    1
    41    13    40    1
    42    14    41    1
    43    14    42    1
    44    15    43    1
    45    15    44    1
    46    17    45    1
    47    17    46    1
    48    18    47    1
    49    20    48    1
    50    20    49    1
    51    20    50    1
    52    21    51    1
    53    21    52    1
    54    21    53    1
    55    23    54    1
    56    23    55    1
    57    23    56    1
    58    26    57    1
