REMARK  Name = NuBBE_2328
REMARK  14 active torsions:
REMARK  status: ('A' for Active; 'I' for Inactive)
REMARK    1  A    between atoms: C_1  and  O_2
REMARK    2  A    between atoms: O_2  and  C_3
REMARK    3  A    between atoms: C_6  and  O_7
REMARK    4  A    between atoms: C_10  and  O_11
REMARK    5  A    between atoms: O_11  and  C_12
REMARK    6  A    between atoms: C_13  and  C_15
REMARK    7  A    between atoms: C_18  and  O_23
REMARK    8  A    between atoms: C_19  and  O_20
REMARK    9  A    between atoms: O_20  and  C_21
REMARK   10  A    between atoms: C_25  and  O_26
REMARK   11  A    between atoms: O_26  and  C_27
REMARK   12  A    between atoms: C_27  and  C_28
REMARK   13  A    between atoms: C_29  and  C_30
REMARK   14  A    between atoms: C_29  and  C_31
REMARK                            x       y       z     vdW  Elec       q    Type
REMARK                         _______ _______ _______ _____ _____    ______ ____
ROOT
ATOM      1  C   LIG A   1      -0.664   0.984  -0.357  0.00  0.00    +0.205 A 
ATOM      2  C   LIG A   1       0.115   0.270   0.593  0.00  0.00    +0.188 A 
ATOM      3  C   LIG A   1       0.726   0.964   1.648  0.00  0.00    +0.113 A 
ATOM      4  C   LIG A   1       0.530   2.342   1.781  0.00  0.00    +0.135 A 
ATOM      5  C   LIG A   1      -0.246   3.036   0.875  0.00  0.00    +0.095 A 
ATOM      6  C   LIG A   1       1.552   0.222   2.615  0.00  0.00    +0.238 A 
ATOM      7  C   LIG A   1       1.573  -1.254   2.519  0.00  0.00    +0.211 A 
ATOM      8  C   LIG A   1       0.970  -1.781   1.423  0.00  0.00    +0.181 A 
ATOM      9  O   LIG A   1       0.285  -1.089   0.450  0.00  0.00    -0.447 OA
ATOM     10  O   LIG A   1       2.179   0.839   3.462  0.00  0.00    -0.283 OA
ATOM     11  C   LIG A   1      -0.828   2.384  -0.222  0.00  0.00    +0.170 A 
ENDROOT
BRANCH   8  12
ATOM     12  C   LIG A   1       1.007  -3.258   1.192  0.00  0.00    +0.025 A 
ATOM     13  C   LIG A   1       0.057  -4.098   1.784  0.00  0.00    +0.015 A 
ATOM     14  C   LIG A   1       0.107  -5.480   1.581  0.00  0.00    +0.050 A 
ATOM     15  C   LIG A   1       1.115  -6.043   0.790  0.00  0.00    +0.159 A 
ATOM     16  C   LIG A   1       2.083  -5.226   0.198  0.00  0.00    +0.162 A 
ATOM     17  C   LIG A   1       2.012  -3.836   0.396  0.00  0.00    +0.061 A 
BRANCH  16  18
ATOM     18  O   LIG A   1       3.103  -5.618  -0.630  0.00  0.00    -0.491 OA
ATOM     19  C   LIG A   1       3.620  -6.932  -0.446  0.00  0.00    +0.277 C 
ENDBRANCH  16  18
BRANCH  15  20
ATOM     20  O   LIG A   1       1.108  -7.395   0.594  0.00  0.00    -0.503 OA
ATOM     21  H   LIG A   1       0.312  -7.774   1.000  0.00  0.00    +0.292 HD
ENDBRANCH  15  20
ENDBRANCH   8  12
BRANCH   1  23
ATOM     22  C   LIG A   1      -1.496   0.778  -2.606  0.00  0.00    +0.277 C 
ATOM     23  O   LIG A   1      -1.265   0.205  -1.321  0.00  0.00    -0.488 OA
ENDBRANCH   1  23
BRANCH   4  24
ATOM     24  O   LIG A   1       1.069   3.066   2.812  0.00  0.00    -0.506 OA
ATOM     25  H   LIG A   1       1.655   2.477   3.334  0.00  0.00    +0.292 HD
ENDBRANCH   4  24
BRANCH   7  26
ATOM     26  O   LIG A   1       2.203  -2.064   3.454  0.00  0.00    -0.488 OA
ATOM     27  C   LIG A   1       2.247  -1.538   4.789  0.00  0.00    +0.277 C 
ENDBRANCH   7  26
BRANCH  11  28
ATOM     28  O   LIG A   1      -1.611   3.067  -1.118  0.00  0.00    -0.484 OA
BRANCH  28  29
ATOM     29  C   LIG A   1      -1.262   4.428  -1.381  0.00  0.00    +0.257 C 
BRANCH  29  30
ATOM     30  C   LIG A   1      -1.688   4.795  -2.778  0.00  0.00    +0.012 C 
ATOM     31  C   LIG A   1      -2.839   5.358  -3.201  0.00  0.00    -0.076 C 
ATOM     32  C   LIG A   1      -4.049   5.621  -2.350  0.00  0.00    +0.038 C 
ATOM     33  C   LIG A   1      -3.006   5.787  -4.638  0.00  0.00    +0.038 C 
ENDBRANCH  29  30
ENDBRANCH  28  29
ENDBRANCH  11  28
TORSDOF 9
