REMARK  Name = NuBBE_510
REMARK  14 active torsions:
REMARK  status: ('A' for Active; 'I' for Inactive)
REMARK    1  A    between atoms: C_3  and  C_5
REMARK    2  A    between atoms: C_5  and  C_6
REMARK    3  A    between atoms: C_9  and  O_10
REMARK    4  A    between atoms: C_11  and  O_12
REMARK    5  A    between atoms: C_17  and  C_18
REMARK    6  A    between atoms: C_17  and  C_37
REMARK    7  A    between atoms: C_19  and  O_21
REMARK    8  A    between atoms: O_21  and  C_22
REMARK    9  A    between atoms: C_22  and  C_23
REMARK   10  A    between atoms: C_25  and  O_26
REMARK   11  A    between atoms: C_28  and  O_29
REMARK   12  A    between atoms: C_32  and  O_34
REMARK   13  A    between atoms: C_39  and  O_40
REMARK   14  A    between atoms: C_41  and  O_42
REMARK                            x       y       z     vdW  Elec       q    Type
REMARK                         _______ _______ _______ _____ _____    ______ ____
ROOT
ATOM      1  O   LIG A   1      -2.997   1.043   3.023  0.00  0.00    -0.251 OA
ATOM      2  C   LIG A   1      -1.848   1.036   2.594  0.00  0.00    +0.311 C 
ATOM      3  C   LIG A   1      -0.927   2.224   2.719  0.00  0.00    +0.102 C 
ATOM      4  C   LIG A   1      -0.109   2.449   1.456  0.00  0.00    +0.019 C 
ATOM      5  C   LIG A   1       0.394   1.170   0.801  0.00  0.00    +0.057 C 
ATOM      6  O   LIG A   1      -1.258  -0.084   2.115  0.00  0.00    -0.450 OA
ATOM      7  C   LIG A   1      -0.602  -0.022   0.816  0.00  0.00    +0.168 C 
ENDROOT
BRANCH   7   8
ATOM      8  C   LIG A   1      -1.760   0.043  -0.196  0.00  0.00    +0.002 A 
ATOM      9  C   LIG A   1      -2.730  -0.984  -0.239  0.00  0.00    +0.056 A 
ATOM     10  C   LIG A   1      -3.841  -0.882  -1.077  0.00  0.00    +0.159 A 
ATOM     11  C   LIG A   1      -4.015   0.239  -1.876  0.00  0.00    +0.158 A 
ATOM     12  C   LIG A   1      -3.085   1.259  -1.861  0.00  0.00    +0.049 A 
ATOM     13  C   LIG A   1      -1.969   1.161  -1.025  0.00  0.00    +0.011 A 
BRANCH  10  14
ATOM     14  O   LIG A   1      -4.805  -1.851  -1.126  0.00  0.00    -0.503 OA
ATOM     15  H   LIG A   1      -4.591  -2.520  -0.451  0.00  0.00    +0.292 HD
ENDBRANCH  10  14
BRANCH  11  16
ATOM     16  O   LIG A   1      -5.123   0.362  -2.663  0.00  0.00    -0.503 OA
ATOM     17  H   LIG A   1      -5.667  -0.418  -2.437  0.00  0.00    +0.292 HD
ENDBRANCH  11  16
ENDBRANCH   7   8
BRANCH   7  18
ATOM     18  C   LIG A   1       0.275  -1.320   0.705  0.00  0.00    +0.210 C 
ATOM     19  C   LIG A   1       1.102  -1.575  -0.576  0.00  0.00    +0.240 C 
ATOM     20  C   LIG A   1       0.758  -3.025  -0.927  0.00  0.00    +0.183 C 
ATOM     21  C   LIG A   1       0.322  -3.600   0.402  0.00  0.00    +0.195 C 
ATOM     22  O   LIG A   1      -0.445  -2.547   0.993  0.00  0.00    -0.366 OA
BRANCH  20  23
ATOM     23  O   LIG A   1       1.853  -3.739  -1.480  0.00  0.00    -0.386 OA
ATOM     24  H   LIG A   1       1.988  -3.404  -2.385  0.00  0.00    +0.210 HD
ENDBRANCH  20  23
BRANCH  19  25
ATOM     25  O   LIG A   1       0.789  -0.739  -1.711  0.00  0.00    -0.452 OA
BRANCH  25  26
ATOM     26  C   LIG A   1       1.788  -0.037  -2.283  0.00  0.00    +0.340 C 
ATOM     27  O   LIG A   1       2.939   0.076  -1.840  0.00  0.00    -0.245 OA
BRANCH  26  28
ATOM     28  C   LIG A   1       1.355   0.572  -3.568  0.00  0.00    +0.066 A 
ATOM     29  C   LIG A   1       2.319   0.964  -4.511  0.00  0.00    +0.060 A 
ATOM     30  C   LIG A   1       1.911   1.483  -5.739  0.00  0.00    +0.121 A 
ATOM     31  C   LIG A   1       0.564   1.650  -6.045  0.00  0.00    +0.090 A 
ATOM     32  C   LIG A   1      -0.382   1.309  -5.091  0.00  0.00    +0.121 A 
ATOM     33  C   LIG A   1      -0.001   0.757  -3.873  0.00  0.00    +0.060 A 
BRANCH  30  34
ATOM     34  O   LIG A   1       2.809   1.850  -6.699  0.00  0.00    -0.507 OA
ATOM     35  H   LIG A   1       3.674   2.004  -6.279  0.00  0.00    +0.292 HD
ENDBRANCH  30  34
BRANCH  32  36
ATOM     36  O   LIG A   1      -1.713   1.498  -5.308  0.00  0.00    -0.507 OA
ATOM     37  H   LIG A   1      -1.847   1.850  -6.204  0.00  0.00    +0.292 HD
ENDBRANCH  32  36
ENDBRANCH  26  28
ENDBRANCH  25  26
ENDBRANCH  19  25
ENDBRANCH   7  18
BRANCH   3  38
ATOM     38  C   LIG A   1      -0.129   2.186   4.037  0.00  0.00    +0.050 C 
BRANCH  38  39
ATOM     39  C   LIG A   1       0.796   1.012   4.253  0.00  0.00    -0.043 A 
ATOM     40  C   LIG A   1       2.118   1.034   3.777  0.00  0.00    +0.007 A 
ATOM     41  C   LIG A   1       2.948  -0.086   3.905  0.00  0.00    +0.049 A 
ATOM     42  C   LIG A   1       2.470  -1.211   4.562  0.00  0.00    +0.158 A 
ATOM     43  C   LIG A   1       1.185  -1.218   5.095  0.00  0.00    +0.159 A 
ATOM     44  C   LIG A   1       0.341  -0.127   4.934  0.00  0.00    +0.052 A 
BRANCH  42  45
ATOM     45  O   LIG A   1       3.229  -2.338   4.715  0.00  0.00    -0.503 OA
ATOM     46  H   LIG A   1       4.080  -2.196   4.266  0.00  0.00    +0.292 HD
ENDBRANCH  42  45
BRANCH  43  47
ATOM     47  O   LIG A   1       0.741  -2.307   5.789  0.00  0.00    -0.503 OA
ATOM     48  H   LIG A   1       1.501  -2.921   5.796  0.00  0.00    +0.292 HD
ENDBRANCH  43  47
ENDBRANCH  38  39
ENDBRANCH   3  38
TORSDOF 14
