@<TRIPOS>MOLECULE
NuBBE_2040
 50 52 0 0 0
SMALL
GASTEIGER

@<TRIPOS>ATOM
      1 C          -2.0417    0.2882    2.7417 C.3     1  LIG1       -0.0185
      2 C          -3.4690   -0.1684    2.5371 C.2     1  LIG1       -0.0899
      3 C          -3.8894   -1.4302    2.6973 C.2     1  LIG1       -0.1026
      4 C          -1.3639    0.9385    1.4873 C.3     1  LIG1        0.0595
      5 C           0.0659    1.3012    1.8109 C.2     1  LIG1        0.1130
      6 C           0.5050    2.5343    2.0609 C.2     1  LIG1        0.0271
      7 C          -0.4283    3.6785    1.9996 C.2     1  LIG1        0.2231
      8 O          -0.0601    4.7557    2.4322 O.2     1  LIG1       -0.2839
      9 C          -1.7629    3.4359    1.3255 C.2     1  LIG1        0.1637
     10 C          -2.1418    2.1713    1.0687 C.2     1  LIG1       -0.0243
     11 O          -2.5968    4.4704    0.9216 O.2     1  LIG1       -0.4916
     12 C          -2.5437    5.6518    1.7172 C.3     1  LIG1        0.0790
     13 O           0.9617    0.2644    1.6170 O.2     1  LIG1       -0.4872
     14 C           0.2244   -0.7600    0.9223 C.3     1  LIG1        0.1286
     15 H          -0.0180   -1.5068    1.6916 H       1  LIG1        0.0787
     16 C          -1.0852   -0.1154    0.3954 C.3     1  LIG1        0.0138
     17 H          -1.8689   -0.8816    0.3503 H       1  LIG1        0.0350
     18 C          -0.9682    0.4743   -1.0190 C.3     1  LIG1       -0.0575
     19 C           1.0807   -1.4503   -0.1150 C.ar    1  LIG1       -0.0034
     20 C           2.1507   -0.8055   -0.7592 C.ar    1  LIG1       -0.0096
     21 C           2.8983   -1.4541   -1.7546 C.ar    1  LIG1        0.1619
     22 O           3.8948   -0.6856   -2.3074 O.3     1  LIG1       -0.4914
     23 C           4.2031   -0.9578   -3.6729 C.3     1  LIG1        0.0790
     24 C           2.6084   -2.7901   -2.0730 C.ar    1  LIG1        0.1615
     25 C           1.5431   -3.4326   -1.4343 C.ar    1  LIG1       -0.0159
     26 C           0.7788   -2.7669   -0.4764 C.ar    1  LIG1       -0.0514
     27 O           3.4658   -3.4728   -2.8925 O.3     1  LIG1       -0.4915
     28 C           2.8786   -4.4108   -3.7836 C.3     1  LIG1        0.0790
     29 H          -1.4484   -0.5640    3.0983 H       1  LIG1        0.0320
     30 H          -2.0395    1.0040    3.5755 H       1  LIG1        0.0320
     31 H          -4.2039    0.5926    2.2789 H       1  LIG1        0.0567
     32 H          -3.2131   -2.2320    2.9762 H       1  LIG1        0.0532
     33 H          -4.9372   -1.6879    2.5669 H       1  LIG1        0.0532
     34 H           1.5458    2.7649    2.2456 H       1  LIG1        0.0691
     35 H          -3.0863    2.0092    0.5535 H       1  LIG1        0.0620
     36 H          -3.3286    6.3310    1.3723 H       1  LIG1        0.0660
     37 H          -1.5987    6.1838    1.5821 H       1  LIG1        0.0660
     38 H          -2.7317    5.4216    2.7715 H       1  LIG1        0.0660
     39 H          -1.9112    0.9397   -1.3238 H       1  LIG1        0.0234
     40 H          -0.7658   -0.3105   -1.7550 H       1  LIG1        0.0234
     41 H          -0.1765    1.2264   -1.0910 H       1  LIG1        0.0234
     42 H           2.4045    0.2205   -0.4950 H       1  LIG1        0.0659
     43 H           3.2985   -0.9842   -4.2915 H       1  LIG1        0.0660
     44 H           4.7882   -1.8745   -3.7799 H       1  LIG1        0.0660
     45 H           4.8409   -0.1512   -4.0468 H       1  LIG1        0.0660
     46 H           1.3125   -4.4732   -1.6304 H       1  LIG1        0.0655
     47 H          -0.0382   -3.2984    0.0069 H       1  LIG1        0.0623
     48 H           3.6871   -4.8274   -4.3920 H       1  LIG1        0.0660
     49 H           2.1671   -3.9197   -4.4553 H       1  LIG1        0.0660
     50 H           2.4131   -5.2459   -3.2552 H       1  LIG1        0.0660
@<TRIPOS>BOND
     1     1     2    1
     2     2     3    2
     3     4     5    1
     4     5     6    2
     5     6     7    1
     6     7     9    1
     7     9    10    2
     8     4    10    1
     9    11    12    1
    10     5    13    1
    11    13    14    1
    12    14    16    1
    13     4    16    1
    14    19    20   ar
    15    20    21   ar
    16    21    22    1
    17    22    23    1
    18    21    24   ar
    19    24    25   ar
    20    25    26   ar
    21    19    26   ar
    22    24    27    1
    23    27    28    1
    24     1     4    1
    25     7     8    2
    26     9    11    1
    27    16    17    1
    28    16    18    1
    29    14    19    1
    30    14    15    1
    31     1    29    1
    32     1    30    1
    33     2    31    1
    34     3    32    1
    35     3    33    1
    36     6    34    1
    37    10    35    1
    38    12    36    1
    39    12    37    1
    40    12    38    1
    41    18    39    1
    42    18    40    1
    43    18    41    1
    44    20    42    1
    45    23    43    1
    46    23    44    1
    47    23    45    1
    48    25    46    1
    49    26    47    1
    50    28    48    1
    51    28    49    1
    52    28    50    1
