REMARK  Name = NuBBE_1625
REMARK  13 active torsions:
REMARK  status: ('A' for Active; 'I' for Inactive)
REMARK    1  A    between atoms: O_1  and  C_2
REMARK    2  A    between atoms: O_1  and  C_3
REMARK    3  A    between atoms: C_7  and  C_11
REMARK    4  A    between atoms: C_13  and  O_14
REMARK    5  A    between atoms: O_14  and  C_15
REMARK    6  A    between atoms: C_16  and  O_21
REMARK    7  A    between atoms: C_17  and  O_19
REMARK    8  A    between atoms: O_19  and  C_20
REMARK    9  A    between atoms: O_21  and  C_22
REMARK   10  A    between atoms: C_24  and  O_28
REMARK   11  A    between atoms: C_25  and  O_26
REMARK   12  A    between atoms: O_26  and  C_27
REMARK   13  A    between atoms: O_28  and  C_29
REMARK                            x       y       z     vdW  Elec       q    Type
REMARK                         _______ _______ _______ _____ _____    ______ ____
ROOT
ATOM      1  C   LIG A   1      -1.615  -2.909  -2.149  0.00  0.00    +0.179 A 
ATOM      2  C   LIG A   1      -1.105  -1.622  -1.847  0.00  0.00    +0.104 A 
ATOM      3  C   LIG A   1      -0.009  -1.490  -1.029  0.00  0.00    +0.139 A 
ATOM      4  O   LIG A   1       0.518  -0.289  -0.610  0.00  0.00    -0.483 OA
ATOM      5  C   LIG A   1      -0.029   0.906  -1.203  0.00  0.00    +0.211 C 
ATOM      6  C   LIG A   1      -1.526   0.800  -1.416  0.00  0.00    +0.129 C 
ATOM      7  C   LIG A   1      -1.720  -0.382  -2.341  0.00  0.00    +0.174 C 
ATOM      8  O   LIG A   1      -2.274  -0.295  -3.403  0.00  0.00    -0.292 OA
ATOM      9  C   LIG A   1       0.676  -2.600  -0.549  0.00  0.00    +0.096 A 
ATOM     10  C   LIG A   1       0.266  -3.888  -0.908  0.00  0.00    +0.169 A 
ATOM     11  C   LIG A   1      -0.914  -4.058  -1.670  0.00  0.00    +0.204 A 
ENDROOT
BRANCH   5  12
ATOM     12  C   LIG A   1       0.303   2.052  -0.264  0.00  0.00    +0.000 A 
ATOM     13  C   LIG A   1       0.483   3.361  -0.724  0.00  0.00    +0.057 A 
ATOM     14  C   LIG A   1       0.694   4.425   0.168  0.00  0.00    +0.166 A 
ATOM     15  C   LIG A   1       0.791   4.183   1.556  0.00  0.00    +0.203 A 
ATOM     16  C   LIG A   1       0.687   2.858   2.022  0.00  0.00    +0.166 A 
ATOM     17  C   LIG A   1       0.395   1.826   1.116  0.00  0.00    +0.057 A 
BRANCH  14  18
ATOM     18  O   LIG A   1       0.752   5.627  -0.498  0.00  0.00    -0.491 OA
ATOM     19  C   LIG A   1       0.982   6.824   0.232  0.00  0.00    +0.277 C 
ENDBRANCH  14  18
BRANCH  16  20
ATOM     20  O   LIG A   1       0.777   2.584   3.369  0.00  0.00    -0.491 OA
ATOM     21  C   LIG A   1       1.477   1.367   3.657  0.00  0.00    +0.277 C 
ENDBRANCH  16  20
BRANCH  15  22
ATOM     22  O   LIG A   1       0.893   5.290   2.347  0.00  0.00    -0.488 OA
ATOM     23  C   LIG A   1       1.469   5.217   3.637  0.00  0.00    +0.277 C 
ENDBRANCH  15  22
ENDBRANCH   5  12
BRANCH   1  24
ATOM     24  O   LIG A   1      -2.751  -2.935  -2.909  0.00  0.00    -0.490 OA
ATOM     25  C   LIG A   1      -3.711  -3.960  -2.692  0.00  0.00    +0.277 C 
ENDBRANCH   1  24
BRANCH  11  26
ATOM     26  O   LIG A   1      -1.419  -5.276  -2.059  0.00  0.00    -0.488 OA
ATOM     27  C   LIG A   1      -1.163  -6.392  -1.213  0.00  0.00    +0.277 C 
ENDBRANCH  11  26
BRANCH  10  28
ATOM     28  O   LIG A   1       1.001  -4.999  -0.564  0.00  0.00    -0.491 OA
ATOM     29  C   LIG A   1       2.205  -4.808   0.174  0.00  0.00    +0.277 C 
ENDBRANCH  10  28
TORSDOF 7
