REMARK  Name = NuBBE_1296
REMARK  21 active torsions:
REMARK  status: ('A' for Active; 'I' for Inactive)
REMARK    1  A    between atoms: C_1  and  C_2
REMARK    2  A    between atoms: C_7  and  C_9
REMARK    3  A    between atoms: C_7  and  C_27
REMARK    4  A    between atoms: C_9  and  C_10
REMARK    5  A    between atoms: C_10  and  C_11
REMARK    6  A    between atoms: C_11  and  C_12
REMARK    7  A    between atoms: C_12  and  C_14
REMARK    8  A    between atoms: C_12  and  C_26
REMARK    9  A    between atoms: C_14  and  C_15
REMARK   10  A    between atoms: C_15  and  C_16
REMARK   11  A    between atoms: C_16  and  C_17
REMARK   12  A    between atoms: C_17  and  C_19
REMARK   13  A    between atoms: C_17  and  C_25
REMARK   14  A    between atoms: C_19  and  C_20
REMARK   15  A    between atoms: C_20  and  C_21
REMARK   16  A    between atoms: C_21  and  C_22
REMARK   17  A    between atoms: C_22  and  C_23
REMARK   18  A    between atoms: C_22  and  C_24
REMARK   19  A    between atoms: C_28  and  C_33
REMARK   20  A    between atoms: C_29  and  O_32
REMARK   21  A    between atoms: C_30  and  C_31
REMARK                            x       y       z     vdW  Elec       q    Type
REMARK                         _______ _______ _______ _____ _____    ______ ____
ROOT
ATOM      1  C   LIG A   1       0.612   5.602   2.772  0.00  0.00    +0.048 C 
ATOM      2  C   LIG A   1      -0.307   5.793   1.585  0.00  0.00    -0.002 A 
ATOM      3  C   LIG A   1      -0.723   4.680   0.879  0.00  0.00    +0.128 A 
ATOM      4  C   LIG A   1      -1.813   4.728  -0.019  0.00  0.00    +0.001 A 
ATOM      5  C   LIG A   1      -2.453   3.456  -0.474  0.00  0.00    +0.043 C 
ATOM      6  C   LIG A   1      -1.625   2.233  -0.149  0.00  0.00    +0.052 C 
ATOM      7  C   LIG A   1      -0.829   2.358   1.172  0.00  0.00    +0.108 C 
ATOM      8  O   LIG A   1      -0.012   3.515   1.107  0.00  0.00    -0.485 OA
ATOM      9  C   LIG A   1      -1.660   2.449   2.469  0.00  0.00    +0.056 C 
ATOM     10  C   LIG A   1      -2.352   6.003  -0.355  0.00  0.00    -0.002 A 
ATOM     11  C   LIG A   1      -1.795   7.133   0.227  0.00  0.00    +0.123 A 
ATOM     12  C   LIG A   1      -0.809   7.073   1.233  0.00  0.00    -0.002 A 
ATOM     13  C   LIG A   1      -0.309   8.307   1.914  0.00  0.00    +0.048 C 
ATOM     14  C   LIG A   1      -3.474   6.115  -1.365  0.00  0.00    +0.048 C 
ENDROOT
BRANCH  11  15
ATOM     15  O   LIG A   1      -2.210   8.399  -0.162  0.00  0.00    -0.506 OA
ATOM     16  H   LIG A   1      -2.404   8.360  -1.109  0.00  0.00    +0.292 HD
ENDBRANCH  11  15
BRANCH   7  17
ATOM     17  C   LIG A   1       0.042   1.075   1.267  0.00  0.00    +0.048 C 
BRANCH  17  18
ATOM     18  C   LIG A   1       0.970   0.910   2.479  0.00  0.00    +0.004 C 
BRANCH  18  19
ATOM     19  C   LIG A   1       1.791  -0.402   2.557  0.00  0.00    +0.003 C 
BRANCH  19  20
ATOM     20  C   LIG A   1       1.040  -1.756   2.708  0.00  0.00    -0.014 C 
ATOM     21  C   LIG A   1       2.072  -2.878   2.955  0.00  0.00    +0.007 C 
BRANCH  20  22
ATOM     22  C   LIG A   1       0.170  -2.127   1.495  0.00  0.00    +0.003 C 
BRANCH  22  23
ATOM     23  C   LIG A   1      -0.557  -3.456   1.659  0.00  0.00    +0.000 C 
BRANCH  23  24
ATOM     24  C   LIG A   1      -1.471  -3.821   0.502  0.00  0.00    +0.003 C 
BRANCH  24  25
ATOM     25  C   LIG A   1      -0.850  -3.794  -0.914  0.00  0.00    -0.014 C 
ATOM     26  C   LIG A   1      -1.949  -4.286  -1.865  0.00  0.00    +0.007 C 
BRANCH  25  27
ATOM     27  C   LIG A   1       0.459  -4.622  -1.060  0.00  0.00    +0.003 C 
BRANCH  27  28
ATOM     28  C   LIG A   1       1.080  -4.507  -2.469  0.00  0.00    +0.000 C 
BRANCH  28  29
ATOM     29  C   LIG A   1       2.357  -5.333  -2.668  0.00  0.00    +0.003 C 
BRANCH  29  30
ATOM     30  C   LIG A   1       2.942  -5.229  -4.100  0.00  0.00    -0.017 C 
ATOM     31  C   LIG A   1       4.199  -6.099  -4.190  0.00  0.00    +0.007 C 
ATOM     32  C   LIG A   1       1.928  -5.600  -5.190  0.00  0.00    +0.007 C 
ENDBRANCH  29  30
ENDBRANCH  28  29
ENDBRANCH  27  28
ENDBRANCH  25  27
ENDBRANCH  24  25
ENDBRANCH  23  24
ENDBRANCH  22  23
ENDBRANCH  20  22
ENDBRANCH  19  20
ENDBRANCH  18  19
ENDBRANCH  17  18
ENDBRANCH   7  17
TORSDOF 13
