REMARK  Name = NuBBE_51
REMARK  24 active torsions:
REMARK  status: ('A' for Active; 'I' for Inactive)
REMARK    1  A    between atoms: C_1  and  C_2
REMARK    2  A    between atoms: C_4  and  O_6
REMARK    3  A    between atoms: O_6  and  C_7
REMARK    4  A    between atoms: C_7  and  C_8
REMARK    5  A    between atoms: C_8  and  C_9
REMARK    6  A    between atoms: C_9  and  C_10
REMARK    7  A    between atoms: C_12  and  O_14
REMARK    8  A    between atoms: O_14  and  C_15
REMARK    9  A    between atoms: C_15  and  C_16
REMARK   10  A    between atoms: C_20  and  O_22
REMARK   11  A    between atoms: O_22  and  C_23
REMARK   12  A    between atoms: C_23  and  C_24
REMARK   13  A    between atoms: C_24  and  C_25
REMARK   14  A    between atoms: C_25  and  C_26
REMARK   15  A    between atoms: C_29  and  O_31
REMARK   16  A    between atoms: O_31  and  C_32
REMARK   17  A    between atoms: C_32  and  C_33
REMARK   18  A    between atoms: C_36  and  O_38
REMARK   19  A    between atoms: O_38  and  C_39
REMARK   20  A    between atoms: C_43  and  C_44
REMARK   21  A    between atoms: C_43  and  C_45
REMARK   22  A    between atoms: C_45  and  C_46
REMARK   23  A    between atoms: C_47  and  C_48
REMARK   24  A    between atoms: C_47  and  C_50
REMARK                            x       y       z     vdW  Elec       q    Type
REMARK                         _______ _______ _______ _____ _____    ______ ____
ROOT
ATOM      1  C   LIG A   1      -3.095   1.913   1.532  0.00  0.00    +0.012 C 
ATOM      2  C   LIG A   1      -1.920   1.081   1.008  0.00  0.00    +0.037 C 
ATOM      3  C   LIG A   1      -0.856   0.747   2.080  0.00  0.00    +0.221 C 
ATOM      4  C   LIG A   1       0.491   0.135   1.467  0.00  0.00    +0.234 C 
ATOM      5  C   LIG A   1       0.521  -0.243  -0.120  0.00  0.00    +0.104 C 
ATOM      6  C   LIG A   1       0.269  -1.750  -0.242  0.00  0.00    +0.013 C 
ATOM      7  C   LIG A   1       1.510  -2.509   0.162  0.00  0.00    +0.343 C 
ATOM      8  O   LIG A   1       2.578  -1.571   0.029  0.00  0.00    -0.297 OA
ATOM      9  C   LIG A   1       2.039  -0.373  -0.588  0.00  0.00    +0.328 C 
ATOM     10  C   LIG A   1      -0.791  -2.315  -0.817  0.00  0.00    +0.010 C 
ATOM     11  C   LIG A   1      -1.870  -1.560  -1.500  0.00  0.00    +0.141 C 
ATOM     12  C   LIG A   1      -1.462  -0.153  -1.913  0.00  0.00    +0.041 C 
ATOM     13  C   LIG A   1      -0.464   0.676  -0.988  0.00  0.00    +0.018 C 
ATOM     14  C   LIG A   1      -1.322   1.768  -0.225  0.00  0.00    -0.018 C 
ATOM     15  C   LIG A   1      -2.479   2.268  -1.089  0.00  0.00    +0.012 C 
ENDROOT
BRANCH  11  16
ATOM     16  O   LIG A   1      -2.255  -2.219  -2.714  0.00  0.00    -0.376 OA
ATOM     17  C   LIG A   1      -2.846  -3.492  -2.526  0.00  0.00    +0.194 C 
ENDBRANCH  11  16
BRANCH   7  18
ATOM     18  O   LIG A   1       1.796  -3.760  -0.487  0.00  0.00    -0.431 OA
BRANCH  18  19
ATOM     19  C   LIG A   1       2.282  -3.660  -1.744  0.00  0.00    +0.309 C 
ATOM     20  O   LIG A   1       1.937  -2.823  -2.557  0.00  0.00    -0.251 OA
BRANCH  19  21
ATOM     21  C   LIG A   1       3.317  -4.681  -2.127  0.00  0.00    +0.120 C 
BRANCH  21  22
ATOM     22  C   LIG A   1       4.121  -5.255  -0.974  0.00  0.00    +0.008 C 
ATOM     23  C   LIG A   1       4.877  -4.220  -0.150  0.00  0.00    +0.004 C 
ENDBRANCH  21  22
ENDBRANCH  19  21
ENDBRANCH  18  19
ENDBRANCH   7  18
BRANCH   4  24
ATOM     24  O   LIG A   1       1.813   0.736   1.869  0.00  0.00    -0.457 OA
BRANCH  24  25
ATOM     25  C   LIG A   1       2.209   2.036   1.915  0.00  0.00    +0.304 C 
ATOM     26  C   LIG A   1       3.595   2.248   1.322  0.00  0.00    +0.136 C 
ATOM     27  O   LIG A   1       1.550   2.951   2.388  0.00  0.00    -0.251 OA
ENDBRANCH  24  25
ENDBRANCH   4  24
BRANCH   9  28
ATOM     28  O   LIG A   1       2.604  -0.212  -1.916  0.00  0.00    -0.434 OA
BRANCH  28  29
ATOM     29  C   LIG A   1       1.924  -0.354  -3.053  0.00  0.00    +0.306 C 
ATOM     30  C   LIG A   1       2.725  -0.502  -4.254  0.00  0.00    +0.136 C 
ATOM     31  O   LIG A   1       0.658  -0.418  -3.157  0.00  0.00    -0.251 OA
ENDBRANCH  28  29
ENDBRANCH   9  28
BRANCH  14  32
ATOM     32  C   LIG A   1      -0.569   3.087   0.122  0.00  0.00    +0.034 C 
BRANCH  32  33
ATOM     33  C   LIG A   1       0.050   3.950  -0.957  0.00  0.00    -0.023 C 
ATOM     34  C   LIG A   1      -0.269   4.274  -2.228  0.00  0.00    -0.055 C 
ATOM     35  C   LIG A   1       0.716   4.962  -3.111  0.00  0.00    +0.043 C 
BRANCH  34  36
ATOM     36  C   LIG A   1      -1.436   4.020  -3.047  0.00  0.00    -0.005 C 
ATOM     37  C   LIG A   1      -2.651   4.556  -2.872  0.00  0.00    +0.008 C 
ENDBRANCH  34  36
ENDBRANCH  32  33
ENDBRANCH  14  32
BRANCH   3  38
ATOM     38  O   LIG A   1      -1.433  -0.243   3.028  0.00  0.00    -0.457 OA
BRANCH  38  39
ATOM     39  C   LIG A   1      -2.423   0.081   3.915  0.00  0.00    +0.307 C 
ATOM     40  O   LIG A   1      -3.616   0.212   3.671  0.00  0.00    -0.251 OA
BRANCH  39  41
ATOM     41  C   LIG A   1      -1.996  -0.002   5.335  0.00  0.00    +0.120 C 
BRANCH  41  42
ATOM     42  C   LIG A   1      -2.962  -0.972   6.025  0.00  0.00    +0.008 C 
ATOM     43  C   LIG A   1      -2.597  -1.147   7.478  0.00  0.00    +0.004 C 
ENDBRANCH  41  42
ENDBRANCH  39  41
ENDBRANCH  38  39
ENDBRANCH   3  38
TORSDOF 16
