@<TRIPOS>MOLECULE
NuBBE_453
 59 59 0 0 0
SMALL
GASTEIGER

@<TRIPOS>ATOM
      1 O           1.2110    1.8800   -1.5195 O.3     1  LIG1       -0.3903
      2 C           0.5144    2.6864   -0.5727 C.3     1  LIG1        0.0703
      3 H           0.2614    3.5868   -1.1367 H       1  LIG1        0.0609
      4 C           1.3974    2.9972    0.6408 C.3     1  LIG1        0.0310
      5 H           0.9753    3.8778    1.1311 H       1  LIG1        0.0483
      6 C           2.7933    3.3589    0.1275 C.3     1  LIG1       -0.0473
      7 N           1.4025    1.8646    1.6129 N.3     1  LIG1       -0.3083
      8 H           2.1211    2.0273    2.3220 H       1  LIG1        0.1225
      9 C           0.0812    1.6522    2.3166 C.3     1  LIG1        0.0080
     10 H           0.0741    2.3177    3.1881 H       1  LIG1        0.0460
     11 C           0.0473    0.1866    2.9461 C.3     1  LIG1       -0.0375
     12 C          -1.1068   -0.3898    3.8478 C.3     1  LIG1       -0.0516
     13 C          -2.6240   -0.5299    3.5539 C.3     1  LIG1       -0.0530
     14 C          -3.2102   -1.5055    2.5066 C.3     1  LIG1       -0.0531
     15 C          -2.9978   -1.1807    1.0238 C.3     1  LIG1       -0.0531
     16 C          -1.5510   -1.3027    0.5860 C.3     1  LIG1       -0.0531
     17 C          -1.2415   -0.9796   -0.8726 C.3     1  LIG1       -0.0531
     18 C           0.2799   -0.7635   -1.1006 C.3     1  LIG1       -0.0530
     19 C           1.3133   -1.8566   -1.1476 C.3     1  LIG1       -0.0506
     20 C           1.2923   -2.7410   -2.3693 C.3     1  LIG1       -0.0247
     21 C           1.8014   -2.1845   -3.7158 C.3     1  LIG1        0.0782
     22 O           1.7372   -3.2670   -4.6604 O.3     1  LIG1       -0.3895
     23 C           1.0520   -0.9835   -4.3303 C.3     1  LIG1        0.0701
     24 O           1.5319   -0.6939   -5.6665 O.3     1  LIG1       -0.3925
     25 C          -1.0880    2.1545    1.4207 C.3     1  LIG1       -0.0352
     26 C          -0.7601    2.0350   -0.0689 C.3     1  LIG1       -0.0240
     27 H           1.7952    1.2590   -1.0191 H       1  LIG1        0.2098
     28 H           3.3467    2.4940   -0.2579 H       1  LIG1        0.0245
     29 H           3.3873    3.8251    0.9135 H       1  LIG1        0.0245
     30 H           2.7046    4.0735   -0.7027 H       1  LIG1        0.0245
     31 H           0.9151    0.1620    3.6264 H       1  LIG1        0.0280
     32 H           0.3636   -0.5782    2.2262 H       1  LIG1        0.0280
     33 H          -1.0584    0.1942    4.7783 H       1  LIG1        0.0266
     34 H          -0.7797   -1.3993    4.1468 H       1  LIG1        0.0266
     35 H          -3.0860    0.4554    3.4476 H       1  LIG1        0.0265
     36 H          -3.0434   -0.9144    4.5055 H       1  LIG1        0.0265
     37 H          -4.3035   -1.4868    2.6563 H       1  LIG1        0.0265
     38 H          -2.9202   -2.5410    2.7252 H       1  LIG1        0.0265
     39 H          -3.3633   -0.1598    0.8545 H       1  LIG1        0.0265
     40 H          -3.6068   -1.8473    0.4084 H       1  LIG1        0.0265
     41 H          -1.0900   -2.2464    0.8816 H       1  LIG1        0.0265
     42 H          -1.0880   -0.5194    1.1485 H       1  LIG1        0.0265
     43 H          -1.7652   -0.0323   -1.0889 H       1  LIG1        0.0265
     44 H          -1.6876   -1.6576   -1.5927 H       1  LIG1        0.0265
     45 H           0.6930   -0.2029   -0.2546 H       1  LIG1        0.0265
     46 H           0.3608   -0.1444   -1.9881 H       1  LIG1        0.0265
     47 H           1.2063   -2.4545   -0.2356 H       1  LIG1        0.0266
     48 H           2.3083   -1.3867   -1.0729 H       1  LIG1        0.0266
     49 H           0.2958   -3.1775   -2.4800 H       1  LIG1        0.0291
     50 H           1.9555   -3.5807   -2.1184 H       1  LIG1        0.0291
     51 H           2.8626   -1.9220   -3.6419 H       1  LIG1        0.0616
     52 H           2.3097   -3.9840   -4.3169 H       1  LIG1        0.2099
     53 H           1.2404   -0.0784   -3.7587 H       1  LIG1        0.0583
     54 H          -0.0208   -1.1700   -4.3951 H       1  LIG1        0.0583
     55 H           2.2380   -1.2558   -5.8537 H       1  LIG1        0.2095
     56 H          -1.2990    3.2067    1.6234 H       1  LIG1        0.0281
     57 H          -2.0023    1.5942    1.6324 H       1  LIG1        0.0281
     58 H          -1.6101    2.2133   -0.7389 H       1  LIG1        0.0291
     59 H          -0.5660    1.0156   -0.1215 H       1  LIG1        0.0291
@<TRIPOS>BOND
     1     2     4    1
     2     4     7    1
     3     7     8    1
     4     7     9    1
     5     9    10    1
     6     9    11    1
     7    11    12    1
     8    12    13    1
     9    13    14    1
    10    14    15    1
    11    15    16    1
    12    16    17    1
    13    17    18    1
    14    18    19    1
    15    19    20    1
    16    20    21    1
    17    21    22    1
    18    21    23    1
    19    23    24    1
    20     9    25    1
    21    25    26    1
    22     2    26    1
    23     2     3    1
    24     2     1    1
    25     4     6    1
    26     4     5    1
    27     1    27    1
    28     6    28    1
    29     6    29    1
    30     6    30    1
    31    11    31    1
    32    11    32    1
    33    12    33    1
    34    12    34    1
    35    13    35    1
    36    13    36    1
    37    14    37    1
    38    14    38    1
    39    15    39    1
    40    15    40    1
    41    16    41    1
    42    16    42    1
    43    17    43    1
    44    17    44    1
    45    18    45    1
    46    18    46    1
    47    19    47    1
    48    19    48    1
    49    20    49    1
    50    20    50    1
    51    21    51    1
    52    22    52    1
    53    23    53    1
    54    23    54    1
    55    24    55    1
    56    25    56    1
    57    25    57    1
    58    26    58    1
    59    26    59    1
