@<TRIPOS>MOLECULE
NuBBE_10
 38 39 0 0 0
SMALL
GASTEIGER

@<TRIPOS>ATOM
      1 O          -4.3849   -0.4339   -0.4565 O.3     1  LIG1       -0.5065
      2 C          -3.0207   -0.4687   -0.3962 C.ar    1  LIG1        0.1200
      3 C          -2.2959   -1.6512   -0.2554 C.ar    1  LIG1       -0.0087
      4 C          -2.9561   -2.9951   -0.1613 C.3     1  LIG1       -0.0362
      5 C          -0.8956   -1.5640   -0.2009 C.ar    1  LIG1       -0.0517
      6 C          -0.2157   -0.3296   -0.2746 C.ar    1  LIG1       -0.0401
      7 C           1.3086   -0.3191   -0.1776 C.3     1  LIG1       -0.0132
      8 H           1.6490   -1.0212   -0.9545 H       1  LIG1        0.0351
      9 C           1.8241   -0.9007    1.1808 C.3     1  LIG1       -0.0399
     10 H           1.2918   -1.8399    1.3780 H       1  LIG1        0.0301
     11 C           3.3102   -1.2768    1.1113 C.3     1  LIG1       -0.0621
     12 C           1.5780   -0.0021    2.3935 C.3     1  LIG1       -0.0621
     13 C           1.9268    1.0406   -0.5637 C.3     1  LIG1       -0.0454
     14 C           1.1077    2.2365   -0.0918 C.3     1  LIG1       -0.0459
     15 C          -0.3231    2.2021   -0.6352 C.3     1  LIG1       -0.0183
     16 H          -0.8986    2.9411   -0.0612 H       1  LIG1        0.0346
     17 C          -0.3721    2.6184   -2.1110 C.3     1  LIG1       -0.0584
     18 C          -0.9689    0.8448   -0.4477 C.ar    1  LIG1       -0.0376
     19 C          -2.3712    0.7586   -0.4965 C.ar    1  LIG1       -0.0162
     20 H          -4.7313   -1.3341   -0.3641 H       1  LIG1        0.2921
     21 H          -3.5484   -3.1903   -1.0610 H       1  LIG1        0.0279
     22 H          -3.6052   -3.0371    0.7192 H       1  LIG1        0.0279
     23 H          -2.2215   -3.8022   -0.0691 H       1  LIG1        0.0279
     24 H          -0.3159   -2.4807   -0.1012 H       1  LIG1        0.0624
     25 H           3.5083   -1.9301    0.2552 H       1  LIG1        0.0233
     26 H           3.6091   -1.8186    2.0156 H       1  LIG1        0.0233
     27 H           3.9558   -0.3976    1.0290 H       1  LIG1        0.0233
     28 H           0.5296    0.3037    2.4602 H       1  LIG1        0.0233
     29 H           2.2065    0.8932    2.3685 H       1  LIG1        0.0233
     30 H           1.8203   -0.5388    3.3178 H       1  LIG1        0.0233
     31 H           2.0081    1.0857   -1.6578 H       1  LIG1        0.0271
     32 H           2.9530    1.1326   -0.1954 H       1  LIG1        0.0271
     33 H           1.6052    3.1654   -0.3961 H       1  LIG1        0.0271
     34 H           1.0733    2.2601    1.0019 H       1  LIG1        0.0271
     35 H           0.1136    3.5890   -2.2578 H       1  LIG1        0.0236
     36 H          -1.4066    2.7138   -2.4594 H       1  LIG1        0.0236
     37 H           0.1222    1.8879   -2.7604 H       1  LIG1        0.0236
     38 H          -2.9695    1.6581   -0.6249 H       1  LIG1        0.0657
@<TRIPOS>BOND
     1     1     2    1
     2     2     3   ar
     3     3     4    1
     4     3     5   ar
     5     5     6   ar
     6     6     7    1
     7     7     8    1
     8     7     9    1
     9     9    10    1
    10     9    11    1
    11     9    12    1
    12     7    13    1
    13    13    14    1
    14    14    15    1
    15    15    16    1
    16    15    17    1
    17     6    18   ar
    18    15    18    1
    19    18    19   ar
    20     2    19   ar
    21     1    20    1
    22     4    21    1
    23     4    22    1
    24     4    23    1
    25     5    24    1
    26    11    25    1
    27    11    26    1
    28    11    27    1
    29    12    28    1
    30    12    29    1
    31    12    30    1
    32    13    31    1
    33    13    32    1
    34    14    33    1
    35    14    34    1
    36    17    35    1
    37    17    36    1
    38    17    37    1
    39    19    38    1
