REMARK  Name = NuBBE_605
REMARK  15 active torsions:
REMARK  status: ('A' for Active; 'I' for Inactive)
REMARK    1  A    between atoms: C_2  and  C_3
REMARK    2  A    between atoms: C_2  and  C_44
REMARK    3  A    between atoms: C_7  and  C_43
REMARK    4  A    between atoms: C_10  and  C_42
REMARK    5  A    between atoms: C_11  and  C_41
REMARK    6  A    between atoms: C_16  and  C_17
REMARK    7  A    between atoms: C_16  and  C_40
REMARK    8  A    between atoms: C_18  and  O_32
REMARK    9  A    between atoms: C_22  and  C_31
REMARK   10  A    between atoms: O_32  and  C_33
REMARK   11  A    between atoms: C_33  and  C_34
REMARK   12  A    between atoms: C_34  and  C_35
REMARK   13  A    between atoms: C_35  and  C_36
REMARK   14  A    between atoms: C_36  and  C_37
REMARK   15  A    between atoms: C_37  and  C_38
REMARK                            x       y       z     vdW  Elec       q    Type
REMARK                         _______ _______ _______ _____ _____    ______ ____
ROOT
ATOM      1  C   LIG A   1       3.522   5.065   0.423  0.00  0.00    +0.018 C 
ATOM      2  C   LIG A   1       4.913   5.509   0.942  0.00  0.00    +0.009 C 
ATOM      3  C   LIG A   1       5.879   4.366   0.606  0.00  0.00    +0.007 C 
ATOM      4  C   LIG A   1       5.004   3.111   0.696  0.00  0.00    -0.028 C 
ATOM      5  C   LIG A   1       5.526   1.913  -0.110  0.00  0.00    +0.007 C 
ATOM      6  C   LIG A   1       4.479   0.783  -0.211  0.00  0.00    +0.008 C 
ATOM      7  C   LIG A   1       2.998   1.216  -0.580  0.00  0.00    -0.023 C 
ATOM      8  C   LIG A   1       1.903   0.102  -0.152  0.00  0.00    -0.023 C 
ATOM      9  C   LIG A   1       2.163  -1.225  -0.901  0.00  0.00    +0.008 C 
ATOM     10  C   LIG A   1       1.120  -2.300  -0.625  0.00  0.00    +0.005 C 
ATOM     11  C   LIG A   1      -0.322  -1.857  -0.953  0.00  0.00    +0.004 C 
ATOM     12  C   LIG A   1      -1.374  -3.028  -0.807  0.00  0.00    +0.005 C 
ATOM     13  C   LIG A   1      -1.215  -3.943  -2.063  0.00  0.00    +0.015 C 
ATOM     14  C   LIG A   1      -2.881  -2.549  -0.802  0.00  0.00    +0.182 C 
ATOM     15  C   LIG A   1      -3.182  -1.041  -0.849  0.00  0.00    +0.046 C 
ATOM     16  C   LIG A   1      -2.013  -0.081  -1.054  0.00  0.00    +0.011 C 
ATOM     17  C   LIG A   1      -0.726  -0.496  -0.286  0.00  0.00    -0.025 C 
ATOM     18  C   LIG A   1       0.436   0.581  -0.542  0.00  0.00    +0.002 C 
ATOM     19  C   LIG A   1       0.133   1.997   0.011  0.00  0.00    +0.005 C 
ATOM     20  C   LIG A   1       1.211   3.044  -0.311  0.00  0.00    +0.005 C 
ATOM     21  C   LIG A   1       2.599   2.569   0.131  0.00  0.00    -0.000 C 
ATOM     22  C   LIG A   1       3.728   3.599  -0.021  0.00  0.00    +0.006 C 
ATOM     23  C   LIG A   1      -1.111  -0.596   1.209  0.00  0.00    +0.012 C 
ATOM     24  C   LIG A   1      -1.022  -3.927   0.409  0.00  0.00    +0.015 C 
ATOM     25  C   LIG A   1       2.013  -0.164   1.382  0.00  0.00    +0.012 C 
ATOM     26  C   LIG A   1       3.021   1.410  -2.135  0.00  0.00    +0.012 C 
ATOM     27  C   LIG A   1       4.828   2.727   2.184  0.00  0.00    +0.011 C 
ENDROOT
BRANCH   1  29
ATOM     28  C   LIG A   1       3.251   5.898  -1.981  0.00  0.00    +0.007 C 
ATOM     29  C   LIG A   1       3.018   6.023  -0.661  0.00  0.00    -0.076 C 
ATOM     30  C   LIG A   1       2.224   7.204  -0.167  0.00  0.00    +0.038 C 
ENDBRANCH   1  29
BRANCH  14  31
ATOM     31  O   LIG A   1      -3.603  -3.050   0.367  0.00  0.00    -0.461 OA
BRANCH  31  32
ATOM     32  C   LIG A   1      -4.159  -4.292   0.318  0.00  0.00    +0.307 C 
ATOM     33  O   LIG A   1      -4.146  -5.042  -0.649  0.00  0.00    -0.251 OA
BRANCH  32  34
ATOM     34  C   LIG A   1      -4.758  -4.652   1.658  0.00  0.00    +0.120 C 
BRANCH  34  35
ATOM     35  C   LIG A   1      -6.231  -4.279   1.787  0.00  0.00    +0.011 C 
BRANCH  35  36
ATOM     36  C   LIG A   1      -7.149  -4.998   0.791  0.00  0.00    +0.000 C 
BRANCH  36  37
ATOM     37  C   LIG A   1      -8.610  -4.602   1.012  0.00  0.00    -0.003 C 
ATOM     38  C   LIG A   1      -9.551  -5.279   0.028  0.00  0.00    +0.004 C 
ENDBRANCH  36  37
ENDBRANCH  35  36
ENDBRANCH  34  35
ENDBRANCH  32  34
ENDBRANCH  31  32
ENDBRANCH  14  31
TORSDOF 7
