@<TRIPOS>MOLECULE
NuBBE_1192
 34 35 0 0 0
SMALL
GASTEIGER

@<TRIPOS>ATOM
      1 O          -6.0860    1.2205    0.2332 O.2     1  LIG1       -0.2452
      2 C          -4.8667    1.1460    0.2932 C.ar    1  LIG1        0.3372
      3 C          -4.0387    2.3635    0.3796 C.ar    1  LIG1        0.0236
      4 C          -2.7068    2.3233    0.4657 C.ar    1  LIG1       -0.0443
      5 C          -2.0285    1.0363    0.4887 C.ar    1  LIG1        0.0181
      6 C          -0.6463    0.9250    0.6384 C.ar    1  LIG1       -0.0441
      7 C          -0.0308   -0.3427    0.6982 C.ar    1  LIG1       -0.0012
      8 C          -0.8145   -1.5032    0.5385 C.ar    1  LIG1        0.1271
      9 O          -0.1509   -2.7003    0.6040 O.3     1  LIG1       -0.4947
     10 C          -0.7120   -3.7718   -0.1458 C.3     1  LIG1        0.0788
     11 C          -2.1990   -1.3916    0.3953 C.ar    1  LIG1        0.0234
     12 C           1.4648   -0.4259    0.9306 C.3     1  LIG1       -0.0058
     13 C           2.2587   -0.3725   -0.3467 C.2     1  LIG1       -0.0809
     14 C           3.1841    0.5371   -0.7129 C.2     1  LIG1       -0.0793
     15 C           3.6106    1.7205    0.1104 C.3     1  LIG1       -0.0440
     16 C           3.8893    0.4260   -2.0401 C.3     1  LIG1       -0.0440
     17 C          -2.7855   -0.1261    0.3818 C.ar    1  LIG1        0.1425
     18 O          -4.1897   -0.0683    0.2735 O.2     1  LIG1       -0.4220
     19 H          -4.5831    3.3011    0.3724 H       1  LIG1        0.0689
     20 H          -2.1188    3.2328    0.5279 H       1  LIG1        0.0627
     21 H          -0.0332    1.8196    0.7298 H       1  LIG1        0.0629
     22 H          -0.0103   -4.6104   -0.0967 H       1  LIG1        0.0660
     23 H          -0.8329   -3.4963   -1.1989 H       1  LIG1        0.0660
     24 H          -1.6575   -4.1126    0.2857 H       1  LIG1        0.0660
     25 H          -2.8418   -2.2618    0.3296 H       1  LIG1        0.0691
     26 H           1.7135   -1.3544    1.4590 H       1  LIG1        0.0357
     27 H           1.7446    0.3670    1.6305 H       1  LIG1        0.0357
     28 H           2.0444   -1.1965   -1.0283 H       1  LIG1        0.0575
     29 H           3.2433    1.6945    1.1379 H       1  LIG1        0.0274
     30 H           3.2483    2.6440   -0.3523 H       1  LIG1        0.0274
     31 H           4.7033    1.7685    0.1680 H       1  LIG1        0.0274
     32 H           3.5137   -0.4059   -2.6450 H       1  LIG1        0.0274
     33 H           4.9624    0.2693   -1.8868 H       1  LIG1        0.0274
     34 H           3.7520    1.3455   -2.6186 H       1  LIG1        0.0274
@<TRIPOS>BOND
     1     1     2    2
     2     2     3   ar
     3     3     4   ar
     4     4     5   ar
     5     5     6   ar
     6     6     7   ar
     7     7     8   ar
     8     8     9    1
     9     9    10    1
    10     8    11   ar
    11     7    12    1
    12    12    13    1
    13    13    14    2
    14    14    15    1
    15    14    16    1
    16     5    17   ar
    17    11    17   ar
    18    17    18   ar
    19     2    18   ar
    20     3    19    1
    21     4    20    1
    22     6    21    1
    23    10    22    1
    24    10    23    1
    25    10    24    1
    26    11    25    1
    27    12    26    1
    28    12    27    1
    29    13    28    1
    30    15    29    1
    31    15    30    1
    32    15    31    1
    33    16    32    1
    34    16    33    1
    35    16    34    1
