@<TRIPOS>MOLECULE
NuBBE_1991
 74 77 0 0 0
SMALL
GASTEIGER

@<TRIPOS>ATOM
      1 C          -1.7699   -0.0221    0.8748 C.3     1  LIG1       -0.0590
      2 C          -0.3734   -0.1060    0.1815 C.3     1  LIG1       -0.0259
      3 C           0.4736   -1.3199    0.6258 C.3     1  LIG1       -0.0320
      4 H           1.3780   -1.3344   -0.0006 H       1  LIG1        0.0309
      5 C           1.0551   -1.2896    2.0439 C.3     1  LIG1       -0.0307
      6 H           1.8591   -2.0464    2.0168 H       1  LIG1        0.0309
      7 C           1.8030    0.0531    2.3097 C.3     1  LIG1       -0.0285
      8 H           2.8576   -0.2699    2.2608 H       1  LIG1        0.0312
      9 C           1.7240    1.0498    1.1196 C.3     1  LIG1       -0.0486
     10 C           0.3238    1.2224    0.5301 C.3     1  LIG1       -0.0468
     11 C           1.6831    0.6985    3.7467 C.3     1  LIG1       -0.0078
     12 C           3.0979    1.2693    4.0680 C.3     1  LIG1       -0.0556
     13 C           1.2500   -0.3085    4.8105 C.2     1  LIG1       -0.0648
     14 C           0.5922   -1.4388    4.5251 C.2     1  LIG1       -0.0839
     15 C           0.1472   -1.8105    3.1495 C.3     1  LIG1       -0.0311
     16 C           1.3019    0.1863    6.2375 C.3     1  LIG1       -0.0051
     17 C           0.3386    1.3756    6.3728 C.3     1  LIG1        0.0590
     18 H          -0.6916    1.0015    6.3225 H       1  LIG1        0.0596
     19 C           0.5237    2.4349    5.2765 C.3     1  LIG1       -0.0258
     20 C           0.6408    1.8439    3.8578 C.3     1  LIG1       -0.0413
     21 O           0.4930    1.9876    7.6521 O.3     1  LIG1       -0.3915
     22 C          -0.3326   -2.5210    0.1514 C.3     1  LIG1       -0.0492
     23 C          -0.9763   -2.0326   -1.1650 C.3     1  LIG1       -0.0492
     24 C          -0.6124   -0.5128   -1.3327 C.3     1  LIG1       -0.0328
     25 H          -1.4840    0.0290   -1.7202 H       1  LIG1        0.0309
     26 C           0.5557   -0.3468   -2.3841 C.3     1  LIG1       -0.0405
     27 H           1.4019   -0.9581   -2.0473 H       1  LIG1        0.0301
     28 C           0.2227   -0.8821   -3.8134 C.3     1  LIG1       -0.0502
     29 C          -0.8604   -0.1145   -4.5879 C.3     1  LIG1       -0.0526
     30 C          -1.0880   -0.7217   -5.9860 C.3     1  LIG1       -0.0507
     31 C          -2.1532    0.0117   -6.8312 C.3     1  LIG1       -0.0467
     32 C          -2.3081   -0.6516   -8.2055 C.3     1  LIG1       -0.0627
     33 C          -3.5142    0.0484   -6.1356 C.3     1  LIG1       -0.0627
     34 C           1.0882    1.0821   -2.5354 C.3     1  LIG1       -0.0621
     35 H          -1.6803    0.2132    1.9399 H       1  LIG1        0.0235
     36 H          -2.3631   -0.9368    0.8028 H       1  LIG1        0.0235
     37 H          -2.3665    0.7791    0.4213 H       1  LIG1        0.0235
     38 H           2.3928    0.6867    0.3288 H       1  LIG1        0.0268
     39 H           2.1271    2.0292    1.3976 H       1  LIG1        0.0268
     40 H           0.3315    1.9110   -0.3144 H       1  LIG1        0.0271
     41 H          -0.2638    1.7747    1.2728 H       1  LIG1        0.0271
     42 H           3.8434    0.4665    4.1225 H       1  LIG1        0.0238
     43 H           3.1502    1.8096    5.0168 H       1  LIG1        0.0238
     44 H           3.4237    1.9743    3.2951 H       1  LIG1        0.0238
     45 H           0.2113   -2.0671    5.3304 H       1  LIG1        0.0572
     46 H          -0.8843   -1.4720    3.0292 H       1  LIG1        0.0310
     47 H           0.1119   -2.9060    3.0863 H       1  LIG1        0.0310
     48 H           2.3209    0.4587    6.5310 H       1  LIG1        0.0335
     49 H           1.0085   -0.5936    6.9521 H       1  LIG1        0.0335
     50 H           1.4021    3.0528    5.4987 H       1  LIG1        0.0290
     51 H          -0.3217    3.1341    5.3090 H       1  LIG1        0.0290
     52 H           0.8876    2.6665    3.1776 H       1  LIG1        0.0274
     53 H          -0.3483    1.4715    3.5628 H       1  LIG1        0.0274
     54 H           1.3988    2.3371    7.7071 H       1  LIG1        0.2098
     55 H          -1.1077   -2.8185    0.8655 H       1  LIG1        0.0268
     56 H           0.3070   -3.3935   -0.0171 H       1  LIG1        0.0268
     57 H          -2.0652   -2.1528   -1.1087 H       1  LIG1        0.0268
     58 H          -0.6437   -2.6657   -1.9880 H       1  LIG1        0.0268
     59 H          -0.0485   -1.9406   -3.7741 H       1  LIG1        0.0268
     60 H           1.1512   -0.8545   -4.4012 H       1  LIG1        0.0268
     61 H          -0.5716    0.9362   -4.7014 H       1  LIG1        0.0265
     62 H          -1.7919   -0.1428   -4.0161 H       1  LIG1        0.0265
     63 H          -1.3778   -1.7740   -5.8729 H       1  LIG1        0.0268
     64 H          -0.1375   -0.7173   -6.5362 H       1  LIG1        0.0268
     65 H          -1.8241    1.0453   -6.9982 H       1  LIG1        0.0295
     66 H          -2.5717   -1.7107   -8.1118 H       1  LIG1        0.0232
     67 H          -1.3824   -0.5793   -8.7855 H       1  LIG1        0.0232
     68 H          -3.0985   -0.1623   -8.7871 H       1  LIG1        0.0232
     69 H          -3.8098   -0.9496   -5.7954 H       1  LIG1        0.0232
     70 H          -4.2930    0.4198   -6.8105 H       1  LIG1        0.0232
     71 H          -3.4935    0.7166   -5.2695 H       1  LIG1        0.0232
     72 H           1.6815    1.1923   -3.4501 H       1  LIG1        0.0233
     73 H           1.7711    1.3399   -1.7246 H       1  LIG1        0.0233
     74 H           0.2768    1.8152   -2.5730 H       1  LIG1        0.0233
@<TRIPOS>BOND
     1     2     3    1
     2     3     5    1
     3     5     7    1
     4     7     9    1
     5     9    10    1
     6     2    10    1
     7     7    11    1
     8    11    13    1
     9    13    14    2
    10    14    15    1
    11     5    15    1
    12    13    16    1
    13    16    17    1
    14    17    19    1
    15    19    20    1
    16    11    20    1
    17     3    22    1
    18    22    23    1
    19    23    24    1
    20     2    24    1
    21    26    27    1
    22    26    28    1
    23    28    29    1
    24    29    30    1
    25    30    31    1
    26    31    32    1
    27    31    33    1
    28    26    34    1
    29     1     2    1
    30     3     4    1
    31     5     6    1
    32     7     8    1
    33    11    12    1
    34    17    21    1
    35    17    18    1
    36    24    26    1
    37    24    25    1
    38     1    35    1
    39     1    36    1
    40     1    37    1
    41     9    38    1
    42     9    39    1
    43    10    40    1
    44    10    41    1
    45    12    42    1
    46    12    43    1
    47    12    44    1
    48    14    45    1
    49    15    46    1
    50    15    47    1
    51    16    48    1
    52    16    49    1
    53    19    50    1
    54    19    51    1
    55    20    52    1
    56    20    53    1
    57    21    54    1
    58    22    55    1
    59    22    56    1
    60    23    57    1
    61    23    58    1
    62    28    59    1
    63    28    60    1
    64    29    61    1
    65    29    62    1
    66    30    63    1
    67    30    64    1
    68    31    65    1
    69    32    66    1
    70    32    67    1
    71    32    68    1
    72    33    69    1
    73    33    70    1
    74    33    71    1
    75    34    72    1
    76    34    73    1
    77    34    74    1
