@<TRIPOS>MOLECULE
NuBBE_1584
 46 50 0 0 0
SMALL
GASTEIGER

@<TRIPOS>ATOM
      1 O           2.1565   -4.8331    2.7850 O.3     1  LIG1       -0.4914
      2 C           3.3824   -5.5554    2.7557 C.3     1  LIG1        0.0790
      3 C           2.2550   -3.4661    2.7654 C.ar    1  LIG1        0.1616
      4 C           1.1769   -2.8238    2.1322 C.ar    1  LIG1       -0.0107
      5 C           1.0910   -1.4222    2.0649 C.ar    1  LIG1       -0.0149
      6 C           2.1199   -0.6722    2.6517 C.ar    1  LIG1       -0.0524
      7 C           3.1887   -1.2972    3.2977 C.ar    1  LIG1       -0.0162
      8 C           3.2554   -2.6897    3.3579 C.ar    1  LIG1        0.1585
      9 O           4.2964   -3.2626    4.0333 O.3     1  LIG1       -0.5033
     10 C          -0.0914   -0.7549    1.3800 C.3     1  LIG1        0.0891
     11 H          -0.9869   -1.3612    1.5625 H       1  LIG1        0.0650
     12 C           0.1399   -0.5040   -0.1168 C.3     1  LIG1        0.0205
     13 H           1.1888   -0.6532   -0.3960 H       1  LIG1        0.0356
     14 C          -0.3236    0.9158   -0.3295 C.3     1  LIG1        0.0205
     15 H           0.2535    1.4279   -1.1080 H       1  LIG1        0.0356
     16 C          -0.1163    1.5548    1.0200 C.3     1  LIG1        0.0544
     17 O          -0.3487    0.5302    1.9893 O.3     1  LIG1       -0.3712
     18 C          -1.8061    0.7875   -0.7107 C.3     1  LIG1        0.0891
     19 H          -2.4742    1.0253    0.1255 H       1  LIG1        0.0650
     20 O          -2.0344   -0.6024   -1.0258 O.3     1  LIG1       -0.3712
     21 C          -0.7811   -1.2918   -1.0171 C.3     1  LIG1        0.0544
     22 C          -2.1824    1.6964   -1.8718 C.ar    1  LIG1       -0.0149
     23 C          -2.0339    3.0943   -1.7395 C.ar    1  LIG1       -0.0105
     24 C          -2.3610    3.8963   -2.8131 C.ar    1  LIG1        0.1666
     25 C          -2.8381    3.3802   -3.9895 C.ar    1  LIG1        0.1662
     26 C          -3.0227    2.0224   -4.1574 C.ar    1  LIG1       -0.0158
     27 C          -2.6938    1.1835   -3.0863 C.ar    1  LIG1       -0.0524
     28 O          -3.0957    4.3386   -4.9155 O.3     1  LIG1       -0.4526
     29 C          -2.7269    5.5214   -4.1882 C.3     1  LIG1        0.2332
     30 O          -2.2523    5.2555   -2.8532 O.3     1  LIG1       -0.4526
     31 H           3.1400   -6.6029    2.5482 H       1  LIG1        0.0660
     32 H           3.8886   -5.5411    3.7247 H       1  LIG1        0.0660
     33 H           4.0364   -5.2010    1.9516 H       1  LIG1        0.0660
     34 H           0.3910   -3.4398    1.6988 H       1  LIG1        0.0659
     35 H           2.0850    0.4142    2.6387 H       1  LIG1        0.0622
     36 H           3.9484   -0.6769    3.7642 H       1  LIG1        0.0655
     37 H           4.8265   -2.5639    4.4501 H       1  LIG1        0.2923
     38 H          -0.7801    2.4005    1.2184 H       1  LIG1        0.0564
     39 H           0.9173    1.8995    1.1326 H       1  LIG1        0.0564
     40 H          -0.4071   -1.3034   -2.0471 H       1  LIG1        0.0564
     41 H          -0.9324   -2.3258   -0.6948 H       1  LIG1        0.0564
     42 H          -1.6695    3.5435   -0.8266 H       1  LIG1        0.0659
     43 H          -3.4100    1.6207   -5.0878 H       1  LIG1        0.0655
     44 H          -2.8392    0.1076   -3.2062 H       1  LIG1        0.0622
     45 H          -3.5977    6.1835   -4.1258 H       1  LIG1        0.1166
     46 H          -1.9321    6.0447   -4.7416 H       1  LIG1        0.1166
@<TRIPOS>BOND
     1     1     2    1
     2     1     3    1
     3     3     4   ar
     4     4     5   ar
     5     5     6   ar
     6     6     7   ar
     7     7     8   ar
     8     3     8   ar
     9     8     9    1
    10    10    12    1
    11    12    13    1
    12    12    14    1
    13    14    15    1
    14    14    16    1
    15    16    17    1
    16    10    17    1
    17    14    18    1
    18    18    19    1
    19    18    20    1
    20    20    21    1
    21    12    21    1
    22    18    22    1
    23    22    23   ar
    24    23    24   ar
    25    24    25   ar
    26    25    26   ar
    27    26    27   ar
    28    22    27   ar
    29    25    28    1
    30    28    29    1
    31    29    30    1
    32    24    30    1
    33    10    11    1
    34    10     5    1
    35     2    31    1
    36     2    32    1
    37     2    33    1
    38     4    34    1
    39     6    35    1
    40     7    36    1
    41     9    37    1
    42    16    38    1
    43    16    39    1
    44    21    40    1
    45    21    41    1
    46    23    42    1
    47    26    43    1
    48    27    44    1
    49    29    45    1
    50    29    46    1
