@<TRIPOS>MOLECULE
NuBBE_1648
 50 52 0 0 0
SMALL
GASTEIGER

@<TRIPOS>ATOM
      1 C          -1.3645   -1.4284   -3.6001 C.3     1  LIG1       -0.0613
      2 C          -1.3846   -1.5231   -2.0621 C.3     1  LIG1       -0.0302
      3 H          -2.4478   -1.5787   -1.7920 H       1  LIG1        0.0310
      4 C          -0.7463   -0.2408   -1.4493 C.3     1  LIG1        0.0124
      5 H          -0.9721    0.5929   -2.1322 H       1  LIG1        0.0400
      6 C           0.7816   -0.3017   -1.3889 C.ar    1  LIG1       -0.0331
      7 C           1.4789   -1.5216   -1.4569 C.ar    1  LIG1       -0.0431
      8 C           0.8018   -2.8176   -1.8211 C.3     1  LIG1       -0.0245
      9 C          -0.7147   -2.8361   -1.5979 C.3     1  LIG1       -0.0365
     10 H          -1.1219   -3.6566   -2.2057 H       1  LIG1        0.0304
     11 C          -1.0503   -3.2052   -0.1503 C.3     1  LIG1       -0.0618
     12 C           2.8678   -1.5357   -1.2467 C.ar    1  LIG1       -0.0548
     13 C           3.5693   -0.3630   -0.9693 C.ar    1  LIG1       -0.0190
     14 C           2.8926    0.8500   -0.9607 C.ar    1  LIG1        0.1319
     15 C           1.5119    0.8867   -1.1666 C.ar    1  LIG1       -0.0152
     16 O           3.5111    2.0815   -0.6578 O.3     1  LIG1       -0.4260
     17 C           4.8460    2.3401   -0.9744 C.2     1  LIG1        0.3092
     18 O           5.6301    1.5852   -1.5391 O.2     1  LIG1       -0.2507
     19 C           5.2225    3.7080   -0.4939 C.3     1  LIG1        0.0336
     20 C          -1.4107    0.1695   -0.1213 C.ar    1  LIG1       -0.0395
     21 C          -0.6903    0.2262    1.0819 C.ar    1  LIG1       -0.0545
     22 C          -1.2682    0.7106    2.2527 C.ar    1  LIG1       -0.0190
     23 C          -2.6067    1.0835    2.2612 C.ar    1  LIG1        0.1316
     24 C          -3.3568    1.0190    1.0884 C.ar    1  LIG1       -0.0190
     25 C          -2.7598    0.5710   -0.0988 C.ar    1  LIG1       -0.0545
     26 O          -3.2438    1.6118    3.4027 O.3     1  LIG1       -0.4260
     27 C          -2.8078    1.2967    4.6918 C.2     1  LIG1        0.3092
     28 O          -1.9568    0.4756    5.0073 O.2     1  LIG1       -0.2507
     29 C          -3.5914    2.0853    5.6955 C.3     1  LIG1        0.0336
     30 H          -0.3510   -1.3043   -3.9937 H       1  LIG1        0.0233
     31 H          -1.9611   -0.5736   -3.9374 H       1  LIG1        0.0233
     32 H          -1.7972   -2.3274   -4.0518 H       1  LIG1        0.0233
     33 H           1.2629   -3.6457   -1.2678 H       1  LIG1        0.0316
     34 H           1.0080   -3.0010   -2.8841 H       1  LIG1        0.0316
     35 H          -0.5257   -2.5791    0.5751 H       1  LIG1        0.0233
     36 H          -0.7569   -4.2428    0.0477 H       1  LIG1        0.0233
     37 H          -2.1270   -3.1317    0.0354 H       1  LIG1        0.0233
     38 H           3.4175   -2.4750   -1.2886 H       1  LIG1        0.0622
     39 H           4.6332   -0.4247   -0.7685 H       1  LIG1        0.0654
     40 H           0.9896    1.8392   -1.0992 H       1  LIG1        0.0657
     41 H           4.3341    4.3236   -0.3251 H       1  LIG1        0.0342
     42 H           5.8268    4.1985   -1.2622 H       1  LIG1        0.0342
     43 H           5.7908    3.6261    0.4356 H       1  LIG1        0.0342
     44 H           0.3494   -0.0844    1.1362 H       1  LIG1        0.0622
     45 H          -0.6405    0.7913    3.1352 H       1  LIG1        0.0654
     46 H          -4.3989    1.3294    1.0854 H       1  LIG1        0.0654
     47 H          -3.3534    0.5511   -1.0091 H       1  LIG1        0.0622
     48 H          -3.9506    3.0216    5.2607 H       1  LIG1        0.0342
     49 H          -2.9357    2.3385    6.5341 H       1  LIG1        0.0342
     50 H          -4.4334    1.4851    6.0459 H       1  LIG1        0.0342
@<TRIPOS>BOND
     1     2     4    1
     2     4     5    1
     3     4     6    1
     4     6     7   ar
     5     7     8    1
     6     8     9    1
     7     2     9    1
     8     7    12   ar
     9    12    13   ar
    10    13    14   ar
    11    14    15   ar
    12     6    15   ar
    13    14    16    1
    14    16    17    1
    15    17    18    2
    16    17    19    1
    17     4    20    1
    18    20    21   ar
    19    21    22   ar
    20    22    23   ar
    21    23    24   ar
    22    24    25   ar
    23    20    25   ar
    24    23    26    1
    25    26    27    1
    26    27    28    2
    27    27    29    1
    28     9    11    1
    29     9    10    1
    30     2     3    1
    31     2     1    1
    32     1    30    1
    33     1    31    1
    34     1    32    1
    35     8    33    1
    36     8    34    1
    37    11    35    1
    38    11    36    1
    39    11    37    1
    40    12    38    1
    41    13    39    1
    42    15    40    1
    43    19    41    1
    44    19    42    1
    45    19    43    1
    46    21    44    1
    47    22    45    1
    48    24    46    1
    49    25    47    1
    50    29    48    1
    51    29    49    1
    52    29    50    1
