@<TRIPOS>MOLECULE
NuBBE_444
 81 83 0 0 0
SMALL
GASTEIGER

@<TRIPOS>ATOM
      1 H          -4.2602   -0.2111    1.4789 H       1  LIG1        0.0357
      2 C          -3.5156   -0.0115    0.6987 C.3     1  LIG1        0.0039
      3 C          -2.1146   -0.3504    1.2379 C.3     1  LIG1        0.0269
      4 C          -1.0444    0.3727    0.3839 C.3     1  LIG1        0.1703
      5 H          -1.1549    0.1827   -0.6904 H       1  LIG1        0.0915
      6 O          -1.2190    1.7575    0.6590 O.3     1  LIG1       -0.3112
      7 C          -2.4385    2.2851    0.1253 C.3     1  LIG1        0.2205
      8 H          -2.2498    2.4224   -0.9459 H       1  LIG1        0.1066
      9 C          -3.7112    1.4549    0.3337 C.3     1  LIG1        0.1251
     10 H          -4.2658    1.8729    1.1765 H       1  LIG1        0.0481
     11 C          -4.6400    1.6419   -0.8352 C.2     1  LIG1        0.3145
     12 O          -5.8395    2.1374   -0.4703 O.3     1  LIG1       -0.4803
     13 O          -4.4134    1.3664   -2.0020 O.2     1  LIG1       -0.2505
     14 O          -2.5910    3.6266    0.6413 O.3     1  LIG1       -0.4343
     15 C          -2.6391    3.7385    1.9987 C.2     1  LIG1        0.3061
     16 C          -1.6637    4.7678    2.4553 C.3     1  LIG1        0.0333
     17 O          -3.3102    3.0507    2.7610 O.2     1  LIG1       -0.2511
     18 O           0.2483   -0.0685    0.7903 O.3     1  LIG1       -0.3185
     19 C           1.3604    0.5807    0.1478 C.3     1  LIG1        0.2031
     20 H           1.2825    1.6646    0.3168 H       1  LIG1        0.0951
     21 O           1.3545    0.3403   -1.2654 O.3     1  LIG1       -0.3372
     22 C           2.5894    0.6501   -1.9609 C.3     1  LIG1        0.1361
     23 H           2.8034    1.7146   -1.8197 H       1  LIG1        0.0670
     24 C           3.7743   -0.2297   -1.4467 C.3     1  LIG1        0.1726
     25 H           3.9630   -1.0187   -2.1838 H       1  LIG1        0.0801
     26 C           3.4477   -0.9047   -0.0859 C.3     1  LIG1        0.1836
     27 H           4.3828   -1.1513    0.4366 H       1  LIG1        0.0812
     28 O           2.6940   -2.1349   -0.2875 O.3     1  LIG1       -0.4537
     29 C           3.3610   -3.2170   -0.7794 C.2     1  LIG1        0.3044
     30 C           2.4043   -4.3459   -1.0435 C.3     1  LIG1        0.0332
     31 O           4.5548   -3.2529   -1.0466 O.2     1  LIG1       -0.2512
     32 O           5.0911    0.4150   -1.2889 O.3     1  LIG1       -0.4549
     33 C           5.5720    1.2231   -2.2577 C.2     1  LIG1        0.3044
     34 C           7.0663    1.1301   -2.4163 C.3     1  LIG1        0.0332
     35 O           4.8779    1.9099   -2.9893 O.2     1  LIG1       -0.2512
     36 C           2.3079    0.4249   -3.4921 C.3     1  LIG1        0.1222
     37 O           1.8000   -0.9116   -3.7011 O.3     1  LIG1       -0.4621
     38 C           0.7045   -1.0066   -4.5115 C.2     1  LIG1        0.3040
     39 C          -0.2448   -2.0163   -3.9369 C.3     1  LIG1        0.0332
     40 O           0.4909   -0.3442   -5.5159 O.2     1  LIG1       -0.2512
     41 C           2.6320    0.0226    0.8506 C.3     1  LIG1        0.1937
     42 H           2.3469   -0.5567    1.7407 H       1  LIG1        0.0825
     43 O           3.4580    1.1415    1.2723 O.3     1  LIG1       -0.4525
     44 C           2.9823    1.8605    2.3420 C.2     1  LIG1        0.3045
     45 C           3.5637    3.2456    2.2897 C.3     1  LIG1        0.0332
     46 O           2.1231    1.5072    3.1123 O.2     1  LIG1       -0.2512
     47 H          -2.0059   -0.0002    2.2732 H       1  LIG1        0.0362
     48 C          -3.7172   -1.1171   -0.3046 C.2     1  LIG1       -0.0830
     49 C          -2.9526   -2.1725    0.0025 C.2     1  LIG1       -0.0809
     50 C          -2.0729   -1.8906    1.1909 C.3     1  LIG1        0.0194
     51 H          -1.0588   -2.2587    0.9990 H       1  LIG1        0.0380
     52 C          -2.6007   -2.5626    2.4844 C.3     1  LIG1        0.0991
     53 O          -3.8621   -2.0684    2.9877 O.3     1  LIG1       -0.4642
     54 C          -4.8758   -2.9733    3.0929 C.2     1  LIG1        0.3040
     55 C          -5.9115   -2.5197    4.0857 C.3     1  LIG1        0.0332
     56 O          -4.9086   -4.0698    2.5489 O.2     1  LIG1       -0.2512
     57 H          -6.3726    2.1642   -1.2917 H       1  LIG1        0.2951
     58 H          -0.6705    4.3104    2.4758 H       1  LIG1        0.0342
     59 H          -1.9309    5.1111    3.4574 H       1  LIG1        0.0342
     60 H          -1.6761    5.6228    1.7780 H       1  LIG1        0.0342
     61 H           1.5946   -4.3418   -0.3088 H       1  LIG1        0.0342
     62 H           2.9228   -5.3063   -0.9596 H       1  LIG1        0.0342
     63 H           1.9916   -4.2404   -2.0502 H       1  LIG1        0.0342
     64 H           7.5659    0.8351   -1.4863 H       1  LIG1        0.0342
     65 H           7.4550    2.1053   -2.7195 H       1  LIG1        0.0342
     66 H           7.2634    0.3910   -3.1970 H       1  LIG1        0.0342
     67 H           1.5622    1.1565   -3.8273 H       1  LIG1        0.0725
     68 H           3.2083    0.5491   -4.1018 H       1  LIG1        0.0725
     69 H          -0.0239   -3.0182   -4.3066 H       1  LIG1        0.0342
     70 H          -1.2730   -1.7380   -4.1876 H       1  LIG1        0.0342
     71 H          -0.1647   -1.9899   -2.8453 H       1  LIG1        0.0342
     72 H           3.5175    3.7162    3.2746 H       1  LIG1        0.0342
     73 H           2.9823    3.8371    1.5756 H       1  LIG1        0.0342
     74 H           4.6073    3.2055    1.9739 H       1  LIG1        0.0342
     75 H          -4.4875   -1.1396   -1.0654 H       1  LIG1        0.0572
     76 H          -3.0117   -3.1364   -0.4867 H       1  LIG1        0.0573
     77 H          -1.8876   -2.3504    3.2887 H       1  LIG1        0.0703
     78 H          -2.6191   -3.6502    2.3611 H       1  LIG1        0.0703
     79 H          -5.8322   -1.4481    4.2847 H       1  LIG1        0.0342
     80 H          -5.7610   -3.0638    5.0240 H       1  LIG1        0.0342
     81 H          -6.9152   -2.7248    3.7028 H       1  LIG1        0.0342
@<TRIPOS>BOND
     1     1     2    1
     2     2     3    1
     3     3     4    1
     4     4     5    1
     5     4     6    1
     6     6     7    1
     7     7     9    1
     8     9    10    1
     9     9    11    1
    10    11    12    1
    11    11    13    2
    12    14    15    1
    13    15    16    1
    14    15    17    2
    15     4    18    1
    16    18    19    1
    17    19    20    1
    18    19    21    1
    19    21    22    1
    20    22    24    1
    21    24    25    1
    22    24    26    1
    23    28    29    1
    24    29    30    1
    25    29    31    2
    26    24    32    1
    27    32    33    1
    28    33    34    1
    29    33    35    2
    30    36    37    1
    31    37    38    1
    32    38    39    1
    33    38    40    2
    34    19    41    1
    35    26    41    1
    36    43    44    1
    37    44    45    1
    38    44    46    2
    39     3    47    1
    40     9     2    1
    41     2    48    1
    42    48    49    2
    43    49    50    1
    44    50    51    1
    45     3    50    1
    46    50    52    1
    47    52    53    1
    48    53    54    1
    49    54    55    1
    50    54    56    2
    51     7    14    1
    52     7     8    1
    53    22    36    1
    54    22    23    1
    55    26    28    1
    56    26    27    1
    57    41    43    1
    58    41    42    1
    59    12    57    1
    60    16    58    1
    61    16    59    1
    62    16    60    1
    63    30    61    1
    64    30    62    1
    65    30    63    1
    66    34    64    1
    67    34    65    1
    68    34    66    1
    69    36    67    1
    70    36    68    1
    71    39    69    1
    72    39    70    1
    73    39    71    1
    74    45    72    1
    75    45    73    1
    76    45    74    1
    77    48    75    1
    78    49    76    1
    79    52    77    1
    80    52    78    1
    81    55    79    1
    82    55    80    1
    83    55    81    1
