@<TRIPOS>MOLECULE
NuBBE_1607
 102 107 0 0 0
SMALL
GASTEIGER

@<TRIPOS>ATOM
      1 C           4.6346    2.0921    1.0973 C.3     1  LIG1       -0.0588
      2 C           3.8844    1.2017    0.0845 C.3     1  LIG1       -0.0231
      3 C           2.3552    1.5828    0.0733 C.3     1  LIG1       -0.0289
      4 H           1.8869    0.9897   -0.7184 H       1  LIG1        0.0312
      5 C           1.6680    1.1560    1.3671 C.3     1  LIG1       -0.0194
      6 C           0.2556    1.7142    1.6437 C.3     1  LIG1       -0.0196
      7 C           1.4334    2.0998    2.5262 C.3     1  LIG1       -0.0401
      8 C          -0.3526    2.8330    0.7837 C.3     1  LIG1       -0.0299
      9 H          -0.3726    3.7356    1.4118 H       1  LIG1        0.0310
     10 C           0.4968    3.1654   -0.4670 C.3     1  LIG1       -0.0491
     11 C           2.0112    3.0390   -0.2776 C.3     1  LIG1       -0.0489
     12 C          -1.8381    2.5163    0.3796 C.3     1  LIG1       -0.0141
     13 H          -1.8477    1.6410   -0.2854 H       1  LIG1        0.0326
     14 C          -2.4562    3.6864   -0.4105 C.3     1  LIG1       -0.0598
     15 C          -2.7384    2.1994    1.6140 C.3     1  LIG1        0.0646
     16 H          -2.9773    3.1673    2.0656 H       1  LIG1        0.0600
     17 C          -2.0346    1.3299    2.6553 C.3     1  LIG1       -0.0257
     18 C          -0.7410    0.7205    2.1920 C.3     1  LIG1       -0.0442
     19 O          -3.9857    1.6071    1.1777 O.3     1  LIG1       -0.3452
     20 C          -4.9519    1.2725    2.2008 C.3     1  LIG1        0.1882
     21 H          -4.5448    0.4651    2.8141 H       1  LIG1        0.0937
     22 O          -6.1149    0.7162    1.5492 O.3     1  LIG1       -0.3405
     23 C          -7.1125    0.2573    2.4827 C.3     1  LIG1        0.1130
     24 H          -6.6594   -0.4624    3.1787 H       1  LIG1        0.0647
     25 C          -8.2029   -0.4934    1.7075 C.3     1  LIG1        0.0730
     26 O          -8.8063    0.3467    0.7286 O.3     1  LIG1       -0.3924
     27 C          -7.6763    1.4589    3.2524 C.3     1  LIG1        0.1119
     28 H          -8.1371    2.1801    2.5672 H       1  LIG1        0.0647
     29 C          -6.5322    2.1376    3.9970 C.3     1  LIG1        0.1141
     30 H          -6.1965    1.4919    4.8196 H       1  LIG1        0.0648
     31 C          -5.3495    2.4756    3.0924 C.3     1  LIG1        0.1341
     32 H          -5.5768    3.3411    2.4601 H       1  LIG1        0.0671
     33 O          -4.2876    2.8763    3.9794 O.3     1  LIG1       -0.3841
     34 O          -6.9818    3.3442    4.6365 O.3     1  LIG1       -0.3864
     35 O          -8.6753    1.0940    4.2135 O.3     1  LIG1       -0.3865
     36 C           1.8656   -0.3112    1.6705 C.3     1  LIG1       -0.0460
     37 C           3.2970   -0.7919    1.5752 C.3     1  LIG1       -0.0463
     38 C           4.0750   -0.3516    0.3329 C.3     1  LIG1       -0.0233
     39 C           5.5650   -0.7164    0.6555 C.3     1  LIG1       -0.0588
     40 C           3.7720   -1.0395   -1.0704 C.3     1  LIG1       -0.0325
     41 H           4.5140   -1.8386   -1.1978 H       1  LIG1        0.0309
     42 C           4.1348    0.0892   -2.0851 C.3     1  LIG1       -0.0489
     43 C           4.5258    1.3464   -1.3064 C.3     1  LIG1       -0.0466
     44 C           2.4080   -1.7198   -1.4638 C.3     1  LIG1       -0.0402
     45 H           1.6315   -0.9471   -1.4476 H       1  LIG1        0.0301
     46 C           2.4127   -2.2834   -2.9318 C.3     1  LIG1       -0.0465
     47 C           3.2998   -3.5228   -3.1653 C.3     1  LIG1       -0.0315
     48 C           3.2553   -4.0063   -4.6016 C.2     1  LIG1       -0.0740
     49 C           4.1853   -3.5540   -5.4833 C.2     1  LIG1       -0.0992
     50 C           2.1443   -4.9823   -4.9717 C.3     1  LIG1       -0.0258
     51 C           1.6659   -4.8600   -6.4241 C.3     1  LIG1       -0.0590
     52 C           2.5364   -6.4382   -4.6836 C.3     1  LIG1       -0.0590
     53 C           1.9247   -2.8672   -0.5649 C.3     1  LIG1       -0.0621
     54 H           4.2822    1.9305    2.1207 H       1  LIG1        0.0235
     55 H           4.5111    3.1545    0.8646 H       1  LIG1        0.0235
     56 H           5.7135    1.9071    1.0919 H       1  LIG1        0.0235
     57 H           1.4782    1.7058    3.5374 H       1  LIG1        0.0276
     58 H           1.8187    3.1125    2.4833 H       1  LIG1        0.0276
     59 H           0.2772    4.1901   -0.7921 H       1  LIG1        0.0268
     60 H           0.2024    2.5101   -1.2973 H       1  LIG1        0.0268
     61 H           2.3516    3.7469    0.4843 H       1  LIG1        0.0268
     62 H           2.4945    3.3356   -1.2136 H       1  LIG1        0.0268
     63 H          -1.9648    3.8223   -1.3794 H       1  LIG1        0.0233
     64 H          -2.3617    4.6258    0.1466 H       1  LIG1        0.0233
     65 H          -3.5191    3.5201   -0.6109 H       1  LIG1        0.0233
     66 H          -2.6431    0.4866    2.9842 H       1  LIG1        0.0290
     67 H          -1.8416    1.9369    3.5466 H       1  LIG1        0.0290
     68 H          -0.9431   -0.0437    1.4322 H       1  LIG1        0.0272
     69 H          -0.3326    0.2017    3.0669 H       1  LIG1        0.0272
     70 H          -8.9848   -0.8630    2.3793 H       1  LIG1        0.0584
     71 H          -7.7734   -1.3517    1.1805 H       1  LIG1        0.0584
     72 H          -8.0719    0.6954    0.1881 H       1  LIG1        0.2095
     73 H          -4.6798    3.5702    4.5473 H       1  LIG1        0.2101
     74 H          -7.8981    3.1729    4.9330 H       1  LIG1        0.2100
     75 H          -8.2858    0.4895    4.8692 H       1  LIG1        0.2100
     76 H           1.2085   -0.8462    0.9882 H       1  LIG1        0.0271
     77 H           1.5319   -0.5628    2.6833 H       1  LIG1        0.0271
     78 H           3.3404   -1.8807    1.6903 H       1  LIG1        0.0271
     79 H           3.8101   -0.4007    2.4660 H       1  LIG1        0.0271
     80 H           5.9094   -0.2625    1.5905 H       1  LIG1        0.0235
     81 H           6.2561   -0.4131   -0.1366 H       1  LIG1        0.0235
     82 H           5.6729   -1.8017    0.7764 H       1  LIG1        0.0235
     83 H           3.2924    0.3430   -2.7356 H       1  LIG1        0.0268
     84 H           4.9629   -0.2261   -2.7310 H       1  LIG1        0.0268
     85 H           4.2220    2.2511   -1.8392 H       1  LIG1        0.0271
     86 H           5.6191    1.4016   -1.2326 H       1  LIG1        0.0271
     87 H           2.6955   -1.4989   -3.6423 H       1  LIG1        0.0271
     88 H           1.3778   -2.5439   -3.1944 H       1  LIG1        0.0271
     89 H           2.9896   -4.3547   -2.5256 H       1  LIG1        0.0310
     90 H           4.3355   -3.2973   -2.8828 H       1  LIG1        0.0310
     91 H           4.9459   -2.8484   -5.1805 H       1  LIG1        0.0534
     92 H           4.2036   -3.8700   -6.5160 H       1  LIG1        0.0534
     93 H           1.2760   -4.7480   -4.3419 H       1  LIG1        0.0340
     94 H           2.4677   -5.0638   -7.1423 H       1  LIG1        0.0235
     95 H           1.2804   -3.8533   -6.6155 H       1  LIG1        0.0235
     96 H           0.8620   -5.5730   -6.6308 H       1  LIG1        0.0235
     97 H           3.3489   -6.7747   -5.3373 H       1  LIG1        0.0235
     98 H           1.6806   -7.1030   -4.8524 H       1  LIG1        0.0235
     99 H           2.8555   -6.5766   -3.6454 H       1  LIG1        0.0235
    100 H           0.9528   -3.2281   -0.9263 H       1  LIG1        0.0233
    101 H           1.7623   -2.6019    0.4714 H       1  LIG1        0.0233
    102 H           2.6212   -3.7068   -0.5498 H       1  LIG1        0.0233
@<TRIPOS>BOND
     1     1     2    1
     2     2     3    1
     3     3     4    1
     4     3     5    1
     5     5     6    1
     6     6     7    1
     7     5     7    1
     8     6     8    1
     9     8     9    1
    10     8    10    1
    11    10    11    1
    12     3    11    1
    13     8    12    1
    14    12    13    1
    15    12    14    1
    16    12    15    1
    17    15    17    1
    18    17    18    1
    19     6    18    1
    20    20    22    1
    21    22    23    1
    22    23    24    1
    23    23    25    1
    24    25    26    1
    25    23    27    1
    26    27    29    1
    27    29    30    1
    28    29    31    1
    29    20    31    1
    30    29    34    1
    31     5    36    1
    32    36    37    1
    33    37    38    1
    34     2    38    1
    35    38    39    1
    36    38    40    1
    37    40    42    1
    38    42    43    1
    39     2    43    1
    40    44    45    1
    41    44    46    1
    42    46    47    1
    43    47    48    1
    44    48    49    2
    45    48    50    1
    46    50    51    1
    47    50    52    1
    48    44    53    1
    49    15    19    1
    50    15    16    1
    51    20    21    1
    52    20    19    1
    53    27    35    1
    54    27    28    1
    55    31    33    1
    56    31    32    1
    57    40    44    1
    58    40    41    1
    59     1    54    1
    60     1    55    1
    61     1    56    1
    62     7    57    1
    63     7    58    1
    64    10    59    1
    65    10    60    1
    66    11    61    1
    67    11    62    1
    68    14    63    1
    69    14    64    1
    70    14    65    1
    71    17    66    1
    72    17    67    1
    73    18    68    1
    74    18    69    1
    75    25    70    1
    76    25    71    1
    77    26    72    1
    78    33    73    1
    79    34    74    1
    80    35    75    1
    81    36    76    1
    82    36    77    1
    83    37    78    1
    84    37    79    1
    85    39    80    1
    86    39    81    1
    87    39    82    1
    88    42    83    1
    89    42    84    1
    90    43    85    1
    91    43    86    1
    92    46    87    1
    93    46    88    1
    94    47    89    1
    95    47    90    1
    96    49    91    1
    97    49    92    1
    98    50    93    1
    99    51    94    1
   100    51    95    1
   101    51    96    1
   102    52    97    1
   103    52    98    1
   104    52    99    1
   105    53   100    1
   106    53   101    1
   107    53   102    1
