@<TRIPOS>MOLECULE
NuBBE_1858
 46 47 0 0 0
SMALL
GASTEIGER

@<TRIPOS>ATOM
      1 O           0.2010    7.0014   -0.0256 O.3     1  LIG1       -0.5068
      2 C          -0.0707    5.7525   -0.5045 C.ar    1  LIG1        0.1169
      3 C          -1.3168    5.4496   -1.0500 C.ar    1  LIG1       -0.0199
      4 C          -1.5443    4.1660   -1.5527 C.ar    1  LIG1       -0.0551
      5 C           0.9273    4.7955   -0.4418 C.ar    1  LIG1       -0.0199
      6 C           0.7018    3.5141   -0.9504 C.ar    1  LIG1       -0.0551
      7 C          -0.5422    3.1894   -1.5172 C.ar    1  LIG1       -0.0471
      8 C          -0.8076    1.8230   -2.1026 C.3     1  LIG1       -0.0277
      9 C          -0.6649    0.6650   -1.1089 C.3     1  LIG1       -0.0490
     10 C          -1.6558    0.7340    0.0610 C.3     1  LIG1       -0.0504
     11 C          -1.5278   -0.4347    1.0544 C.3     1  LIG1       -0.0268
     12 C          -0.1622   -0.5374    1.7566 C.3     1  LIG1        0.0556
     13 H           0.6521   -0.5626    1.0324 H       1  LIG1        0.0593
     14 O           0.0476    0.6496    2.5217 O.3     1  LIG1       -0.3918
     15 C          -0.0412   -1.7493    2.6936 C.3     1  LIG1       -0.0229
     16 C          -0.2635   -3.1406    2.0810 C.3     1  LIG1       -0.0253
     17 C           0.6750   -3.6111    0.9895 C.ar    1  LIG1       -0.0471
     18 C           0.7845   -2.9173   -0.2270 C.ar    1  LIG1       -0.0551
     19 C           1.4884   -3.4412   -1.3097 C.ar    1  LIG1       -0.0199
     20 C           2.0658   -4.6880   -1.1962 C.ar    1  LIG1        0.1169
     21 O           2.6413   -5.2924   -2.2743 O.3     1  LIG1       -0.5068
     22 C           2.0241   -5.3819    0.0070 C.ar    1  LIG1       -0.0199
     23 C           1.3302   -4.8464    1.0975 C.ar    1  LIG1       -0.0551
     24 H          -0.5601    7.5728   -0.2053 H       1  LIG1        0.2921
     25 H          -2.1093    6.1843   -1.0905 H       1  LIG1        0.0654
     26 H          -2.5235    3.9361   -1.9760 H       1  LIG1        0.0621
     27 H           1.8915    5.0448    0.0005 H       1  LIG1        0.0654
     28 H           1.4955    2.7788   -0.9031 H       1  LIG1        0.0621
     29 H          -0.1060    1.6707   -2.9330 H       1  LIG1        0.0313
     30 H          -1.8097    1.7917   -2.5503 H       1  LIG1        0.0313
     31 H           0.3635    0.6430   -0.7355 H       1  LIG1        0.0268
     32 H          -0.8230   -0.2724   -1.6561 H       1  LIG1        0.0268
     33 H          -2.6764    0.7242   -0.3441 H       1  LIG1        0.0266
     34 H          -1.5436    1.6793    0.6015 H       1  LIG1        0.0266
     35 H          -1.7636   -1.3616    0.5216 H       1  LIG1        0.0290
     36 H          -2.3070   -0.3015    1.8159 H       1  LIG1        0.0290
     37 H           1.0014    0.7021    2.7099 H       1  LIG1        0.2098
     38 H          -0.7678   -1.6216    3.5091 H       1  LIG1        0.0293
     39 H           0.9401   -1.7208    3.1849 H       1  LIG1        0.0293
     40 H          -1.2877   -3.2253    1.6988 H       1  LIG1        0.0314
     41 H          -0.2160   -3.8615    2.9111 H       1  LIG1        0.0314
     42 H           0.2799   -1.9782   -0.3875 H       1  LIG1        0.0621
     43 H           1.5379   -2.8690   -2.2308 H       1  LIG1        0.0654
     44 H           2.2816   -4.8625   -3.0716 H       1  LIG1        0.2921
     45 H           2.4914   -6.3611    0.0822 H       1  LIG1        0.0654
     46 H           1.2689   -5.4293    2.0143 H       1  LIG1        0.0621
@<TRIPOS>BOND
     1     1     2    1
     2     2     3   ar
     3     3     4   ar
     4     2     5   ar
     5     5     6   ar
     6     6     7   ar
     7     4     7   ar
     8     7     8    1
     9     8     9    1
    10     9    10    1
    11    10    11    1
    12    11    12    1
    13    12    13    1
    14    12    14    1
    15    12    15    1
    16    15    16    1
    17    16    17    1
    18    17    18   ar
    19    18    19   ar
    20    19    20   ar
    21    20    21    1
    22    20    22   ar
    23    22    23   ar
    24    17    23   ar
    25     1    24    1
    26     3    25    1
    27     4    26    1
    28     5    27    1
    29     6    28    1
    30     8    29    1
    31     8    30    1
    32     9    31    1
    33     9    32    1
    34    10    33    1
    35    10    34    1
    36    11    35    1
    37    11    36    1
    38    14    37    1
    39    15    38    1
    40    15    39    1
    41    16    40    1
    42    16    41    1
    43    18    42    1
    44    19    43    1
    45    21    44    1
    46    22    45    1
    47    23    46    1
