REMARK  Name = NuBBE_1444
REMARK  12 active torsions:
REMARK  status: ('A' for Active; 'I' for Inactive)
REMARK    1  A    between atoms: O_1  and  C_2
REMARK    2  A    between atoms: C_4  and  O_5
REMARK    3  A    between atoms: O_5  and  C_6
REMARK    4  A    between atoms: C_7  and  O_27
REMARK    5  A    between atoms: C_11  and  O_12
REMARK    6  A    between atoms: O_12  and  C_13
REMARK    7  A    between atoms: C_14  and  C_16
REMARK    8  A    between atoms: C_19  and  O_24
REMARK    9  A    between atoms: C_20  and  O_21
REMARK   10  A    between atoms: O_21  and  C_22
REMARK   11  A    between atoms: O_24  and  C_25
REMARK   12  A    between atoms: O_27  and  C_28
REMARK                            x       y       z     vdW  Elec       q    Type
REMARK                         _______ _______ _______ _____ _____    ______ ____
ROOT
ATOM      1  C   LIG A   1      -1.986  -3.577   0.188  0.00  0.00    +0.135 A 
ATOM      2  C   LIG A   1      -1.112  -4.637   0.398  0.00  0.00    +0.095 A 
ATOM      3  C   LIG A   1       0.271  -4.411   0.392  0.00  0.00    +0.169 A 
ATOM      4  C   LIG A   1       0.778  -3.098   0.241  0.00  0.00    +0.205 A 
ATOM      5  C   LIG A   1      -0.120  -2.036   0.040  0.00  0.00    +0.188 A 
ATOM      6  C   LIG A   1      -1.490  -2.291  -0.035  0.00  0.00    +0.113 A 
ATOM      7  C   LIG A   1      -2.348  -1.175  -0.434  0.00  0.00    +0.238 A 
ATOM      8  C   LIG A   1      -1.869   0.195  -0.108  0.00  0.00    +0.211 A 
ATOM      9  C   LIG A   1      -0.529   0.306   0.009  0.00  0.00    +0.181 A 
ATOM     10  O   LIG A   1       0.351  -0.754  -0.080  0.00  0.00    -0.447 OA
ATOM     11  O   LIG A   1      -3.367  -1.383  -1.105  0.00  0.00    -0.283 OA
ENDROOT
BRANCH   9  12
ATOM     12  C   LIG A   1       0.154   1.588   0.247  0.00  0.00    +0.025 A 
ATOM     13  C   LIG A   1       0.493   1.944   1.551  0.00  0.00    +0.015 A 
ATOM     14  C   LIG A   1       1.126   3.159   1.809  0.00  0.00    +0.050 A 
ATOM     15  C   LIG A   1       1.424   4.049   0.770  0.00  0.00    +0.162 A 
ATOM     16  C   LIG A   1       1.135   3.682  -0.562  0.00  0.00    +0.162 A 
ATOM     17  C   LIG A   1       0.506   2.448  -0.809  0.00  0.00    +0.061 A 
BRANCH  16  18
ATOM     18  O   LIG A   1       1.471   4.585  -1.544  0.00  0.00    -0.491 OA
ATOM     19  C   LIG A   1       1.163   4.250  -2.895  0.00  0.00    +0.277 C 
ENDBRANCH  16  18
BRANCH  15  20
ATOM     20  O   LIG A   1       2.029   5.265   1.002  0.00  0.00    -0.491 OA
ATOM     21  C   LIG A   1       1.736   5.860   2.268  0.00  0.00    +0.277 C 
ENDBRANCH  15  20
ENDBRANCH   9  12
BRANCH   1  22
ATOM     22  O   LIG A   1      -3.333  -3.799   0.243  0.00  0.00    -0.506 OA
ATOM     23  H   LIG A   1      -3.523  -4.750   0.230  0.00  0.00    +0.292 HD
ENDBRANCH   1  22
BRANCH   3  24
ATOM     24  O   LIG A   1       1.183  -5.425   0.575  0.00  0.00    -0.491 OA
ATOM     25  C   LIG A   1       0.801  -6.710   0.084  0.00  0.00    +0.277 C 
ENDBRANCH   3  24
BRANCH   8  26
ATOM     26  O   LIG A   1      -2.707   1.286   0.059  0.00  0.00    -0.488 OA
ATOM     27  C   LIG A   1      -3.997   1.191  -0.537  0.00  0.00    +0.277 C 
ENDBRANCH   8  26
BRANCH   4  28
ATOM     28  O   LIG A   1       2.141  -2.966   0.368  0.00  0.00    -0.488 OA
ATOM     29  C   LIG A   1       2.788  -1.959  -0.404  0.00  0.00    +0.277 C 
ENDBRANCH   4  28
TORSDOF 7
