REMARK  Name = NuBBE_1486
REMARK  6 active torsions:
REMARK  status: ('A' for Active; 'I' for Inactive)
REMARK    1  A    between atoms: C_8  and  C_10
REMARK    2  A    between atoms: C_10  and  C_11
REMARK    3  A    between atoms: C_26  and  O_27
REMARK    4  A    between atoms: O_27  and  C_28
REMARK    5  A    between atoms: C_29  and  O_30
REMARK    6  A    between atoms: O_30  and  C_31
REMARK                            x       y       z     vdW  Elec       q    Type
REMARK                         _______ _______ _______ _____ _____    ______ ____
ROOT
ATOM      1  O   LIG A   1      -2.975  -1.537   1.636  0.00  0.00    -0.291 OA
ATOM      2  C   LIG A   1      -2.337  -1.082   0.680  0.00  0.00    +0.178 C 
ATOM      3  C   LIG A   1      -1.986   0.342   0.640  0.00  0.00    +0.060 A 
ATOM      4  C   LIG A   1      -2.200   1.159   1.769  0.00  0.00    +0.019 A 
ATOM      5  C   LIG A   1      -1.844   2.506   1.739  0.00  0.00    +0.047 A 
ATOM      6  C   LIG A   1      -1.293   2.999   0.574  0.00  0.00    +0.128 A 
ATOM      7  O   LIG A   1      -0.907   4.300   0.400  0.00  0.00    -0.484 OA
ATOM      8  C   LIG A   1      -0.642   4.410  -1.029  0.00  0.00    +0.203 C 
ATOM      9  C   LIG A   1      -1.063   2.196  -0.532  0.00  0.00    +0.040 A 
ATOM     10  C   LIG A   1      -0.384   2.993  -1.579  0.00  0.00    +0.091 C 
ATOM     11  C   LIG A   1      -1.406   0.857  -0.520  0.00  0.00    +0.138 A 
ATOM     12  O   LIG A   1      -1.122   0.127  -1.630  0.00  0.00    -0.483 OA
ATOM     13  C   LIG A   1      -1.824  -1.952  -0.441  0.00  0.00    +0.138 C 
ATOM     14  C   LIG A   1      -1.795  -1.138  -1.730  0.00  0.00    +0.226 C 
ATOM     15  C   LIG A   1      -1.060  -1.960  -2.790  0.00  0.00    +0.274 C 
ATOM     16  O   LIG A   1       0.298  -2.249  -2.429  0.00  0.00    -0.488 OA
ATOM     17  C   LIG A   1      -0.483  -2.582  -0.148  0.00  0.00    +0.012 A 
ATOM     18  C   LIG A   1       0.483  -2.690  -1.147  0.00  0.00    +0.128 A 
ATOM     19  C   LIG A   1       1.729  -3.248  -0.857  0.00  0.00    +0.095 A 
ATOM     20  C   LIG A   1       2.028  -3.726   0.427  0.00  0.00    +0.165 A 
ATOM     21  C   LIG A   1       1.045  -3.671   1.425  0.00  0.00    +0.162 A 
ATOM     22  C   LIG A   1      -0.205  -3.119   1.119  0.00  0.00    +0.057 A 
ENDROOT
BRANCH   8  23
ATOM     23  C   LIG A   1       0.489   5.391  -1.300  0.00  0.00    -0.040 C 
ATOM     24  C   LIG A   1       0.804   5.640  -2.751  0.00  0.00    +0.042 C 
ATOM     25  C   LIG A   1       1.167   6.035  -0.333  0.00  0.00    +0.011 C 
ENDBRANCH   8  23
BRANCH  20  26
ATOM     26  O   LIG A   1       3.302  -4.222   0.541  0.00  0.00    -0.491 OA
ATOM     27  C   LIG A   1       3.857  -4.291   1.850  0.00  0.00    +0.277 C 
ENDBRANCH  20  26
BRANCH  21  28
ATOM     28  O   LIG A   1       1.301  -4.220   2.654  0.00  0.00    -0.491 OA
ATOM     29  C   LIG A   1       0.652  -3.596   3.759  0.00  0.00    +0.277 C 
ENDBRANCH  21  28
TORSDOF 3
