@<TRIPOS>MOLECULE
NuBBE_630
 33 33 0 0 0
SMALL
GASTEIGER

@<TRIPOS>ATOM
      1 O          -2.3992    0.6904   -0.0091 O.2     1  LIG1       -0.2450
      2 C          -1.2727    0.6991    0.4510 C.2     1  LIG1        0.3394
      3 O          -0.2221    1.4274    0.0040 O.3     1  LIG1       -0.4612
      4 C          -0.4852    2.2790   -1.1206 C.3     1  LIG1        0.0928
      5 C          -0.4499    1.4964   -2.4340 C.3     1  LIG1       -0.0185
      6 C           0.9164    0.8485   -2.6738 C.3     1  LIG1       -0.0502
      7 C           0.9639    0.0539   -3.9782 C.3     1  LIG1       -0.0558
      8 C           2.3421   -0.5592   -4.1840 C.3     1  LIG1       -0.0653
      9 C          -0.8868   -0.0703    1.6601 C.ar    1  LIG1        0.0661
     10 C          -1.9307   -0.5877    2.4469 C.ar    1  LIG1       -0.0023
     11 C          -1.6290   -1.2603    3.6228 C.ar    1  LIG1        0.1628
     12 O          -2.6062   -1.7539    4.4400 O.3     1  LIG1       -0.5032
     13 C          -0.3045   -1.4342    4.0053 C.ar    1  LIG1        0.2006
     14 O          -0.0012   -2.0858    5.1693 O.3     1  LIG1       -0.5009
     15 C           0.7274   -0.9445    3.2136 C.ar    1  LIG1        0.1628
     16 O           2.0255   -1.1197    3.5961 O.3     1  LIG1       -0.5032
     17 C           0.4507   -0.2630    2.0362 C.ar    1  LIG1       -0.0023
     18 H           0.2961    3.0471   -1.1233 H       1  LIG1        0.0697
     19 H          -1.4407    2.8021   -0.9918 H       1  LIG1        0.0697
     20 H          -0.6839    2.1782   -3.2592 H       1  LIG1        0.0298
     21 H          -1.2210    0.7176   -2.4218 H       1  LIG1        0.0298
     22 H           1.1645    0.1827   -1.8385 H       1  LIG1        0.0266
     23 H           1.6848    1.6296   -2.7076 H       1  LIG1        0.0266
     24 H           0.7317    0.7092   -4.8256 H       1  LIG1        0.0263
     25 H           0.2095   -0.7414   -3.9631 H       1  LIG1        0.0263
     26 H           3.0929    0.2212   -4.3471 H       1  LIG1        0.0230
     27 H           2.3421   -1.2179   -5.0574 H       1  LIG1        0.0230
     28 H           2.6483   -1.1475   -3.3126 H       1  LIG1        0.0230
     29 H          -2.9615   -0.4433    2.1347 H       1  LIG1        0.0663
     30 H          -3.4712   -1.5339    4.0488 H       1  LIG1        0.2923
     31 H          -0.8744   -2.3312    5.5400 H       1  LIG1        0.2924
     32 H           1.9720   -1.6011    4.4468 H       1  LIG1        0.2923
     33 H           1.2721    0.1127    1.4320 H       1  LIG1        0.0663
@<TRIPOS>BOND
     1     1     2    2
     2     2     3    1
     3     3     4    1
     4     4     5    1
     5     5     6    1
     6     6     7    1
     7     7     8    1
     8     2     9    1
     9     9    10   ar
    10    10    11   ar
    11    11    12    1
    12    11    13   ar
    13    13    14    1
    14    13    15   ar
    15    15    16    1
    16    15    17   ar
    17     9    17   ar
    18     4    18    1
    19     4    19    1
    20     5    20    1
    21     5    21    1
    22     6    22    1
    23     6    23    1
    24     7    24    1
    25     7    25    1
    26     8    26    1
    27     8    27    1
    28     8    28    1
    29    10    29    1
    30    12    30    1
    31    14    31    1
    32    16    32    1
    33    17    33    1
