@<TRIPOS>MOLECULE
NuBBE_2519
 49 52 0 0 0
SMALL
GASTEIGER

@<TRIPOS>ATOM
      1 C          -2.3835   -0.8417   -1.4550 C.3     1  LIG1       -0.0263
      2 C          -3.1621    0.0005   -2.4288 C.2     1  LIG1       -0.0905
      3 C          -4.1715    0.8103   -2.0862 C.2     1  LIG1       -0.1026
      4 C          -0.8663   -0.5298   -1.3598 C.3     1  LIG1        0.0103
      5 C          -0.2124   -1.4735   -0.3331 C.3     1  LIG1        0.0679
      6 O          -0.1360   -2.8041   -0.7939 O.3     1  LIG1       -0.3908
      7 C           1.1446   -0.7970   -0.1362 C.3     1  LIG1        0.0258
      8 H           1.6985   -1.2713    0.6789 H       1  LIG1        0.0361
      9 C           0.7305    0.6694    0.1528 C.3     1  LIG1       -0.0046
     10 H           1.5333    1.3476   -0.1660 H       1  LIG1        0.0356
     11 C          -0.5648    0.8714   -0.7174 C.3     1  LIG1       -0.0279
     12 H          -1.4070    1.1272   -0.0592 H       1  LIG1        0.0310
     13 C          -0.4117    2.0351   -1.7011 C.3     1  LIG1       -0.0612
     14 C           0.4808    0.9817    1.6365 C.ar    1  LIG1       -0.0399
     15 C           0.6326    0.0217    2.6550 C.ar    1  LIG1       -0.0127
     16 C           0.4003    0.3833    3.9648 C.ar    1  LIG1        0.1665
     17 C           0.0254    1.6532    4.3120 C.ar    1  LIG1        0.1662
     18 C          -0.1294    2.6352    3.3602 C.ar    1  LIG1       -0.0159
     19 C           0.1056    2.2953    2.0178 C.ar    1  LIG1       -0.0546
     20 O          -0.1579    1.7862    5.6525 O.3     1  LIG1       -0.4526
     21 C           0.1213    0.4413    6.1010 C.3     1  LIG1        0.2332
     22 O           0.5081   -0.4479    5.0352 O.3     1  LIG1       -0.4526
     23 C           2.0507   -0.9346   -1.3896 C.3     1  LIG1        0.1218
     24 H           2.8729   -0.2046   -1.2647 H       1  LIG1        0.0679
     25 C           1.3061   -0.5687   -2.6686 C.2     1  LIG1        0.1628
     26 O           1.9213   -0.2038   -3.6732 O.2     1  LIG1       -0.2946
     27 C          -0.1797   -0.7560   -2.7290 C.3     1  LIG1        0.0170
     28 O           2.6221   -2.2368   -1.3398 O.3     1  LIG1       -0.3719
     29 C           3.5273   -2.4835   -2.4095 C.3     1  LIG1        0.0374
     30 H          -2.5206   -1.8903   -1.7507 H       1  LIG1        0.0314
     31 H          -2.8315   -0.7556   -0.4559 H       1  LIG1        0.0314
     32 H          -2.9072   -0.0909   -3.4831 H       1  LIG1        0.0566
     33 H          -4.4917    0.9236   -1.0553 H       1  LIG1        0.0532
     34 H          -4.7100    1.3736   -2.8429 H       1  LIG1        0.0532
     35 H          -0.7850   -1.4835    0.6043 H       1  LIG1        0.0603
     36 H           0.4692   -3.2909   -0.2024 H       1  LIG1        0.2098
     37 H           0.4898    1.9467   -2.3141 H       1  LIG1        0.0233
     38 H          -0.3359    2.9850   -1.1623 H       1  LIG1        0.0233
     39 H          -1.2704    2.1090   -2.3737 H       1  LIG1        0.0233
     40 H           0.9193   -1.0064    2.4769 H       1  LIG1        0.0658
     41 H          -0.4236    3.6402    3.6419 H       1  LIG1        0.0655
     42 H          -0.0103    3.0716    1.2632 H       1  LIG1        0.0622
     43 H          -0.7770    0.0349    6.5803 H       1  LIG1        0.1166
     44 H           0.9302    0.4737    6.8398 H       1  LIG1        0.1166
     45 H          -0.3711   -1.7751   -3.0951 H       1  LIG1        0.0349
     46 H          -0.5724   -0.0644   -3.4820 H       1  LIG1        0.0349
     47 H           4.1207   -3.3662   -2.1554 H       1  LIG1        0.0524
     48 H           4.2078   -1.6402   -2.5635 H       1  LIG1        0.0524
     49 H           2.9707   -2.7007   -3.3256 H       1  LIG1        0.0524
@<TRIPOS>BOND
     1     1     2    1
     2     2     3    2
     3     1     4    1
     4     4     5    1
     5     5     6    1
     6     5     7    1
     7     7     8    1
     8     7     9    1
     9     9    10    1
    10     9    11    1
    11     4    11    1
    12     9    14    1
    13    14    15   ar
    14    15    16   ar
    15    16    17   ar
    16    17    18   ar
    17    18    19   ar
    18    14    19   ar
    19    17    20    1
    20    20    21    1
    21    21    22    1
    22    16    22    1
    23     7    23    1
    24    23    24    1
    25    23    25    1
    26    25    26    2
    27    25    27    1
    28     4    27    1
    29    23    28    1
    30    28    29    1
    31    11    13    1
    32    11    12    1
    33     1    30    1
    34     1    31    1
    35     2    32    1
    36     3    33    1
    37     3    34    1
    38     5    35    1
    39     6    36    1
    40    13    37    1
    41    13    38    1
    42    13    39    1
    43    15    40    1
    44    18    41    1
    45    19    42    1
    46    21    43    1
    47    21    44    1
    48    27    45    1
    49    27    46    1
    50    29    47    1
    51    29    48    1
    52    29    49    1
