@<TRIPOS>MOLECULE
NuBBE_2032
 30 30 0 0 0
SMALL
GASTEIGER

@<TRIPOS>ATOM
      1 C           0.2175   -3.6814   -0.8568 C.3     1  LIG1       -0.0586
      2 C          -0.6558   -2.5289   -0.3463 C.3     1  LIG1       -0.0214
      3 C          -1.4876   -2.9896    0.8532 C.3     1  LIG1       -0.0586
      4 C           0.1165   -1.2633   -0.0054 C.ar    1  LIG1       -0.0413
      5 C          -0.5098   -0.0134   -0.1618 C.ar    1  LIG1       -0.0155
      6 C           0.1763    1.1697    0.1322 C.ar    1  LIG1        0.1348
      7 O          -0.4207    2.4473   -0.0104 O.3     1  LIG1       -0.4257
      8 C          -1.3356    2.7458   -1.0245 C.2     1  LIG1        0.3092
      9 C          -1.7282    4.1917   -0.9111 C.3     1  LIG1        0.0336
     10 O          -1.7651    1.9873   -1.8784 O.2     1  LIG1       -0.2507
     11 C           1.4806    1.1346    0.6470 C.ar    1  LIG1       -0.0081
     12 C           2.2249    2.3862    1.0090 C.3     1  LIG1       -0.0362
     13 C           2.1022   -0.1095    0.8035 C.ar    1  LIG1       -0.0551
     14 C           1.4290   -1.2918    0.4839 C.ar    1  LIG1       -0.0579
     15 H          -0.4068   -4.5213   -1.1807 H       1  LIG1        0.0235
     16 H           0.8931   -4.0618   -0.0830 H       1  LIG1        0.0235
     17 H           0.8237   -3.3655   -1.7128 H       1  LIG1        0.0235
     18 H          -1.3474   -2.2853   -1.1644 H       1  LIG1        0.0343
     19 H          -0.8541   -3.2246    1.7158 H       1  LIG1        0.0235
     20 H          -2.0648   -3.8867    0.6033 H       1  LIG1        0.0235
     21 H          -2.1977   -2.2148    1.1627 H       1  LIG1        0.0235
     22 H          -1.5367    0.0215   -0.5160 H       1  LIG1        0.0657
     23 H          -2.3094    4.3520   -0.0002 H       1  LIG1        0.0342
     24 H          -2.3425    4.4663   -1.7739 H       1  LIG1        0.0342
     25 H          -0.8358    4.8230   -0.9166 H       1  LIG1        0.0342
     26 H           2.4697    2.9562    0.1078 H       1  LIG1        0.0279
     27 H           3.1625    2.1545    1.5270 H       1  LIG1        0.0279
     28 H           1.6288    3.0069    1.6855 H       1  LIG1        0.0279
     29 H           3.1210   -0.1724    1.1802 H       1  LIG1        0.0621
     30 H           1.9522   -2.2328    0.6313 H       1  LIG1        0.0620
@<TRIPOS>BOND
     1     1     2    1
     2     2     3    1
     3     2     4    1
     4     4     5   ar
     5     5     6   ar
     6     6     7    1
     7     7     8    1
     8     8     9    1
     9     8    10    2
    10     6    11   ar
    11    11    12    1
    12    11    13   ar
    13    13    14   ar
    14     4    14   ar
    15     1    15    1
    16     1    16    1
    17     1    17    1
    18     2    18    1
    19     3    19    1
    20     3    20    1
    21     3    21    1
    22     5    22    1
    23     9    23    1
    24     9    24    1
    25     9    25    1
    26    12    26    1
    27    12    27    1
    28    12    28    1
    29    13    29    1
    30    14    30    1
