REMARK  Name = NuBBE_2425
REMARK  8 active torsions:
REMARK  status: ('A' for Active; 'I' for Inactive)
REMARK    1  A    between atoms: C_1  and  C_2
REMARK    2  A    between atoms: C_1  and  C_16
REMARK    3  A    between atoms: C_6  and  O_11
REMARK    4  A    between atoms: C_7  and  O_9
REMARK    5  A    between atoms: O_9  and  C_10
REMARK    6  A    between atoms: O_11  and  C_12
REMARK    7  A    between atoms: C_19  and  O_22
REMARK    8  A    between atoms: O_22  and  C_23
REMARK                            x       y       z     vdW  Elec       q    Type
REMARK                         _______ _______ _______ _____ _____    ______ ____
ROOT
ATOM      1  C   LIG A   1       0.425  -0.836   1.614  0.00  0.00    +0.053 A 
ATOM      2  C   LIG A   1       0.654   0.545   1.425  0.00  0.00    +0.007 A 
ATOM      3  C   LIG A   1       0.242   1.408   2.477  0.00  0.00    -0.011 A 
ATOM      4  C   LIG A   1       0.373   2.786   2.321  0.00  0.00    +0.058 A 
ATOM      5  C   LIG A   1       0.939   3.369   1.187  0.00  0.00    +0.162 A 
ATOM      6  C   LIG A   1       1.447   2.537   0.169  0.00  0.00    +0.162 A 
ATOM      7  C   LIG A   1       1.261   1.151   0.308  0.00  0.00    +0.059 A 
ATOM      8  C   LIG A   1      -0.298   0.870   3.637  0.00  0.00    +0.028 A 
ATOM      9  C   LIG A   1      -0.453  -0.488   3.737  0.00  0.00    +0.112 A 
ATOM     10  N   LIG A   1      -0.116  -1.356   2.752  0.00  0.00    -0.259 NA
ENDROOT
BRANCH   6  11
ATOM     11  O   LIG A   1       2.044   3.077  -0.942  0.00  0.00    -0.491 OA
ATOM     12  C   LIG A   1       2.951   2.200  -1.637  0.00  0.00    +0.277 C 
ENDBRANCH   6  11
BRANCH   5  13
ATOM     13  O   LIG A   1       0.795   4.728   1.182  0.00  0.00    -0.491 OA
ATOM     14  C   LIG A   1       1.914   5.522   0.836  0.00  0.00    +0.277 C 
ENDBRANCH   5  13
BRANCH   1  15
ATOM     15  C   LIG A   1       0.812  -1.868   0.563  0.00  0.00    +0.091 C 
BRANCH  15  16
ATOM     16  C   LIG A   1      -0.254  -2.203  -0.457  0.00  0.00    -0.041 A 
ATOM     17  C   LIG A   1      -0.344  -1.533  -1.687  0.00  0.00    +0.007 A 
ATOM     18  C   LIG A   1      -1.307  -1.898  -2.640  0.00  0.00    +0.046 A 
ATOM     19  C   LIG A   1      -2.201  -2.934  -2.369  0.00  0.00    +0.120 A 
ATOM     20  C   LIG A   1      -2.117  -3.592  -1.141  0.00  0.00    +0.046 A 
ATOM     21  C   LIG A   1      -1.159  -3.236  -0.198  0.00  0.00    +0.007 A 
BRANCH  19  22
ATOM     22  O   LIG A   1      -3.116  -3.248  -3.344  0.00  0.00    -0.495 OA
ATOM     23  C   LIG A   1      -3.999  -4.317  -2.996  0.00  0.00    +0.277 C 
ENDBRANCH  19  22
ENDBRANCH  15  16
ENDBRANCH   1  15
TORSDOF 5
