REMARK  Name = NuBBE_335
REMARK  14 active torsions:
REMARK  status: ('A' for Active; 'I' for Inactive)
REMARK    1  A    between atoms: C_2  and  O_3
REMARK    2  A    between atoms: C_2  and  C_5
REMARK    3  A    between atoms: O_3  and  C_4
REMARK    4  A    between atoms: C_8  and  O_10
REMARK    5  A    between atoms: O_10  and  C_11
REMARK    6  A    between atoms: C_14  and  C_16
REMARK    7  A    between atoms: C_16  and  O_17
REMARK    8  A    between atoms: C_18  and  O_20
REMARK    9  A    between atoms: C_21  and  O_23
REMARK   10  A    between atoms: C_24  and  O_26
REMARK   11  A    between atoms: C_27  and  C_28
REMARK   12  A    between atoms: C_31  and  C_33
REMARK   13  A    between atoms: C_33  and  C_34
REMARK   14  A    between atoms: C_34  and  O_35
REMARK                            x       y       z     vdW  Elec       q    Type
REMARK                         _______ _______ _______ _____ _____    ______ ____
ROOT
ATOM      1  C   LIG A   1      -1.735  -2.133  -1.459  0.00  0.00    +0.075 C 
ATOM      2  C   LIG A   1      -0.532  -1.650  -1.778  0.00  0.00    +0.201 C 
ATOM      3  O   LIG A   1       0.435  -1.401  -0.839  0.00  0.00    -0.470 OA
ATOM      4  C   LIG A   1      -0.081  -0.772   0.354  0.00  0.00    +0.316 C 
ATOM      5  C   LIG A   1      -1.419  -1.419   0.907  0.00  0.00    +0.088 C 
ATOM      6  C   LIG A   1      -1.982  -2.535  -0.030  0.00  0.00    +0.052 C 
ENDROOT
BRANCH   1   8
ATOM      7  O   LIG A   1      -2.520  -2.376  -3.696  0.00  0.00    -0.245 OA
ATOM      8  C   LIG A   1      -2.758  -2.160  -2.532  0.00  0.00    +0.338 C 
BRANCH   8   9
ATOM      9  O   LIG A   1      -3.940  -1.756  -1.994  0.00  0.00    -0.465 OA
ATOM     10  C   LIG A   1      -4.830  -1.082  -2.890  0.00  0.00    +0.280 C 
ENDBRANCH   8   9
ENDBRANCH   1   8
BRANCH   5  11
ATOM     11  C   LIG A   1      -1.321  -1.836   2.376  0.00  0.00    -0.025 C 
ATOM     12  C   LIG A   1      -2.099  -1.384   3.373  0.00  0.00    +0.004 C 
ENDBRANCH   5  11
BRANCH   4  13
ATOM     13  O   LIG A   1      -0.298   0.638   0.123  0.00  0.00    -0.309 OA
BRANCH  13  14
ATOM     14  C   LIG A   1       0.902   1.359  -0.240  0.00  0.00    +0.286 C 
ATOM     15  O   LIG A   1       1.843   1.249   0.830  0.00  0.00    -0.340 OA
ATOM     16  C   LIG A   1       3.032   2.033   0.677  0.00  0.00    +0.178 C 
ATOM     17  C   LIG A   1       2.676   3.526   0.618  0.00  0.00    +0.177 C 
ATOM     18  C   LIG A   1       1.707   3.782  -0.533  0.00  0.00    +0.179 C 
ATOM     19  C   LIG A   1       0.500   2.839  -0.483  0.00  0.00    +0.201 C 
BRANCH  17  20
ATOM     20  O   LIG A   1       3.806   4.388   0.439  0.00  0.00    -0.387 OA
ATOM     21  H   LIG A   1       4.463   4.137   1.125  0.00  0.00    +0.210 HD
ENDBRANCH  17  20
BRANCH  18  22
ATOM     22  O   LIG A   1       1.230   5.143  -0.447  0.00  0.00    -0.386 OA
ATOM     23  H   LIG A   1       2.012   5.672  -0.186  0.00  0.00    +0.210 HD
ENDBRANCH  18  22
BRANCH  19  24
ATOM     24  O   LIG A   1      -0.250   2.994  -1.702  0.00  0.00    -0.384 OA
ATOM     25  H   LIG A   1      -0.501   3.939  -1.725  0.00  0.00    +0.210 HD
ENDBRANCH  19  24
BRANCH  16  26
ATOM     26  C   LIG A   1       3.916   1.736   1.901  0.00  0.00    +0.190 C 
BRANCH  26  27
ATOM     27  O   LIG A   1       5.124   2.489   1.877  0.00  0.00    -0.392 OA
ATOM     28  H   LIG A   1       5.630   2.224   2.669  0.00  0.00    +0.209 HD
ENDBRANCH  26  27
ENDBRANCH  16  26
ENDBRANCH  13  14
ENDBRANCH   4  13
BRANCH   6  29
ATOM     29  C   LIG A   1      -1.498  -3.990   0.191  0.00  0.00    +0.129 C 
BRANCH  29  30
ATOM     30  C   LIG A   1      -0.007  -4.263   0.139  0.00  0.00    +0.305 C 
ATOM     31  O   LIG A   1       0.721  -4.246   1.121  0.00  0.00    -0.251 OA
BRANCH  30  32
ATOM     32  O   LIG A   1       0.459  -4.574  -1.091  0.00  0.00    -0.481 OA
ATOM     33  H   LIG A   1      -0.196  -4.510  -1.811  0.00  0.00    +0.295 HD
ENDBRANCH  30  32
ENDBRANCH  29  30
ENDBRANCH   6  29
TORSDOF 13
