@<TRIPOS>MOLECULE
NuBBE_2171
 53 57 0 0 0
SMALL
GASTEIGER

@<TRIPOS>ATOM
      1 C          -5.7280    0.4267   -4.0773 C.3     1  LIG1       -0.0215
      2 C          -4.7435    1.5522   -3.7378 C.3     1  LIG1        0.1235
      3 O          -3.4247    0.9771   -3.8446 O.3     1  LIG1       -0.4816
      4 C          -4.8285    2.6510   -4.8038 C.3     1  LIG1       -0.0215
      5 C          -5.1018    2.1357   -2.3891 C.2     1  LIG1       -0.0409
      6 C          -4.2474    2.1954   -1.3640 C.2     1  LIG1       -0.0513
      7 C          -2.9067    1.6716   -1.5667 C.ar    1  LIG1        0.0169
      8 C          -2.5658    1.0933   -2.7894 C.ar    1  LIG1        0.1289
      9 C          -1.2835    0.5829   -2.9881 C.ar    1  LIG1       -0.0189
     10 C          -0.3327    0.6521   -1.9686 C.ar    1  LIG1       -0.0516
     11 C          -0.6559    1.2275   -0.7307 C.ar    1  LIG1       -0.0062
     12 C           0.3718    1.3388    0.3806 C.3     1  LIG1        0.1322
     13 H          -0.1610    1.4411    1.3376 H       1  LIG1        0.0789
     14 C           1.2919    2.5256    0.1420 C.3     1  LIG1        0.0519
     15 C           2.2642    2.5926    1.2835 C.2     1  LIG1        0.1705
     16 C           2.6718    1.3042    1.8815 C.ar    1  LIG1        0.0600
     17 C           3.6511    1.2729    2.8764 C.ar    1  LIG1       -0.0442
     18 C           4.0624    0.0465    3.3942 C.ar    1  LIG1       -0.0184
     19 C           3.5049   -1.1428    2.9161 C.ar    1  LIG1        0.1324
     20 C           2.5218   -1.1189    1.9196 C.ar    1  LIG1        0.0589
     21 C           1.9670   -2.3814    1.4458 C.2     1  LIG1       -0.0478
     22 C           2.4154   -3.5162    1.9889 C.2     1  LIG1       -0.0408
     23 C           3.4680   -3.5615    3.0705 C.3     1  LIG1        0.1235
     24 C           4.6676   -4.3781    2.5758 C.3     1  LIG1       -0.0215
     25 C           2.8779   -4.2178    4.3241 C.3     1  LIG1       -0.0215
     26 O           3.9914   -2.2843    3.4877 O.3     1  LIG1       -0.4815
     27 C           2.0922    0.1197    1.4123 C.ar    1  LIG1        0.1425
     28 O           1.1251    0.1177    0.4347 O.3     1  LIG1       -0.4824
     29 O           2.7494    3.6502    1.6719 O.2     1  LIG1       -0.2918
     30 C          -1.9516    1.7392   -0.5433 C.ar    1  LIG1       -0.0444
     31 H          -5.4984   -0.0111   -5.0560 H       1  LIG1        0.0271
     32 H          -6.7654    0.7785   -4.0931 H       1  LIG1        0.0271
     33 H          -5.6526   -0.3903   -3.3495 H       1  LIG1        0.0271
     34 H          -4.5845    2.2526   -5.7956 H       1  LIG1        0.0271
     35 H          -4.1001    3.4461   -4.6041 H       1  LIG1        0.0271
     36 H          -5.8257    3.1024   -4.8500 H       1  LIG1        0.0271
     37 H          -6.1074    2.5289   -2.2637 H       1  LIG1        0.0611
     38 H          -4.5261    2.6215   -0.4076 H       1  LIG1        0.0623
     39 H          -1.0244    0.1308   -3.9418 H       1  LIG1        0.0654
     40 H           0.6624    0.2490   -2.1470 H       1  LIG1        0.0623
     41 H           0.7191    3.4588    0.1065 H       1  LIG1        0.0385
     42 H           1.8689    2.4253   -0.7845 H       1  LIG1        0.0385
     43 H           4.1021    2.1939    3.2398 H       1  LIG1        0.0627
     44 H           4.8273    0.0127    4.1664 H       1  LIG1        0.0654
     45 H           1.2090   -2.3807    0.6703 H       1  LIG1        0.0624
     46 H           2.0080   -4.4631    1.6437 H       1  LIG1        0.0611
     47 H           4.3835   -5.3992    2.2983 H       1  LIG1        0.0271
     48 H           5.4457   -4.4349    3.3461 H       1  LIG1        0.0271
     49 H           5.1319   -3.9012    1.7042 H       1  LIG1        0.0271
     50 H           2.5133   -5.2314    4.1245 H       1  LIG1        0.0271
     51 H           2.0450   -3.6243    4.7202 H       1  LIG1        0.0271
     52 H           3.6248   -4.2720    5.1249 H       1  LIG1        0.0271
     53 H          -2.2189    2.1950    0.4081 H       1  LIG1        0.0628
@<TRIPOS>BOND
     1     1     2    1
     2     2     3    1
     3     2     4    1
     4     2     5    1
     5     5     6    2
     6     6     7    1
     7     7     8   ar
     8     3     8    1
     9     8     9   ar
    10     9    10   ar
    11    10    11   ar
    12    11    12    1
    13    12    13    1
    14    12    14    1
    15    14    15    1
    16    15    16    1
    17    16    17   ar
    18    17    18   ar
    19    18    19   ar
    20    19    20   ar
    21    20    21    1
    22    21    22    2
    23    22    23    1
    24    23    24    1
    25    23    25    1
    26    23    26    1
    27    19    26    1
    28    20    27   ar
    29    16    27   ar
    30    27    28    1
    31    12    28    1
    32    15    29    2
    33    11    30   ar
    34     7    30   ar
    35     1    31    1
    36     1    32    1
    37     1    33    1
    38     4    34    1
    39     4    35    1
    40     4    36    1
    41     5    37    1
    42     6    38    1
    43     9    39    1
    44    10    40    1
    45    14    41    1
    46    14    42    1
    47    17    43    1
    48    18    44    1
    49    21    45    1
    50    22    46    1
    51    24    47    1
    52    24    48    1
    53    24    49    1
    54    25    50    1
    55    25    51    1
    56    25    52    1
    57    30    53    1
