REMARK  Name = NuBBE_1727
REMARK  15 active torsions:
REMARK  status: ('A' for Active; 'I' for Inactive)
REMARK    1  A    between atoms: C_1  and  C_2
REMARK    2  A    between atoms: C_3  and  C_4
REMARK    3  A    between atoms: C_7  and  C_11
REMARK    4  A    between atoms: C_11  and  C_12
REMARK    5  A    between atoms: C_14  and  C_18
REMARK    6  A    between atoms: C_18  and  C_19
REMARK    7  A    between atoms: C_18  and  C_20
REMARK    8  A    between atoms: C_18  and  O_21
REMARK    9  A    between atoms: C_26  and  C_27
REMARK   10  A    between atoms: C_32  and  C_33
REMARK   11  A    between atoms: C_32  and  C_34
REMARK   12  A    between atoms: N_36  and  N_37
REMARK   13  A    between atoms: N_37  and  C_38
REMARK   14  A    between atoms: C_39  and  N_40
REMARK   15  A    between atoms: C_44  and  N_47
REMARK                            x       y       z     vdW  Elec       q    Type
REMARK                         _______ _______ _______ _____ _____    ______ ____
ROOT
ATOM      1  C   LIG A   1      -3.468   0.012  -1.265  0.00  0.00    +0.012 C 
ATOM      2  C   LIG A   1      -1.941  -0.043  -1.537  0.00  0.00    -0.023 C 
ATOM      3  C   LIG A   1      -1.431   1.287  -2.296  0.00  0.00    -0.023 C 
ATOM      4  C   LIG A   1      -0.099   1.026  -3.078  0.00  0.00    +0.012 C 
ATOM      5  C   LIG A   1      -1.144   2.501  -1.337  0.00  0.00    +0.001 C 
ATOM      6  C   LIG A   1      -1.738   3.773  -2.027  0.00  0.00    +0.024 C 
ATOM      7  C   LIG A   1      -2.023   3.337  -3.469  0.00  0.00    +0.007 C 
ATOM      8  C   LIG A   1      -2.433   1.878  -3.318  0.00  0.00    +0.008 C 
ATOM      9  C   LIG A   1      -1.655   2.339   0.088  0.00  0.00    +0.005 C 
ATOM     10  C   LIG A   1      -1.183   1.042   0.728  0.00  0.00    +0.005 C 
ATOM     11  C   LIG A   1      -1.103  -0.186  -0.213  0.00  0.00    +0.002 C 
ATOM     12  C   LIG A   1      -1.219  -1.569   0.559  0.00  0.00    -0.025 C 
ATOM     13  C   LIG A   1      -2.599  -1.732   1.246  0.00  0.00    +0.012 C 
ATOM     14  C   LIG A   1      -0.898  -2.715  -0.472  0.00  0.00    +0.006 C 
ATOM     15  C   LIG A   1      -1.859  -2.655  -1.677  0.00  0.00    +0.005 C 
ATOM     16  C   LIG A   1      -1.720  -1.317  -2.416  0.00  0.00    +0.008 C 
ATOM     17  C   LIG A   1      -0.673  -4.148   0.129  0.00  0.00    +0.008 C 
ATOM     18  C   LIG A   1      -1.928  -4.835   0.688  0.00  0.00    +0.017 C 
ATOM     19  C   LIG A   1      -0.119  -5.091  -0.974  0.00  0.00    +0.017 C 
ATOM     20  C   LIG A   1       0.365  -3.989   1.271  0.00  0.00    +0.043 C 
ATOM     21  N   LIG A   1       1.411  -4.760   1.276  0.00  0.00    -0.191 NA
ATOM     22  C   LIG A   1       0.049  -2.948   2.328  0.00  0.00    +0.053 C 
ATOM     23  C   LIG A   1      -0.122  -1.593   1.664  0.00  0.00    +0.013 C 
ENDROOT
BRANCH   6  24
ATOM     24  C   LIG A   1      -0.891   5.071  -1.911  0.00  0.00    +0.070 C 
ATOM     25  C   LIG A   1      -1.595   6.245  -2.618  0.00  0.00    +0.042 C 
ATOM     26  O   LIG A   1      -0.792   5.457  -0.518  0.00  0.00    -0.367 OA
ATOM     27  C   LIG A   1       0.578   5.804  -0.208  0.00  0.00    +0.150 C 
ATOM     28  C   LIG A   1       1.309   5.895  -1.543  0.00  0.00    +0.037 C 
ATOM     29  C   LIG A   1       0.547   4.932  -2.415  0.00  0.00    +0.037 C 
BRANCH  27  30
ATOM     30  C   LIG A   1       0.644   7.099   0.645  0.00  0.00    +0.086 C 
ATOM     31  C   LIG A   1      -0.106   6.950   1.973  0.00  0.00    +0.043 C 
ATOM     32  C   LIG A   1       2.094   7.502   0.919  0.00  0.00    +0.043 C 
BRANCH  30  33
ATOM     33  O   LIG A   1       0.029   8.183  -0.068  0.00  0.00    -0.387 OA
ATOM     34  H   LIG A   1      -0.884   7.896  -0.258  0.00  0.00    +0.210 HD
ENDBRANCH  30  33
ENDBRANCH  27  30
ENDBRANCH   6  24
BRANCH  21  35
ATOM     35  N   LIG A   1       2.351  -4.609   2.229  0.00  0.00    -0.236 N 
ATOM     36  H   LIG A   1       2.336  -3.852   2.917  0.00  0.00    +0.174 HD
BRANCH  35  37
ATOM     37  C   LIG A   1       3.178  -5.694   2.572  0.00  0.00    +0.079 A 
ATOM     38  C   LIG A   1       4.184  -5.605   3.563  0.00  0.00    +0.151 A 
ATOM     39  C   LIG A   1       5.004  -6.707   3.868  0.00  0.00    +0.067 A 
ATOM     40  C   LIG A   1       4.812  -7.896   3.165  0.00  0.00    +0.129 A 
ATOM     41  C   LIG A   1       3.848  -8.017   2.167  0.00  0.00    +0.035 A 
ATOM     42  C   LIG A   1       3.054  -6.912   1.868  0.00  0.00    +0.029 A 
BRANCH  38  43
ATOM     43  N   LIG A   1       4.399  -4.361   4.324  0.00  0.00    +0.058 N 
ATOM     44  O   LIG A   1       3.662  -3.396   4.105  0.00  0.00    -0.126 OA
ATOM     45  O   LIG A   1       5.307  -4.361   5.173  0.00  0.00    -0.126 OA
ENDBRANCH  38  43
BRANCH  40  46
ATOM     46  N   LIG A   1       5.641  -9.043   3.474  0.00  0.00    +0.057 N 
ATOM     47  O   LIG A   1       6.867  -8.890   3.359  0.00  0.00    -0.126 OA
ATOM     48  O   LIG A   1       5.067 -10.072   3.832  0.00  0.00    -0.126 OA
ENDBRANCH  40  46
ENDBRANCH  35  37
ENDBRANCH  21  35
TORSDOF 7
