@<TRIPOS>MOLECULE
NuBBE_2466
 58 61 0 0 0
SMALL
GASTEIGER

@<TRIPOS>ATOM
      1 C           0.2836    1.5765    5.4299 C.3     1  LIG1        0.0790
      2 O           0.1254    0.2452    5.9289 O.3     1  LIG1       -0.4914
      3 C          -0.3436   -0.6824    5.0307 C.ar    1  LIG1        0.1626
      4 C          -0.6256   -0.3798    3.7001 C.ar    1  LIG1       -0.0106
      5 C          -1.1092   -1.3426    2.8022 C.ar    1  LIG1       -0.0149
      6 C          -1.3627   -0.9783    1.3594 C.3     1  LIG1        0.0891
      7 H          -2.2306   -1.5373    0.9913 H       1  LIG1        0.0650
      8 C          -0.1123   -1.1888    0.5016 C.3     1  LIG1        0.0205
      9 H           0.7890   -1.3401    1.1073 H       1  LIG1        0.0356
     10 C          -0.0481    0.0660   -0.3203 C.3     1  LIG1        0.0205
     11 H           0.9834    0.3077   -0.5969 H       1  LIG1        0.0356
     12 C          -0.6716    1.1084    0.5670 C.3     1  LIG1        0.0544
     13 O          -1.7097    0.4249    1.2755 O.3     1  LIG1       -0.3712
     14 C          -0.9274   -0.2508   -1.5307 C.3     1  LIG1        0.0891
     15 H          -1.9627    0.0864   -1.3878 H       1  LIG1        0.0650
     16 O          -0.9825   -1.6919   -1.6301 O.3     1  LIG1       -0.3712
     17 C          -0.2590   -2.2684   -0.5404 C.3     1  LIG1        0.0544
     18 C          -0.4267    0.3619   -2.8210 C.ar    1  LIG1       -0.0149
     19 C           0.2459    1.5990   -2.8488 C.ar    1  LIG1       -0.0106
     20 C           0.6865    2.1733   -4.0472 C.ar    1  LIG1        0.1626
     21 O           1.3154    3.3781   -3.8637 O.3     1  LIG1       -0.4914
     22 C           1.7534    4.0842   -5.0147 C.3     1  LIG1        0.0790
     23 C           0.4432    1.4872   -5.2403 C.ar    1  LIG1        0.1730
     24 O           0.9474    1.9989   -6.4581 O.3     1  LIG1       -0.4223
     25 C           0.2586    1.9227   -7.6697 C.2     1  LIG1        0.3093
     26 C           0.9727    2.7840   -8.6476 C.3     1  LIG1        0.0336
     27 O          -0.7839    1.3701   -7.8859 O.2     1  LIG1       -0.2507
     28 C          -0.2289    0.2609   -5.2346 C.ar    1  LIG1       -0.0152
     29 C          -0.6809   -0.2808   -4.0357 C.ar    1  LIG1       -0.0524
     30 C          -1.3151   -2.6435    3.2583 C.ar    1  LIG1       -0.0524
     31 C          -1.0447   -2.9688    4.5868 C.ar    1  LIG1       -0.0152
     32 C          -0.5327   -2.0043    5.4614 C.ar    1  LIG1        0.1730
     33 O          -0.0862   -2.3158    6.7730 O.3     1  LIG1       -0.4223
     34 C           0.0563   -3.6108    7.2737 C.2     1  LIG1        0.3093
     35 C           0.9769   -3.5840    8.4531 C.3     1  LIG1        0.0336
     36 O          -0.3979   -4.6473    6.8079 O.2     1  LIG1       -0.2507
     37 H           0.5937    2.2260    6.2525 H       1  LIG1        0.0660
     38 H          -0.6595    1.9778    5.0376 H       1  LIG1        0.0660
     39 H           1.0688    1.6118    4.6648 H       1  LIG1        0.0660
     40 H          -0.4698    0.6225    3.3220 H       1  LIG1        0.0659
     41 H          -1.1001    1.9589    0.0300 H       1  LIG1        0.0564
     42 H           0.0553    1.4927    1.2906 H       1  LIG1        0.0564
     43 H           0.7180   -2.5805   -0.9256 H       1  LIG1        0.0564
     44 H          -0.7838   -3.1565   -0.1763 H       1  LIG1        0.0564
     45 H           0.4489    2.1422   -1.9277 H       1  LIG1        0.0659
     46 H           2.0942    5.0771   -4.7063 H       1  LIG1        0.0660
     47 H           0.9345    4.2437   -5.7232 H       1  LIG1        0.0660
     48 H           2.6036    3.5699   -5.4748 H       1  LIG1        0.0660
     49 H           2.0531    2.6079   -8.5985 H       1  LIG1        0.0342
     50 H           0.7564    3.8386   -8.4409 H       1  LIG1        0.0342
     51 H           0.6349    2.5384   -9.6614 H       1  LIG1        0.0342
     52 H          -0.4092   -0.2889   -6.1511 H       1  LIG1        0.0656
     53 H          -1.2241   -1.2243   -4.0546 H       1  LIG1        0.0622
     54 H          -1.6785   -3.4196    2.5885 H       1  LIG1        0.0622
     55 H          -1.2347   -3.9898    4.8956 H       1  LIG1        0.0656
     56 H           0.8051   -2.6948    9.0627 H       1  LIG1        0.0342
     57 H           2.0082   -3.6060    8.0908 H       1  LIG1        0.0342
     58 H           0.7894   -4.4667    9.0708 H       1  LIG1        0.0342
@<TRIPOS>BOND
     1     1     2    1
     2     2     3    1
     3     3     4   ar
     4     4     5   ar
     5     6     8    1
     6     8     9    1
     7     8    10    1
     8    10    11    1
     9    10    12    1
    10    12    13    1
    11     6    13    1
    12    10    14    1
    13    14    15    1
    14    14    16    1
    15    16    17    1
    16     8    17    1
    17    14    18    1
    18    18    19   ar
    19    19    20   ar
    20    20    21    1
    21    21    22    1
    22    20    23   ar
    23    23    24    1
    24    24    25    1
    25    25    26    1
    26    25    27    2
    27    23    28   ar
    28    28    29   ar
    29    18    29   ar
    30     5    30   ar
    31    30    31   ar
    32    31    32   ar
    33     3    32   ar
    34    32    33    1
    35    33    34    1
    36    34    35    1
    37    34    36    2
    38     6     7    1
    39     6     5    1
    40     1    37    1
    41     1    38    1
    42     1    39    1
    43     4    40    1
    44    12    41    1
    45    12    42    1
    46    17    43    1
    47    17    44    1
    48    19    45    1
    49    22    46    1
    50    22    47    1
    51    22    48    1
    52    26    49    1
    53    26    50    1
    54    26    51    1
    55    28    52    1
    56    29    53    1
    57    30    54    1
    58    31    55    1
    59    35    56    1
    60    35    57    1
    61    35    58    1
