REMARK  Name = NuBBE_400
REMARK  5 active torsions:
REMARK  status: ('A' for Active; 'I' for Inactive)
REMARK    1  A    between atoms: C_1  and  C_2
REMARK    2  A    between atoms: C_2  and  S_3
REMARK    3  A    between atoms: S_3  and  S_4
REMARK    4  A    between atoms: S_4  and  C_5
REMARK    5  A    between atoms: C_5  and  C_6
REMARK                            x       y       z     vdW  Elec       q    Type
REMARK                         _______ _______ _______ _____ _____    ______ ____
ROOT
ATOM      1  S   LIG A   1       0.481   1.864   0.284  0.00  0.00    -0.088 S 
ENDROOT
BRANCH   1   2
ATOM      2  C   LIG A   1       1.707   0.717  -0.417  0.00  0.00    +0.116 C 
BRANCH   2   3
ATOM      3  C   LIG A   1       3.094   0.871   0.165  0.00  0.00    -0.037 A 
ATOM      4  C   LIG A   1       3.982   1.813  -0.379  0.00  0.00    +0.004 A 
ATOM      5  C   LIG A   1       5.267   1.968   0.150  0.00  0.00    +0.000 A 
ATOM      6  C   LIG A   1       5.688   1.170   1.208  0.00  0.00    +0.000 A 
ATOM      7  C   LIG A   1       4.831   0.203   1.734  0.00  0.00    +0.000 A 
ATOM      8  C   LIG A   1       3.533   0.063   1.224  0.00  0.00    +0.004 A 
ENDBRANCH   2   3
ENDBRANCH   1   2
BRANCH   1   9
ATOM      9  S   LIG A   1      -1.247   1.288  -0.706  0.00  0.00    -0.088 S 
BRANCH   9  10
ATOM     10  C   LIG A   1      -1.869  -0.062   0.348  0.00  0.00    +0.116 C 
BRANCH  10  11
ATOM     11  C   LIG A   1      -3.136  -0.691  -0.187  0.00  0.00    -0.037 A 
ATOM     12  C   LIG A   1      -3.094  -1.799  -1.053  0.00  0.00    +0.004 A 
ATOM     13  C   LIG A   1      -4.280  -2.376  -1.518  0.00  0.00    +0.000 A 
ATOM     14  C   LIG A   1      -5.513  -1.899  -1.090  0.00  0.00    +0.000 A 
ATOM     15  C   LIG A   1      -5.570  -0.807  -0.222  0.00  0.00    +0.000 A 
ATOM     16  C   LIG A   1      -4.388  -0.189   0.190  0.00  0.00    +0.004 A 
ENDBRANCH  10  11
ENDBRANCH   9  10
ENDBRANCH   1   9
TORSDOF 5
