@<TRIPOS>MOLECULE
NuBBE_1173
 104 109 0 0 0
SMALL
GASTEIGER

@<TRIPOS>ATOM
      1 C          -3.1539    0.2585    5.3587 C.3     1  LIG1       -0.0598
      2 C          -2.1984    1.3982    4.9520 C.3     1  LIG1       -0.0343
      3 C          -2.9664    2.4515    4.1373 C.3     1  LIG1       -0.0468
      4 C          -3.3934    1.9336    2.7597 C.3     1  LIG1       -0.0362
      5 C          -2.2514    1.2658    1.9311 C.3     1  LIG1        0.0744
      6 C          -2.0846    2.0773    0.6296 C.3     1  LIG1       -0.0359
      7 C          -0.9536    1.6097   -0.2777 C.3     1  LIG1       -0.0424
      8 C           0.4309    1.2612    0.3816 C.3     1  LIG1       -0.0050
      9 C           1.1315    0.0220   -0.4058 C.3     1  LIG1       -0.0170
     10 C           1.1590    0.2707   -1.9521 C.3     1  LIG1       -0.0201
     11 C           2.4855    0.1763   -2.6969 C.3     1  LIG1        0.0597
     12 H           2.2487   -0.0847   -3.7323 H       1  LIG1        0.0596
     13 C           3.4283   -0.8758   -2.0886 C.3     1  LIG1       -0.0016
     14 H           2.8118   -1.7832   -1.9715 H       1  LIG1        0.0337
     15 C           4.5841   -1.3641   -3.0657 C.3     1  LIG1       -0.0008
     16 C           3.9360   -2.1419   -4.2523 C.3     1  LIG1       -0.0570
     17 C           5.5123   -2.3682   -2.3246 C.3     1  LIG1        0.0865
     18 H           4.9910   -3.3248   -2.1819 H       1  LIG1        0.0624
     19 C           5.9722   -1.8683   -0.9526 C.3     1  LIG1        0.0821
     20 H           6.6251   -0.9952   -1.0476 H       1  LIG1        0.0619
     21 C           4.7768   -1.5835   -0.0545 C.3     1  LIG1       -0.0184
     22 C           3.8244   -0.4830   -0.6170 C.3     1  LIG1       -0.0203
     23 C           2.4953   -0.4779    0.2540 C.3     1  LIG1       -0.0255
     24 H           2.3349   -1.5602    0.3820 H       1  LIG1        0.0315
     25 C           2.6738   -0.0261    1.7238 C.3     1  LIG1       -0.0306
     26 C           1.3998    0.3022    2.4515 C.2     1  LIG1       -0.0836
     27 C           0.3373    0.9091    1.8795 C.2     1  LIG1       -0.0629
     28 C          -0.8874    1.3772    2.6836 C.3     1  LIG1       -0.0031
     29 H          -0.6860    2.4576    2.7969 H       1  LIG1        0.0357
     30 C          -0.9920    0.8460    4.1415 C.3     1  LIG1       -0.0403
     31 C           4.5655    0.8640   -0.4744 C.3     1  LIG1       -0.0588
     32 O           6.7668   -2.8953   -0.3431 O.3     1  LIG1       -0.3892
     33 O           6.6975   -2.6822   -3.0750 O.3     1  LIG1       -0.3887
     34 C           5.4077   -0.2318   -3.7112 C.3     1  LIG1       -0.0570
     35 O           3.0846    1.4639   -2.7570 O.3     1  LIG1       -0.3915
     36 C           0.1910   -1.2368   -0.2242 C.3     1  LIG1       -0.0584
     37 C           1.2777    2.5628    0.2777 C.3     1  LIG1       -0.0553
     38 C          -2.6604   -0.2115    1.5966 C.2     1  LIG1        0.3161
     39 O          -3.7942   -0.2477    0.8007 O.3     1  LIG1       -0.4318
     40 C          -3.9561   -1.4351   -0.0230 C.3     1  LIG1        0.2337
     41 H          -3.4805   -2.3044    0.4469 H       1  LIG1        0.1085
     42 C          -5.4746   -1.7884   -0.2477 C.3     1  LIG1        0.1455
     43 H          -6.0009   -1.8005    0.7119 H       1  LIG1        0.0683
     44 O          -5.5704   -3.1304   -0.7727 O.3     1  LIG1       -0.3829
     45 C          -6.1879   -0.8378   -1.2449 C.3     1  LIG1        0.1152
     46 H          -6.6315   -1.4202   -2.0662 H       1  LIG1        0.0648
     47 O          -7.3036   -0.1386   -0.6788 O.3     1  LIG1       -0.3864
     48 C          -5.1970    0.1546   -1.8562 C.3     1  LIG1        0.1120
     49 H          -4.8716    0.8754   -1.0997 H       1  LIG1        0.0647
     50 O          -5.8183    0.9138   -2.8874 O.3     1  LIG1       -0.3865
     51 C          -4.0356   -0.7092   -2.3534 C.3     1  LIG1        0.1140
     52 H          -4.4145   -1.6021   -2.8694 H       1  LIG1        0.0647
     53 C          -3.1287    0.0058   -3.3552 C.3     1  LIG1        0.0731
     54 O          -2.0583   -0.8604   -3.7429 O.3     1  LIG1       -0.3924
     55 O          -3.2427   -1.1997   -1.2565 O.3     1  LIG1       -0.3312
     56 O          -2.0750   -1.2022    1.9763 O.2     1  LIG1       -0.2501
     57 C          -1.6818    2.0395    6.2580 C.3     1  LIG1       -0.0598
     58 H          -3.5759   -0.2563    4.4911 H       1  LIG1        0.0235
     59 H          -3.9914    0.6465    5.9518 H       1  LIG1        0.0235
     60 H          -2.6393   -0.4914    5.9691 H       1  LIG1        0.0235
     61 H          -2.3473    3.3500    4.0086 H       1  LIG1        0.0271
     62 H          -3.8565    2.7875    4.6849 H       1  LIG1        0.0271
     63 H          -3.8127    2.7885    2.2129 H       1  LIG1        0.0276
     64 H          -4.2358    1.2440    2.8883 H       1  LIG1        0.0276
     65 H          -1.9096    3.1326    0.8784 H       1  LIG1        0.0276
     66 H          -3.0162    2.0613    0.0497 H       1  LIG1        0.0276
     67 H          -0.8108    2.4022   -1.0271 H       1  LIG1        0.0274
     68 H          -1.3417    0.7802   -0.8674 H       1  LIG1        0.0274
     69 H           0.7004    1.2325   -2.2016 H       1  LIG1        0.0296
     70 H           0.5006   -0.4672   -2.4313 H       1  LIG1        0.0296
     71 H           3.3213   -2.9746   -3.8914 H       1  LIG1        0.0236
     72 H           4.6919   -2.5631   -4.9240 H       1  LIG1        0.0236
     73 H           3.3003   -1.5012   -4.8700 H       1  LIG1        0.0236
     74 H           5.1367   -1.3198    0.9483 H       1  LIG1        0.0296
     75 H           4.2274   -2.5254    0.0867 H       1  LIG1        0.0296
     76 H           3.3315    0.8427    1.8160 H       1  LIG1        0.0310
     77 H           3.1754   -0.8322    2.2751 H       1  LIG1        0.0310
     78 H           1.4205    0.0771    3.5132 H       1  LIG1        0.0572
     79 H          -0.0699    1.1212    4.6716 H       1  LIG1        0.0276
     80 H          -1.0104   -0.2498    4.1378 H       1  LIG1        0.0276
     81 H           5.3590    0.9906   -1.2086 H       1  LIG1        0.0235
     82 H           5.0559    0.9493    0.5025 H       1  LIG1        0.0235
     83 H           3.8960    1.7206   -0.5589 H       1  LIG1        0.0235
     84 H           7.3965   -3.1627   -1.0430 H       1  LIG1        0.2099
     85 H           6.4216   -3.1438   -3.8850 H       1  LIG1        0.2099
     86 H           6.0152    0.3142   -2.9902 H       1  LIG1        0.0236
     87 H           4.7739    0.4823   -4.2442 H       1  LIG1        0.0236
     88 H           6.1032   -0.6287   -4.4609 H       1  LIG1        0.0236
     89 H           2.4627    2.0618   -3.2063 H       1  LIG1        0.2098
     90 H          -0.8368   -1.0594   -0.5278 H       1  LIG1        0.0235
     91 H           0.1695   -1.5779    0.8150 H       1  LIG1        0.0235
     92 H           0.5464   -2.0804   -0.8273 H       1  LIG1        0.0235
     93 H           1.4819    2.8363   -0.7624 H       1  LIG1        0.0238
     94 H           2.2412    2.4957    0.7875 H       1  LIG1        0.0238
     95 H           0.7485    3.4095    0.7341 H       1  LIG1        0.0238
     96 H          -6.5142   -3.3570   -0.8677 H       1  LIG1        0.2102
     97 H          -7.1844   -0.0498    0.2808 H       1  LIG1        0.2100
     98 H          -6.5602    1.3874   -2.4614 H       1  LIG1        0.2100
     99 H          -3.6807    0.2802   -4.2599 H       1  LIG1        0.0584
    100 H          -2.6821    0.9053   -2.9249 H       1  LIG1        0.0584
    101 H          -1.7580   -1.2884   -2.9177 H       1  LIG1        0.2095
    102 H          -0.9747    2.8507    6.0519 H       1  LIG1        0.0235
    103 H          -1.1651    1.2981    6.8797 H       1  LIG1        0.0235
    104 H          -2.5028    2.4552    6.8530 H       1  LIG1        0.0235
@<TRIPOS>BOND
     1     2     3    1
     2     3     4    1
     3     4     5    1
     4     5     6    1
     5     6     7    1
     6     7     8    1
     7     8     9    1
     8     9    10    1
     9    10    11    1
    10    11    13    1
    11    13    15    1
    12    15    17    1
    13    17    19    1
    14    19    21    1
    15    21    22    1
    16    13    22    1
    17    22    23    1
    18     9    23    1
    19    23    25    1
    20    25    26    1
    21    26    27    2
    22     8    27    1
    23    27    28    1
    24     5    28    1
    25    28    30    1
    26     2    30    1
    27    38    39    1
    28    39    40    1
    29    40    41    1
    30    40    42    1
    31    42    45    1
    32    45    48    1
    33    48    49    1
    34    48    50    1
    35    48    51    1
    36    53    54    1
    37    51    55    1
    38    40    55    1
    39    38    56    2
    40     1     2    1
    41     2    57    1
    42     5    38    1
    43     8    37    1
    44     9    36    1
    45    11    12    1
    46    11    35    1
    47    13    14    1
    48    15    16    1
    49    15    34    1
    50    17    18    1
    51    17    33    1
    52    22    31    1
    53    23    24    1
    54    28    29    1
    55    19    32    1
    56    19    20    1
    57    42    44    1
    58    42    43    1
    59    45    47    1
    60    45    46    1
    61    51    53    1
    62    51    52    1
    63     1    58    1
    64     1    59    1
    65     1    60    1
    66     3    61    1
    67     3    62    1
    68     4    63    1
    69     4    64    1
    70     6    65    1
    71     6    66    1
    72     7    67    1
    73     7    68    1
    74    10    69    1
    75    10    70    1
    76    16    71    1
    77    16    72    1
    78    16    73    1
    79    21    74    1
    80    21    75    1
    81    25    76    1
    82    25    77    1
    83    26    78    1
    84    30    79    1
    85    30    80    1
    86    31    81    1
    87    31    82    1
    88    31    83    1
    89    32    84    1
    90    33    85    1
    91    34    86    1
    92    34    87    1
    93    34    88    1
    94    35    89    1
    95    36    90    1
    96    36    91    1
    97    36    92    1
    98    37    93    1
    99    37    94    1
   100    37    95    1
   101    44    96    1
   102    47    97    1
   103    50    98    1
   104    53    99    1
   105    53   100    1
   106    54   101    1
   107    57   102    1
   108    57   103    1
   109    57   104    1
