@<TRIPOS>MOLECULE
NuBBE_151
 31 32 0 0 0
SMALL
GASTEIGER

@<TRIPOS>ATOM
      1 O          -0.8551    4.2202   -1.5727 O.2     1  LIG1       -0.2450
      2 C          -1.1129    3.0356   -1.6773 C.2     1  LIG1        0.3391
      3 O          -1.9644    2.4710   -2.5700 O.3     1  LIG1       -0.4644
      4 C          -2.6103    3.3740   -3.4641 C.3     1  LIG1        0.0820
      5 C          -0.5133    1.9688   -0.8285 C.ar    1  LIG1        0.0632
      6 C           0.4135    2.3245    0.1594 C.ar    1  LIG1       -0.0025
      7 C           0.9933    1.3270    0.9447 C.ar    1  LIG1        0.1599
      8 O           1.9048    1.6568    1.9124 O.3     1  LIG1       -0.5033
      9 C           0.6605   -0.0215    0.7583 C.ar    1  LIG1        0.1700
     10 O           1.2817   -0.9388    1.5578 O.3     1  LIG1       -0.4780
     11 C           0.9655   -2.3362    1.4130 C.3     1  LIG1        0.1237
     12 C           2.2879   -3.0470    1.1054 C.3     1  LIG1       -0.0215
     13 C           0.4298   -2.7966    2.7727 C.3     1  LIG1       -0.0215
     14 C          -0.0428   -2.6803    0.3405 C.2     1  LIG1       -0.0409
     15 C          -0.6296   -1.7644   -0.4322 C.2     1  LIG1       -0.0512
     16 C          -0.2691   -0.3732   -0.2213 C.ar    1  LIG1        0.0210
     17 C          -0.8531    0.6205   -1.0099 C.ar    1  LIG1       -0.0369
     18 H          -3.4171    2.8250   -3.9588 H       1  LIG1        0.0661
     19 H          -1.9016    3.7114   -4.2251 H       1  LIG1        0.0661
     20 H          -3.0475    4.2207   -2.9280 H       1  LIG1        0.0661
     21 H           0.6767    3.3692    0.3036 H       1  LIG1        0.0663
     22 H           2.0363    2.6177    1.9225 H       1  LIG1        0.2923
     23 H           3.0386   -2.8217    1.8717 H       1  LIG1        0.0271
     24 H           2.7060   -2.6982    0.1532 H       1  LIG1        0.0271
     25 H           2.1671   -4.1344    1.0498 H       1  LIG1        0.0271
     26 H           1.1469   -2.5699    3.5702 H       1  LIG1        0.0271
     27 H           0.2216   -3.8718    2.7904 H       1  LIG1        0.0271
     28 H          -0.4935   -2.2625    3.0284 H       1  LIG1        0.0271
     29 H          -0.2949   -3.7284    0.2021 H       1  LIG1        0.0611
     30 H          -1.3517   -2.0317   -1.1952 H       1  LIG1        0.0623
     31 H          -1.5731    0.3341   -1.7729 H       1  LIG1        0.0633
@<TRIPOS>BOND
     1     1     2    2
     2     2     3    1
     3     3     4    1
     4     2     5    1
     5     5     6   ar
     6     6     7   ar
     7     7     8    1
     8     7     9   ar
     9     9    10    1
    10    10    11    1
    11    11    12    1
    12    11    13    1
    13    11    14    1
    14    14    15    2
    15     9    16   ar
    16    15    16    1
    17    16    17   ar
    18     5    17   ar
    19     4    18    1
    20     4    19    1
    21     4    20    1
    22     6    21    1
    23     8    22    1
    24    12    23    1
    25    12    24    1
    26    12    25    1
    27    13    26    1
    28    13    27    1
    29    13    28    1
    30    14    29    1
    31    15    30    1
    32    17    31    1
