REMARK  Name = NuBBE_3
REMARK  12 active torsions:
REMARK  status: ('A' for Active; 'I' for Inactive)
REMARK    1  A    between atoms: O_1  and  C_2
REMARK    2  A    between atoms: C_3  and  O_4
REMARK    3  A    between atoms: O_4  and  C_5
REMARK    4  A    between atoms: C_5  and  C_6
REMARK    5  A    between atoms: C_7  and  C_8
REMARK    6  A    between atoms: C_7  and  C_9
REMARK    7  A    between atoms: C_9  and  C_10
REMARK    8  A    between atoms: C_10  and  C_11
REMARK    9  A    between atoms: C_12  and  C_13
REMARK   10  A    between atoms: C_12  and  C_14
REMARK   11  A    between atoms: C_16  and  C_17
REMARK   12  A    between atoms: C_17  and  O_18
REMARK                            x       y       z     vdW  Elec       q    Type
REMARK                         _______ _______ _______ _____ _____    ______ ____
ROOT
ATOM      1  C   LIG A   1      -0.006  -3.116   2.975  0.00  0.00    +0.159 A 
ATOM      2  C   LIG A   1       0.990  -2.516   2.193  0.00  0.00    +0.163 A 
ATOM      3  C   LIG A   1       2.043  -3.301   1.720  0.00  0.00    +0.064 A 
ATOM      4  C   LIG A   1       2.043  -4.683   1.980  0.00  0.00    +0.062 A 
ATOM      5  C   LIG A   1       1.021  -5.270   2.741  0.00  0.00    +0.019 A 
ATOM      6  C   LIG A   1      -0.004  -4.477   3.250  0.00  0.00    +0.050 A 
ENDROOT
BRANCH   1   7
ATOM      7  O   LIG A   1      -1.032  -2.361   3.476  0.00  0.00    -0.503 OA
ATOM      8  H   LIG A   1      -0.840  -1.447   3.189  0.00  0.00    +0.292 HD
ENDBRANCH   1   7
BRANCH   4   9
ATOM      9  C   LIG A   1       3.144  -5.512   1.440  0.00  0.00    +0.337 C 
ATOM     10  O   LIG A   1       4.260  -5.131   1.171  0.00  0.00    -0.245 OA
BRANCH   9  11
ATOM     11  O   LIG A   1       2.744  -6.778   1.199  0.00  0.00    -0.477 OA
ATOM     12  H   LIG A   1       3.525  -7.210   0.795  0.00  0.00    +0.295 HD
ENDBRANCH   9  11
ENDBRANCH   4   9
BRANCH   2  13
ATOM     13  O   LIG A   1       0.825  -1.170   1.988  0.00  0.00    -0.484 OA
BRANCH  13  14
ATOM     14  C   LIG A   1       1.369  -0.636   0.775  0.00  0.00    +0.257 C 
BRANCH  14  15
ATOM     15  C   LIG A   1       0.529   0.555   0.391  0.00  0.00    +0.012 C 
ATOM     16  C   LIG A   1       0.940   1.726  -0.139  0.00  0.00    -0.073 C 
ATOM     17  C   LIG A   1       2.375   2.052  -0.456  0.00  0.00    +0.038 C 
BRANCH  16  18
ATOM     18  C   LIG A   1      -0.066   2.825  -0.458  0.00  0.00    +0.034 C 
BRANCH  18  19
ATOM     19  C   LIG A   1      -0.617   2.716  -1.887  0.00  0.00    +0.031 C 
BRANCH  19  20
ATOM     20  C   LIG A   1      -1.591   3.822  -2.211  0.00  0.00    -0.028 C 
ATOM     21  C   LIG A   1      -2.890   3.706  -2.556  0.00  0.00    -0.080 C 
ATOM     22  C   LIG A   1      -3.655   2.413  -2.646  0.00  0.00    +0.038 C 
ATOM     23  C   LIG A   1      -3.710   4.926  -2.895  0.00  0.00    +0.038 C 
ENDBRANCH  19  20
ENDBRANCH  18  19
ENDBRANCH  16  18
ENDBRANCH  14  15
ENDBRANCH  13  14
ENDBRANCH   2  13
TORSDOF 9
