@<TRIPOS>MOLECULE
NuBBE_2350
 54 56 0 0 0
SMALL
GASTEIGER

@<TRIPOS>ATOM
      1 C           4.2473    2.1987   -0.4215 C.3     1  LIG1        0.0790
      2 O           3.4560    2.4906   -1.5729 O.3     1  LIG1       -0.4913
      3 C           2.1556    2.0522   -1.5541 C.ar    1  LIG1        0.1655
      4 C           1.5572    1.5982   -2.7482 C.ar    1  LIG1        0.2035
      5 O           2.1606    1.4260   -3.9570 O.3     1  LIG1       -0.4885
      6 C           3.5370    1.6282   -4.1871 C.3     1  LIG1        0.0791
      7 C           0.1927    1.2512   -2.7221 C.ar    1  LIG1        0.1655
      8 O          -0.6117    0.8274   -3.7546 O.3     1  LIG1       -0.4913
      9 C          -0.0634    0.7094   -5.0574 C.3     1  LIG1        0.0790
     10 C          -0.5296    1.3262   -1.5246 C.ar    1  LIG1       -0.0094
     11 C           0.0198    1.8339   -0.3513 C.ar    1  LIG1        0.0004
     12 C          -0.7527    2.0277    0.9496 C.3     1  LIG1        0.1320
     13 H          -0.5855    3.0643    1.2757 H       1  LIG1        0.0790
     14 O          -0.1370    1.1533    1.9536 O.3     1  LIG1       -0.4829
     15 C          -0.9267    0.0198    1.9070 C.ar    1  LIG1        0.1321
     16 C          -0.5332   -1.2289    2.3729 C.ar    1  LIG1        0.0433
     17 C           0.7815   -1.3966    3.1367 C.3     1  LIG1       -0.0027
     18 C           1.4586   -2.7633    3.0191 C.2     1  LIG1       -0.0866
     19 C           1.7165   -3.6168    4.0306 C.2     1  LIG1       -0.1023
     20 C          -1.4666   -2.2628    2.1627 C.ar    1  LIG1        0.1655
     21 O          -1.1468   -3.5001    2.6546 O.3     1  LIG1       -0.5030
     22 C          -2.6950   -2.0604    1.4966 C.ar    1  LIG1        0.1621
     23 O          -3.6311   -3.0208    1.1916 O.3     1  LIG1       -0.4914
     24 C          -3.3126   -4.3709    1.5153 C.3     1  LIG1        0.0790
     25 C          -3.0583   -0.7686    1.0890 C.ar    1  LIG1       -0.0093
     26 C          -2.1690    0.2681    1.3103 C.ar    1  LIG1        0.0049
     27 C          -2.2706    1.7324    1.0435 C.3     1  LIG1        0.0261
     28 H          -2.6250    2.1862    1.9828 H       1  LIG1        0.0387
     29 C          -3.1986    2.2537   -0.0449 C.3     1  LIG1       -0.0546
     30 C           1.3784    2.1764   -0.3852 C.ar    1  LIG1       -0.0094
     31 H           5.1927    2.7406   -0.5332 H       1  LIG1        0.0660
     32 H           4.4717    1.1282   -0.3695 H       1  LIG1        0.0660
     33 H           3.8075    2.5432    0.5178 H       1  LIG1        0.0660
     34 H           3.7918    1.0349   -5.0737 H       1  LIG1        0.0660
     35 H           4.1803    1.2669   -3.3838 H       1  LIG1        0.0660
     36 H           3.7207    2.6782   -4.4311 H       1  LIG1        0.0660
     37 H          -0.8628    0.3865   -5.7310 H       1  LIG1        0.0660
     38 H           0.7085   -0.0659   -5.0823 H       1  LIG1        0.0660
     39 H           0.2989    1.6734   -5.4308 H       1  LIG1        0.0660
     40 H          -1.5410    0.9469   -1.5599 H       1  LIG1        0.0659
     41 H           0.5401   -1.2236    4.1993 H       1  LIG1        0.0358
     42 H           1.4859   -0.6607    2.8199 H       1  LIG1        0.0358
     43 H           1.6922   -3.0514    1.9612 H       1  LIG1        0.0570
     44 H           1.4257   -3.3807    5.0363 H       1  LIG1        0.0532
     45 H           2.1341   -4.6050    3.7896 H       1  LIG1        0.0532
     46 H          -1.6164   -3.5717    3.5016 H       1  LIG1        0.2923
     47 H          -4.0966   -5.0240    1.1206 H       1  LIG1        0.0660
     48 H          -3.3079   -4.5047    2.6032 H       1  LIG1        0.0660
     49 H          -2.3703   -4.6910    1.0558 H       1  LIG1        0.0660
     50 H          -4.0125   -0.5971    0.6008 H       1  LIG1        0.0659
     51 H          -3.2072    1.6573   -0.9570 H       1  LIG1        0.0237
     52 H          -2.9562    3.2897   -0.3059 H       1  LIG1        0.0237
     53 H          -4.2366    2.2348    0.3064 H       1  LIG1        0.0237
     54 H           1.8096    2.5606    0.5351 H       1  LIG1        0.0659
@<TRIPOS>BOND
     1     1     2    1
     2     2     3    1
     3     3     4   ar
     4     4     5    1
     5     5     6    1
     6     4     7   ar
     7     7     8    1
     8     8     9    1
     9     7    10   ar
    10    10    11   ar
    11    12    14    1
    12    14    15    1
    13    15    16   ar
    14    16    17    1
    15    17    18    1
    16    18    19    2
    17    16    20   ar
    18    20    21    1
    19    20    22   ar
    20    22    23    1
    21    23    24    1
    22    22    25   ar
    23    25    26   ar
    24    15    26   ar
    25    26    27    1
    26    12    27    1
    27    11    30   ar
    28     3    30   ar
    29    12    13    1
    30    12    11    1
    31    27    29    1
    32    27    28    1
    33     1    31    1
    34     1    32    1
    35     1    33    1
    36     6    34    1
    37     6    35    1
    38     6    36    1
    39     9    37    1
    40     9    38    1
    41     9    39    1
    42    10    40    1
    43    17    41    1
    44    17    42    1
    45    18    43    1
    46    19    44    1
    47    19    45    1
    48    21    46    1
    49    24    47    1
    50    24    48    1
    51    24    49    1
    52    25    50    1
    53    29    51    1
    54    29    52    1
    55    29    53    1
    56    30    54    1
