@<TRIPOS>MOLECULE
NuBBE_331
 65 66 0 0 0
SMALL
GASTEIGER

@<TRIPOS>ATOM
      1 O          -3.7621    1.8368    0.7749 O.2     1  LIG1       -0.2452
      2 C          -3.0592    1.7377   -0.2324 C.2     1  LIG1        0.3381
      3 O          -3.1259    2.5289   -1.3255 O.3     1  LIG1       -0.4646
      4 C          -3.9263    3.6990   -1.2321 C.3     1  LIG1        0.0820
      5 C          -1.9239    0.7960   -0.3817 C.2     1  LIG1        0.0749
      6 C          -1.4612    0.1996    0.7243 C.2     1  LIG1        0.0981
      7 O          -0.5169   -0.7956    0.7609 O.2     1  LIG1       -0.4701
      8 C           0.1347   -1.1475   -0.4725 C.3     1  LIG1        0.2102
      9 O           1.2966   -0.3523   -0.7464 O.3     1  LIG1       -0.3094
     10 C           2.3257   -0.4665    0.2407 C.3     1  LIG1        0.1919
     11 H           2.6027   -1.5242    0.3376 H       1  LIG1        0.0939
     12 O           1.8275    0.0513    1.4708 O.3     1  LIG1       -0.3393
     13 C           2.7364   -0.0191    2.5680 C.3     1  LIG1        0.1240
     14 H           3.0204   -1.0656    2.7347 H       1  LIG1        0.0658
     15 C           1.9981    0.5214    3.8010 C.3     1  LIG1        0.1211
     16 O           0.8238   -0.2477    4.1214 O.3     1  LIG1       -0.4621
     17 C           1.0275   -1.3748    4.8516 C.2     1  LIG1        0.3040
     18 C          -0.2870   -2.0001    5.2078 C.3     1  LIG1        0.0332
     19 O           2.1190   -1.8197    5.1731 O.2     1  LIG1       -0.2512
     20 C           3.9529    0.8568    2.2507 C.3     1  LIG1        0.1129
     21 H           3.6490    1.9052    2.1305 H       1  LIG1        0.0647
     22 O           4.9485    0.8036    3.2735 O.3     1  LIG1       -0.3864
     23 C           4.5856    0.3850    0.9434 C.3     1  LIG1        0.1141
     24 H           5.0345   -0.6095    1.0634 H       1  LIG1        0.0648
     25 O           5.6733    1.2618    0.5983 O.3     1  LIG1       -0.3864
     26 C           3.5592    0.3647   -0.1937 C.3     1  LIG1        0.1343
     27 H           3.2537    1.3899   -0.4417 H       1  LIG1        0.0671
     28 O           4.2075   -0.1677   -1.3568 O.3     1  LIG1       -0.3841
     29 C          -0.8441   -1.0372   -1.6660 C.3     1  LIG1        0.0659
     30 C          -2.0455   -2.0494   -1.5256 C.3     1  LIG1        0.1093
     31 H          -2.6190   -1.8627   -0.6105 H       1  LIG1        0.0736
     32 O          -2.9091   -1.9149   -2.6856 O.3     1  LIG1       -0.4613
     33 C          -4.0199   -1.1396   -2.5390 C.2     1  LIG1        0.3042
     34 C          -4.6896   -0.9256   -3.8569 C.3     1  LIG1        0.0332
     35 O          -4.3913   -0.6127   -1.4987 O.2     1  LIG1       -0.2512
     36 C          -1.6440   -3.5270   -1.4611 C.3     1  LIG1       -0.0272
     37 C          -1.3677    0.4455   -1.7414 C.3     1  LIG1        0.0157
     38 H          -2.1469    0.4817   -2.5103 H       1  LIG1        0.0363
     39 C          -0.3551    1.5424   -2.1327 C.3     1  LIG1        0.0525
     40 C           0.2775    1.3648   -3.4787 C.2     1  LIG1        0.3053
     41 O          -0.3992    1.9866   -4.4623 O.3     1  LIG1       -0.4806
     42 O           1.3081    0.7629   -3.7324 O.2     1  LIG1       -0.2510
     43 H          -3.2485    4.5582   -1.2164 H       1  LIG1        0.0661
     44 H          -4.5645    3.7295   -0.3488 H       1  LIG1        0.0661
     45 H          -4.5516    3.7706   -2.1291 H       1  LIG1        0.0661
     46 H          -1.8209    0.4132    1.7228 H       1  LIG1        0.1029
     47 H           0.4733   -2.1835   -0.3691 H       1  LIG1        0.1060
     48 H           1.6298    1.5314    3.5874 H       1  LIG1        0.0724
     49 H           2.6534    0.5904    4.6760 H       1  LIG1        0.0724
     50 H          -0.9654   -1.2401    5.6063 H       1  LIG1        0.0342
     51 H          -0.1322   -2.7515    5.9876 H       1  LIG1        0.0342
     52 H          -0.7237   -2.4768    4.3275 H       1  LIG1        0.0342
     53 H           4.9489    1.6643    3.7303 H       1  LIG1        0.2100
     54 H           6.2326    1.2966    1.4001 H       1  LIG1        0.2100
     55 H           5.0322    0.3516   -1.4452 H       1  LIG1        0.2101
     56 H          -0.3178   -1.2620   -2.6032 H       1  LIG1        0.0403
     57 H          -3.9887   -0.4596   -4.5553 H       1  LIG1        0.0342
     58 H          -5.5361   -0.2454   -3.7202 H       1  LIG1        0.0342
     59 H          -5.0577   -1.8766   -4.2439 H       1  LIG1        0.0342
     60 H          -1.1108   -3.7697   -0.5368 H       1  LIG1        0.0265
     61 H          -1.0270   -3.8186   -2.3162 H       1  LIG1        0.0265
     62 H          -2.5401   -4.1610   -1.4941 H       1  LIG1        0.0265
     63 H          -0.8602    2.5170   -2.1654 H       1  LIG1        0.0384
     64 H           0.4311    1.6955   -1.3890 H       1  LIG1        0.0384
     65 H           0.1757    1.8643   -5.2482 H       1  LIG1        0.2951
@<TRIPOS>BOND
     1     1     2    2
     2     2     3    1
     3     3     4    1
     4     2     5    1
     5     5     6    2
     6     6     7    1
     7     7     8    1
     8     8     9    1
     9    10    12    1
    10    12    13    1
    11    13    14    1
    12    13    15    1
    13    15    16    1
    14    16    17    1
    15    17    18    1
    16    17    19    2
    17    13    20    1
    18    20    23    1
    19    23    24    1
    20    23    25    1
    21    23    26    1
    22    10    26    1
    23     8    29    1
    24    29    30    1
    25    30    31    1
    26    30    32    1
    27    32    33    1
    28    33    34    1
    29    33    35    2
    30    30    36    1
    31    29    37    1
    32     5    37    1
    33    39    40    1
    34    40    41    1
    35    40    42    2
    36    10    11    1
    37    10     9    1
    38    20    22    1
    39    20    21    1
    40    26    28    1
    41    26    27    1
    42    37    39    1
    43    37    38    1
    44     4    43    1
    45     4    44    1
    46     4    45    1
    47     6    46    1
    48     8    47    1
    49    15    48    1
    50    15    49    1
    51    18    50    1
    52    18    51    1
    53    18    52    1
    54    22    53    1
    55    25    54    1
    56    28    55    1
    57    29    56    1
    58    34    57    1
    59    34    58    1
    60    34    59    1
    61    36    60    1
    62    36    61    1
    63    36    62    1
    64    39    63    1
    65    39    64    1
    66    41    65    1
