@<TRIPOS>MOLECULE
NuBBE_2377
 56 58 0 0 0
SMALL
GASTEIGER

@<TRIPOS>ATOM
      1 C           3.6757    1.3927   -0.0346 C.3     1  LIG1       -0.0281
      2 C           2.4351    1.1643   -0.9973 C.3     1  LIG1       -0.0141
      3 H           2.7646    1.4300   -2.0140 H       1  LIG1        0.0351
      4 C           2.0318   -0.3080   -1.0959 C.2     1  LIG1       -0.0654
      5 C           2.7720   -1.3142   -0.5693 C.2     1  LIG1       -0.0842
      6 C           4.0832   -1.1264    0.1082 C.3     1  LIG1       -0.0340
      7 C           4.6916    0.2362   -0.2048 C.3     1  LIG1       -0.0439
      8 C           0.8226   -0.6668   -1.9241 C.3     1  LIG1       -0.0024
      9 C          -0.4720   -0.3965   -1.1943 C.ar    1  LIG1        0.0051
     10 C          -0.8857    0.9340   -1.0461 C.ar    1  LIG1       -0.0399
     11 C          -2.0928    1.1992   -0.3939 C.ar    1  LIG1       -0.0512
     12 C          -2.9150    0.1684    0.1183 C.ar    1  LIG1        0.0008
     13 C          -4.1973    0.6387    0.8025 C.3     1  LIG1       -0.0179
     14 C          -3.9396    0.9981    2.2714 C.3     1  LIG1       -0.0585
     15 C          -5.4201   -0.2667    0.6709 C.3     1  LIG1       -0.0585
     16 C          -2.4714   -1.1696   -0.0081 C.ar    1  LIG1        0.1652
     17 C          -1.2461   -1.4511   -0.6551 C.ar    1  LIG1        0.1655
     18 O          -0.6283   -2.6734   -0.7382 O.3     1  LIG1       -0.4911
     19 C          -1.4000   -3.8376   -0.9621 C.3     1  LIG1        0.0790
     20 O          -3.3038   -2.1896    0.3742 O.3     1  LIG1       -0.4912
     21 C          -3.0129   -2.7221    1.6649 C.3     1  LIG1        0.0790
     22 C           0.0045    2.0670   -1.5052 C.3     1  LIG1       -0.0267
     23 C           1.2724    2.1466   -0.6458 C.3     1  LIG1       -0.0420
     24 C           4.4044    2.7037   -0.3996 C.3     1  LIG1       -0.0593
     25 C           3.2611    1.4789    1.4534 C.3     1  LIG1       -0.0593
     26 H           2.4273   -2.3395   -0.6696 H       1  LIG1        0.0572
     27 H           4.7754   -1.9077   -0.2289 H       1  LIG1        0.0308
     28 H           3.9547   -1.2638    1.1880 H       1  LIG1        0.0308
     29 H           5.0667    0.2298   -1.2376 H       1  LIG1        0.0274
     30 H           5.5676    0.3900    0.4380 H       1  LIG1        0.0274
     31 H           0.8711   -1.7098   -2.2596 H       1  LIG1        0.0360
     32 H           0.8452   -0.1114   -2.8705 H       1  LIG1        0.0360
     33 H          -2.4049    2.2371   -0.2757 H       1  LIG1        0.0624
     34 H          -4.4939    1.5724    0.3013 H       1  LIG1        0.0345
     35 H          -3.6257    0.1264    2.8541 H       1  LIG1        0.0235
     36 H          -4.8447    1.4076    2.7347 H       1  LIG1        0.0235
     37 H          -3.1554    1.7589    2.3641 H       1  LIG1        0.0235
     38 H          -5.3527   -1.1551    1.3021 H       1  LIG1        0.0235
     39 H          -5.5670   -0.5828   -0.3665 H       1  LIG1        0.0235
     40 H          -6.3210    0.2709    0.9883 H       1  LIG1        0.0235
     41 H          -0.7526   -4.5558   -1.4781 H       1  LIG1        0.0660
     42 H          -2.2755   -3.6637   -1.5924 H       1  LIG1        0.0660
     43 H          -1.6645   -4.2974   -0.0093 H       1  LIG1        0.0660
     44 H          -3.1157   -3.8111    1.6029 H       1  LIG1        0.0660
     45 H          -3.7647   -2.3777    2.3805 H       1  LIG1        0.0660
     46 H          -2.0109   -2.4824    2.0319 H       1  LIG1        0.0660
     47 H          -0.5408    3.0151   -1.4095 H       1  LIG1        0.0313
     48 H           0.2423    1.9778   -2.5714 H       1  LIG1        0.0313
     49 H           0.9766    2.0275    0.4027 H       1  LIG1        0.0274
     50 H           1.6548    3.1694   -0.7473 H       1  LIG1        0.0274
     51 H           4.7422    2.6907   -1.4418 H       1  LIG1        0.0235
     52 H           5.2886    2.8483    0.2323 H       1  LIG1        0.0235
     53 H           3.7651    3.5813   -0.2651 H       1  LIG1        0.0235
     54 H           2.5904    0.6623    1.7406 H       1  LIG1        0.0235
     55 H           2.7500    2.4218    1.6766 H       1  LIG1        0.0235
     56 H           4.1379    1.4352    2.1095 H       1  LIG1        0.0235
@<TRIPOS>BOND
     1     1     2    1
     2     2     4    1
     3     4     5    2
     4     5     6    1
     5     6     7    1
     6     1     7    1
     7     4     8    1
     8     8     9    1
     9     9    10   ar
    10    10    11   ar
    11    11    12   ar
    12    13    14    1
    13    13    15    1
    14    12    16   ar
    15    16    17   ar
    16     9    17   ar
    17    18    19    1
    18    20    21    1
    19    10    22    1
    20    22    23    1
    21     2    23    1
    22     1    24    1
    23     1    25    1
    24     2     3    1
    25    12    13    1
    26    16    20    1
    27    17    18    1
    28     5    26    1
    29     6    27    1
    30     6    28    1
    31     7    29    1
    32     7    30    1
    33     8    31    1
    34     8    32    1
    35    11    33    1
    36    13    34    1
    37    14    35    1
    38    14    36    1
    39    14    37    1
    40    15    38    1
    41    15    39    1
    42    15    40    1
    43    19    41    1
    44    19    42    1
    45    19    43    1
    46    21    44    1
    47    21    45    1
    48    21    46    1
    49    22    47    1
    50    22    48    1
    51    23    49    1
    52    23    50    1
    53    24    51    1
    54    24    52    1
    55    24    53    1
    56    25    54    1
    57    25    55    1
    58    25    56    1
