@<TRIPOS>MOLECULE
NuBBE_2415
 39 41 0 0 0
SMALL
GASTEIGER

@<TRIPOS>ATOM
      1 O          -3.4422   -3.1123   -0.4803 O.3     1  LIG1       -0.4885
      2 C          -4.2197   -4.1017    0.1796 C.3     1  LIG1        0.0791
      3 C          -2.0782   -3.2261   -0.3689 C.ar    1  LIG1        0.2036
      4 C          -1.3655   -2.0109   -0.3714 C.ar    1  LIG1        0.1688
      5 C           0.0369   -1.9987   -0.3183 C.ar    1  LIG1       -0.0011
      6 C           0.8158   -0.7137   -0.2896 C.3     1  LIG1       -0.0140
      7 C          -0.0687    0.5043   -0.5843 C.3     1  LIG1        0.0261
      8 H          -0.2475    0.5059   -1.6719 H       1  LIG1        0.0386
      9 C          -1.4307    0.2981    0.0829 C.3     1  LIG1        0.0970
     10 O          -2.0971   -0.8475   -0.4542 O.3     1  LIG1       -0.4873
     11 C           0.5954    1.8100   -0.1928 C.2     1  LIG1        0.0097
     12 C           0.8815    2.7672   -1.0821 C.2     1  LIG1       -0.0041
     13 C           1.5380    4.0441   -0.7178 C.2     1  LIG1        0.2207
     14 O           1.7272    4.8757   -1.5967 O.2     1  LIG1       -0.2840
     15 C           1.9283    4.2352    0.7138 C.2     1  LIG1        0.1702
     16 C           1.6225    3.2828    1.5995 C.2     1  LIG1        0.0309
     17 C           0.9357    2.0362    1.2382 C.2     1  LIG1        0.1862
     18 O           0.6666    1.2211    2.1117 O.2     1  LIG1       -0.2875
     19 O           2.5447    5.3860    1.1874 O.2     1  LIG1       -0.4912
     20 C           3.4522    6.0241    0.2952 C.3     1  LIG1        0.0790
     21 C           0.7306   -3.2117   -0.2438 C.ar    1  LIG1       -0.0514
     22 C           0.0374   -4.4196   -0.2383 C.ar    1  LIG1       -0.0160
     23 C          -1.3587   -4.4277   -0.3049 C.ar    1  LIG1        0.1622
     24 O          -1.9960   -5.6384   -0.3296 O.3     1  LIG1       -0.5032
     25 H          -5.2373   -3.7098    0.2766 H       1  LIG1        0.0660
     26 H          -3.8494   -4.3101    1.1894 H       1  LIG1        0.0660
     27 H          -4.2889   -5.0124   -0.4216 H       1  LIG1        0.0660
     28 H           1.6319   -0.7547   -1.0221 H       1  LIG1        0.0321
     29 H           1.2795   -0.6445    0.7006 H       1  LIG1        0.0321
     30 H          -2.0772    1.1615   -0.1129 H       1  LIG1        0.0703
     31 H          -1.3659    0.1890    1.1718 H       1  LIG1        0.0703
     32 H           0.6428    2.6704   -2.1371 H       1  LIG1        0.0661
     33 H           1.8682    3.3902    2.6510 H       1  LIG1        0.0694
     34 H           3.9685    6.8101    0.8543 H       1  LIG1        0.0660
     35 H           2.9269    6.5179   -0.5247 H       1  LIG1        0.0660
     36 H           4.2042    5.3196   -0.0753 H       1  LIG1        0.0660
     37 H           1.8172   -3.2181   -0.1884 H       1  LIG1        0.0623
     38 H           0.6038   -5.3447   -0.1871 H       1  LIG1        0.0655
     39 H          -1.3328   -6.3470   -0.3377 H       1  LIG1        0.2923
@<TRIPOS>BOND
     1     1     2    1
     2     1     3    1
     3     3     4   ar
     4     4     5   ar
     5     5     6    1
     6     6     7    1
     7     7     8    1
     8     7     9    1
     9     9    10    1
    10     4    10    1
    11     7    11    1
    12    11    12    2
    13    12    13    1
    14    13    14    2
    15    13    15    1
    16    15    16    2
    17    16    17    1
    18    11    17    1
    19    17    18    2
    20    15    19    1
    21    19    20    1
    22     5    21   ar
    23    21    22   ar
    24    22    23   ar
    25     3    23   ar
    26    23    24    1
    27     2    25    1
    28     2    26    1
    29     2    27    1
    30     6    28    1
    31     6    29    1
    32     9    30    1
    33     9    31    1
    34    12    32    1
    35    16    33    1
    36    20    34    1
    37    20    35    1
    38    20    36    1
    39    21    37    1
    40    22    38    1
    41    24    39    1
