REMARK  Name = NuBBE_2120
REMARK  5 active torsions:
REMARK  status: ('A' for Active; 'I' for Inactive)
REMARK    1  A    between atoms: C_1  and  C_2
REMARK    2  A    between atoms: C_2  and  C_3
REMARK    3  A    between atoms: C_3  and  C_4
REMARK    4  A    between atoms: C_4  and  C_5
REMARK    5  A    between atoms: C_5  and  C_6
REMARK                            x       y       z     vdW  Elec       q    Type
REMARK                         _______ _______ _______ _____ _____    ______ ____
ROOT
ATOM      1  C   LIG A   1      -0.709   0.658  -1.149  0.00  0.00    -0.000 C 
ENDROOT
BRANCH   1   3
ATOM      2  C   LIG A   1      -2.002  -0.022   0.996  0.00  0.00    +0.004 C 
ATOM      3  C   LIG A   1      -1.668   1.058  -0.022  0.00  0.00    -0.003 C 
ENDBRANCH   1   3
BRANCH   1   4
ATOM      4  C   LIG A   1       0.762   0.432  -0.776  0.00  0.00    -0.000 C 
BRANCH   4   5
ATOM      5  C   LIG A   1       1.010  -0.793   0.103  0.00  0.00    -0.003 C 
ATOM      6  C   LIG A   1       2.480  -1.028   0.399  0.00  0.00    +0.004 C 
ENDBRANCH   4   5
ENDBRANCH   1   4
TORSDOF 3
