@<TRIPOS>MOLECULE
NuBBE_256
 67 71 0 0 0
SMALL
GASTEIGER

@<TRIPOS>ATOM
      1 O          -5.1215   -1.8717   -0.7438 O.2     1  LIG1       -0.2840
      2 C          -4.3588   -1.7267    0.1736 C.2     1  LIG1        0.2206
      3 C          -3.5585   -2.8709    0.6942 C.2     1  LIG1        0.1671
      4 O          -3.8463   -4.0884    0.0963 O.2     1  LIG1       -0.5030
      5 C          -2.6046   -2.6976    1.6369 C.2     1  LIG1        0.0022
      6 C          -1.9175   -3.9150    2.1781 C.3     1  LIG1       -0.0356
      7 C          -2.1668   -1.3075    2.0188 C.2     1  LIG1       -0.0144
      8 C          -1.0381   -0.9778    2.7039 C.2     1  LIG1       -0.0539
      9 C          -0.2686    0.3245    2.5700 C.2     1  LIG1       -0.0606
     10 C          -0.6592    1.2656    1.6724 C.2     1  LIG1       -0.0529
     11 C           0.2841    2.1461    0.4898 C.3     1  LIG1       -0.0043
     12 C           1.7904    2.7967    0.2005 C.3     1  LIG1       -0.0429
     13 C           3.0496    2.1403   -0.4670 C.3     1  LIG1       -0.0462
     14 C           2.8279    0.8686   -1.3191 C.3     1  LIG1       -0.0220
     15 C           4.1416    0.0246   -1.3416 C.3     1  LIG1        0.0118
     16 C           2.6023    1.1638   -2.8236 C.3     1  LIG1       -0.0589
     17 C           1.6033    0.2155   -0.5938 C.3     1  LIG1       -0.0284
     18 H           1.8621    0.3161    0.4784 H       1  LIG1        0.0312
     19 C           1.5365   -1.3169   -0.6575 C.3     1  LIG1       -0.0399
     20 C           2.9049   -1.9880   -0.4584 C.3     1  LIG1        0.0150
     21 C           2.7788   -3.5040   -0.4639 C.3     1  LIG1       -0.0557
     22 H           3.3551   -1.7008    0.5041 H       1  LIG1        0.0375
     23 C           3.8356   -1.4425   -1.5110 C.2     1  LIG1        0.1367
     24 O           4.3404   -2.1215   -2.3999 O.2     1  LIG1       -0.2971
     25 C          -0.4367    3.5476    0.5090 C.3     1  LIG1       -0.0553
     26 C           0.2200    1.0810   -0.7563 C.3     1  LIG1       -0.0196
     27 C          -0.0818    1.6437   -2.1706 C.3     1  LIG1       -0.0585
     28 C          -1.0349    0.2233   -0.6440 C.3     1  LIG1       -0.0455
     29 C          -2.1699    1.2135   -0.2477 C.3     1  LIG1       -0.0393
     30 C          -2.2325    1.1599    1.2812 C.3     1  LIG1        0.0154
     31 C          -3.1429    2.1528    2.0345 C.3     1  LIG1       -0.0517
     32 C          -2.9291   -0.2026    1.4424 C.2     1  LIG1       -0.0262
     33 C          -4.0901   -0.4088    0.7765 C.2     1  LIG1       -0.0067
     34 H          -4.4533   -3.8699   -0.6499 H       1  LIG1        0.2923
     35 H          -2.2434   -4.8346    1.6750 H       1  LIG1        0.0279
     36 H          -2.1680   -4.0398    3.2359 H       1  LIG1        0.0279
     37 H          -0.8338   -3.8631    2.0500 H       1  LIG1        0.0279
     38 H          -0.4532   -1.7663    3.1729 H       1  LIG1        0.0624
     39 H           0.7579    0.2659    2.9216 H       1  LIG1        0.0618
     40 H           2.1235    3.4264    1.0339 H       1  LIG1        0.0274
     41 H           1.5726    3.5264   -0.6059 H       1  LIG1        0.0274
     42 H           3.7515    1.9269    0.3483 H       1  LIG1        0.0271
     43 H           3.5634    2.8942   -1.0863 H       1  LIG1        0.0271
     44 H           4.7418    0.1419   -0.4349 H       1  LIG1        0.0347
     45 H           4.8093    0.3205   -2.1644 H       1  LIG1        0.0347
     46 H           3.5264    1.2394   -3.4062 H       1  LIG1        0.0235
     47 H           2.1416    2.1309   -3.0061 H       1  LIG1        0.0235
     48 H           2.0312    0.3547   -3.2934 H       1  LIG1        0.0235
     49 H           1.0768   -1.6318   -1.5955 H       1  LIG1        0.0275
     50 H           0.9122   -1.6750    0.1709 H       1  LIG1        0.0275
     51 H           1.9936   -3.8317   -1.1517 H       1  LIG1        0.0236
     52 H           2.5045   -3.8518    0.5387 H       1  LIG1        0.0236
     53 H           3.7101   -4.0036   -0.7471 H       1  LIG1        0.0236
     54 H           0.1309    4.2546    1.1377 H       1  LIG1        0.0238
     55 H          -1.4181    3.5834    0.9621 H       1  LIG1        0.0238
     56 H          -0.5231    3.9897   -0.4868 H       1  LIG1        0.0238
     57 H           0.4269    2.5640   -2.4236 H       1  LIG1        0.0235
     58 H          -1.1387    1.8876   -2.3373 H       1  LIG1        0.0235
     59 H           0.0787    0.8486   -2.9118 H       1  LIG1        0.0235
     60 H          -0.8570   -0.5774    0.0697 H       1  LIG1        0.0271
     61 H          -1.2895   -0.3351   -1.5497 H       1  LIG1        0.0271
     62 H          -3.0643    0.9544   -0.8144 H       1  LIG1        0.0277
     63 H          -2.0222    2.2413   -0.5764 H       1  LIG1        0.0277
     64 H          -2.6357    3.0419    2.4129 H       1  LIG1        0.0241
     65 H          -3.5791    1.6843    2.9311 H       1  LIG1        0.0241
     66 H          -3.9846    2.4764    1.4110 H       1  LIG1        0.0241
     67 H          -4.6635    0.3837    0.3074 H       1  LIG1        0.0660
@<TRIPOS>BOND
     1     2     3    1
     2     3     5    2
     3     5     7    1
     4     7     8    2
     5     8     9    1
     6     9    10    2
     7    10    11    1
     8    11    12    1
     9    12    13    1
    10    13    14    1
    11    14    15    1
    12    14    17    1
    13    17    19    1
    14    19    20    1
    15    20    23    1
    16    15    23    1
    17    11    26    1
    18    17    26    1
    19    26    28    1
    20    28    29    1
    21    10    30    1
    22    29    30    1
    23    30    32    1
    24     7    32    1
    25    32    33    2
    26     2    33    1
    27     1     2    2
    28     3     4    1
    29     5     6    1
    30    11    25    1
    31    14    16    1
    32    17    18    1
    33    23    24    2
    34    26    27    1
    35    30    31    1
    36    20    22    1
    37    20    21    1
    38     4    34    1
    39     6    35    1
    40     6    36    1
    41     6    37    1
    42     8    38    1
    43     9    39    1
    44    12    40    1
    45    12    41    1
    46    13    42    1
    47    13    43    1
    48    15    44    1
    49    15    45    1
    50    16    46    1
    51    16    47    1
    52    16    48    1
    53    19    49    1
    54    19    50    1
    55    21    51    1
    56    21    52    1
    57    21    53    1
    58    25    54    1
    59    25    55    1
    60    25    56    1
    61    27    57    1
    62    27    58    1
    63    27    59    1
    64    28    60    1
    65    28    61    1
    66    29    62    1
    67    29    63    1
    68    31    64    1
    69    31    65    1
    70    31    66    1
    71    33    67    1
