@<TRIPOS>MOLECULE
NuBBE_1193
 33 35 0 0 0
SMALL
GASTEIGER

@<TRIPOS>ATOM
      1 O          -5.6510    1.6034   -0.2149 O.2     1  LIG1       -0.2452
      2 C          -4.4333    1.5709   -0.0861 C.ar    1  LIG1        0.3372
      3 C          -3.6639    2.8101    0.1131 C.ar    1  LIG1        0.0237
      4 C          -2.3337    2.8143    0.2403 C.ar    1  LIG1       -0.0408
      5 O          -3.7113    0.3865   -0.1177 O.2     1  LIG1       -0.4219
      6 C          -2.3082    0.3778    0.0221 C.ar    1  LIG1        0.1461
      7 C          -1.5902    1.5604    0.1849 C.ar    1  LIG1        0.0600
      8 C          -0.1919    1.4807    0.2991 C.ar    1  LIG1        0.1413
      9 O           0.5316    2.6421    0.4613 O.3     1  LIG1       -0.4937
     10 C           0.9937    3.1149   -0.8076 C.3     1  LIG1        0.0788
     11 C           0.4619    0.2311    0.3157 C.ar    1  LIG1        0.0589
     12 C           1.8978    0.1050    0.5399 C.2     1  LIG1       -0.0478
     13 C           2.4514   -1.1076    0.4551 C.2     1  LIG1       -0.0408
     14 C           1.6623   -2.3583    0.1496 C.3     1  LIG1        0.1235
     15 C           2.0719   -2.9007   -1.2243 C.3     1  LIG1       -0.0215
     16 C           1.9494   -3.4111    1.2270 C.3     1  LIG1       -0.0215
     17 O           0.2299   -2.1955    0.1276 O.3     1  LIG1       -0.4814
     18 C          -0.2957   -0.9339    0.1414 C.ar    1  LIG1        0.1359
     19 C          -1.6803   -0.8636   -0.0093 C.ar    1  LIG1        0.0240
     20 H          -4.2444    3.7235    0.1555 H       1  LIG1        0.0689
     21 H          -1.7920    3.7404    0.3995 H       1  LIG1        0.0628
     22 H           1.3821    4.1275   -0.6637 H       1  LIG1        0.0660
     23 H           0.1858    3.1650   -1.5463 H       1  LIG1        0.0660
     24 H           1.8094    2.4894   -1.1837 H       1  LIG1        0.0660
     25 H           2.4859    0.9849    0.7742 H       1  LIG1        0.0624
     26 H           3.5224   -1.2124    0.6089 H       1  LIG1        0.0611
     27 H           3.1434   -3.1237   -1.2745 H       1  LIG1        0.0271
     28 H           1.8334   -2.1808   -2.0165 H       1  LIG1        0.0271
     29 H           1.5176   -3.8159   -1.4637 H       1  LIG1        0.0271
     30 H           3.0145   -3.6615    1.2841 H       1  LIG1        0.0271
     31 H           1.3896   -4.3332    1.0309 H       1  LIG1        0.0271
     32 H           1.6252   -3.0583    2.2136 H       1  LIG1        0.0271
     33 H          -2.2634   -1.7713   -0.1356 H       1  LIG1        0.0691
@<TRIPOS>BOND
     1     1     2    2
     2     2     3   ar
     3     3     4   ar
     4     2     5   ar
     5     5     6   ar
     6     6     7   ar
     7     4     7   ar
     8     7     8   ar
     9     8     9    1
    10     9    10    1
    11     8    11   ar
    12    11    12    1
    13    12    13    2
    14    13    14    1
    15    14    15    1
    16    14    16    1
    17    14    17    1
    18    11    18   ar
    19    17    18    1
    20    18    19   ar
    21     6    19   ar
    22     3    20    1
    23     4    21    1
    24    10    22    1
    25    10    23    1
    26    10    24    1
    27    12    25    1
    28    13    26    1
    29    15    27    1
    30    15    28    1
    31    15    29    1
    32    16    30    1
    33    16    31    1
    34    16    32    1
    35    19    33    1
