REMARK  Name = NuBBE_1653
REMARK  12 active torsions:
REMARK  status: ('A' for Active; 'I' for Inactive)
REMARK    1  A    between atoms: C_1  and  C_2
REMARK    2  A    between atoms: C_12  and  C_13
REMARK    3  A    between atoms: C_12  and  C_14
REMARK    4  A    between atoms: C_15  and  O_19
REMARK    5  A    between atoms: C_22  and  C_23
REMARK    6  A    between atoms: C_24  and  C_28
REMARK    7  A    between atoms: C_28  and  C_30
REMARK    8  A    between atoms: C_28  and  C_37
REMARK    9  A    between atoms: C_30  and  C_31
REMARK   10  A    between atoms: C_31  and  C_32
REMARK   11  A    between atoms: C_33  and  C_34
REMARK   12  A    between atoms: C_33  and  C_36
REMARK                            x       y       z     vdW  Elec       q    Type
REMARK                         _______ _______ _______ _____ _____    ______ ____
ROOT
ATOM      1  C   LIG A   1      -1.998   0.299   2.758  0.00  0.00    +0.012 C 
ATOM      2  C   LIG A   1      -1.228   0.693   1.480  0.00  0.00    -0.023 C 
ATOM      3  C   LIG A   1      -0.899  -0.570   0.595  0.00  0.00    +0.002 C 
ATOM      4  C   LIG A   1       0.079  -1.497   1.320  0.00  0.00    -0.019 C 
ATOM      5  C   LIG A   1       0.072  -3.019   1.014  0.00  0.00    -0.019 C 
ATOM      6  C   LIG A   1      -0.408  -2.490   2.352  0.00  0.00    +0.015 C 
ATOM      7  C   LIG A   1      -1.025  -3.583   0.080  0.00  0.00    +0.004 C 
ATOM      8  C   LIG A   1      -1.591  -2.494  -0.842  0.00  0.00    +0.005 C 
ATOM      9  C   LIG A   1      -2.092  -1.305  -0.019  0.00  0.00    +0.005 C 
ATOM     10  C   LIG A   1      -0.608  -4.893  -0.671  0.00  0.00    -0.006 C 
ATOM     11  C   LIG A   1       0.327  -4.642  -1.875  0.00  0.00    +0.014 C 
ATOM     12  C   LIG A   1      -1.871  -5.591  -1.241  0.00  0.00    +0.014 C 
ATOM     13  C   LIG A   1       0.058  -5.854   0.347  0.00  0.00    +0.120 C 
ATOM     14  C   LIG A   1       1.277  -5.278   1.063  0.00  0.00    +0.032 C 
ATOM     15  C   LIG A   1       1.395  -3.760   1.024  0.00  0.00    +0.010 C 
ATOM     16  C   LIG A   1       1.399  -0.785   1.553  0.00  0.00    +0.008 C 
ATOM     17  C   LIG A   1       1.207   0.539   2.289  0.00  0.00    +0.008 C 
ATOM     18  C   LIG A   1       0.112   1.490   1.754  0.00  0.00    -0.023 C 
ATOM     19  C   LIG A   1      -0.066   2.557   2.886  0.00  0.00    +0.012 C 
ATOM     20  C   LIG A   1       0.338   2.338   0.418  0.00  0.00    -0.002 C 
ATOM     21  C   LIG A   1      -1.073   2.388  -0.241  0.00  0.00    +0.005 C 
ATOM     22  C   LIG A   1      -2.056   1.738   0.716  0.00  0.00    +0.008 C 
ENDROOT
BRANCH  13  23
ATOM     23  O   LIG A   1      -0.891  -6.262   1.343  0.00  0.00    -0.391 OA
ATOM     24  H   LIG A   1      -1.046  -5.505   1.936  0.00  0.00    +0.210 HD
ENDBRANCH  13  23
BRANCH  20  25
ATOM     25  C   LIG A   1       1.431   2.039  -0.662  0.00  0.00    -0.010 C 
ATOM     26  C   LIG A   1       2.865   2.049  -0.127  0.00  0.00    +0.008 C 
BRANCH  25  27
ATOM     27  C   LIG A   1       1.357   3.047  -1.866  0.00  0.00    +0.007 C 
BRANCH  27  28
ATOM     28  C   LIG A   1       1.659   4.517  -1.522  0.00  0.00    +0.028 C 
BRANCH  28  29
ATOM     29  C   LIG A   1       1.593   5.405  -2.739  0.00  0.00    -0.021 C 
ATOM     30  C   LIG A   1       0.538   6.125  -3.161  0.00  0.00    -0.015 C 
ATOM     31  C   LIG A   1      -0.825   6.203  -2.547  0.00  0.00    +0.046 C 
BRANCH  30  32
ATOM     32  C   LIG A   1       0.722   6.933  -4.404  0.00  0.00    +0.254 C 
ATOM     33  O   LIG A   1      -0.041   7.819  -4.734  0.00  0.00    -0.296 OA
ENDBRANCH  30  32
ENDBRANCH  28  29
ENDBRANCH  27  28
ENDBRANCH  25  27
ENDBRANCH  20  25
TORSDOF 6
