@<TRIPOS>MOLECULE
NuBBE_102
 69 73 0 0 0
SMALL
GASTEIGER

@<TRIPOS>ATOM
      1 C           1.1713    1.7996    3.2444 C.2     1  LIG1       -0.1022
      2 C           0.6401    0.5740    3.3055 C.2     1  LIG1       -0.0816
      3 C           1.0308   -0.6408    2.4844 C.3     1  LIG1        0.0467
      4 C           2.1738   -0.5350    1.3966 C.3     1  LIG1        0.2102
      5 H           3.0110   -0.0398    1.9034 H       1  LIG1        0.1062
      6 O           2.6515   -1.8515    1.0789 O.2     1  LIG1       -0.4699
      7 C           1.7701   -2.8835    1.0817 C.2     1  LIG1        0.0981
      8 C           0.5115   -2.8753    1.5445 C.2     1  LIG1        0.0745
      9 C          -0.1461   -1.6401    2.1237 C.3     1  LIG1        0.0075
     10 C          -1.3256   -1.0040    1.3181 C.3     1  LIG1       -0.0241
     11 C          -2.5971   -1.8518    0.9284 C.3     1  LIG1        0.0489
     12 H          -3.0579   -2.2636    1.8376 H       1  LIG1        0.0525
     13 C          -3.5919   -0.9376    0.2504 C.ar    1  LIG1        0.0374
     14 C          -3.7609   -0.7960   -1.1159 C.ar    1  LIG1       -0.0164
     15 C          -3.0601   -1.6855   -2.0845 C.3     1  LIG1       -0.0128
     16 C          -1.9730   -2.5151   -1.3618 C.3     1  LIG1        0.0005
     17 N          -2.3934   -2.9586   -0.0222 N.3     1  LIG1       -0.3078
     18 C          -4.6751    0.2628   -1.3352 C.ar    1  LIG1        0.0032
     19 C          -5.1626    0.9184   -2.4817 C.ar    1  LIG1       -0.0523
     20 C          -6.1228    1.9242   -2.3361 C.ar    1  LIG1       -0.0611
     21 C          -6.6093    2.2624   -1.0749 C.ar    1  LIG1       -0.0598
     22 C          -6.1317    1.6322    0.0793 C.ar    1  LIG1       -0.0378
     23 C          -5.1492    0.6488   -0.0788 C.ar    1  LIG1        0.0470
     24 N          -4.4844   -0.1061    0.8678 N.ar    1  LIG1       -0.3565
     25 C          -0.0987   -4.2039    1.7871 C.2     1  LIG1        0.3360
     26 O           0.4709   -5.1899    1.0667 O.3     1  LIG1       -0.4773
     27 O          -1.0319   -4.4145    2.5098 O.2     1  LIG1       -0.2454
     28 O           1.9718    0.2268    0.1772 O.3     1  LIG1       -0.3093
     29 C           3.1551    0.0771   -0.6725 C.3     1  LIG1        0.1918
     30 H           3.3349   -0.9945   -0.7749 H       1  LIG1        0.0939
     31 O           4.3600    0.6045   -0.0935 O.3     1  LIG1       -0.3404
     32 C           4.6201    2.0069   -0.2470 C.3     1  LIG1        0.1130
     33 H           5.6854    2.1210   -0.0032 H       1  LIG1        0.0647
     34 C           4.4405    2.5126   -1.6919 C.3     1  LIG1        0.1119
     35 H           4.5046    3.6051   -1.7386 H       1  LIG1        0.0647
     36 C           3.1025    2.0377   -2.2824 C.3     1  LIG1        0.1141
     37 H           3.0841    2.2928   -3.3498 H       1  LIG1        0.0648
     38 O           2.0148    2.7115   -1.6507 O.3     1  LIG1       -0.3864
     39 O           5.5169    2.0026   -2.5074 O.3     1  LIG1       -0.3865
     40 C           3.8506    2.8186    0.7917 C.3     1  LIG1        0.0730
     41 O           4.0697    4.2158    0.6583 O.3     1  LIG1       -0.3924
     42 C           2.9795    0.5187   -2.1449 C.3     1  LIG1        0.1342
     43 H           2.0055    0.1786   -2.5108 H       1  LIG1        0.0671
     44 O           3.9700   -0.1222   -2.9786 O.3     1  LIG1       -0.3841
     45 H           0.8919    2.5719    3.9559 H       1  LIG1        0.0532
     46 H           1.9267    2.0642    2.5238 H       1  LIG1        0.0532
     47 H          -0.0582    0.3834    4.1213 H       1  LIG1        0.0571
     48 H           1.5604   -1.2153    3.2707 H       1  LIG1        0.0410
     49 H           2.2929   -3.7685    0.7384 H       1  LIG1        0.1029
     50 H          -0.5841   -1.9293    3.0929 H       1  LIG1        0.0360
     51 H          -0.9361   -0.5228    0.4156 H       1  LIG1        0.0290
     52 H          -1.7054   -0.1731    1.9345 H       1  LIG1        0.0290
     53 H          -2.6150   -1.1059   -2.9003 H       1  LIG1        0.0326
     54 H          -3.7989   -2.3653   -2.5302 H       1  LIG1        0.0326
     55 H          -1.0498   -1.9303   -1.2904 H       1  LIG1        0.0427
     56 H          -1.7334   -3.3899   -1.9759 H       1  LIG1        0.0427
     57 H          -1.7963   -3.6805    0.3499 H       1  LIG1        0.1226
     58 H          -4.7920    0.6527   -3.4672 H       1  LIG1        0.0624
     59 H          -6.4979    2.4373   -3.2178 H       1  LIG1        0.0618
     60 H          -7.3737    3.0303   -0.9848 H       1  LIG1        0.0618
     61 H          -6.5150    1.8971    1.0585 H       1  LIG1        0.0638
     62 H          -4.6297   -0.0310    1.8643 H       1  LIG1        0.1656
     63 H          -0.0055   -6.0031    1.3244 H       1  LIG1        0.2954
     64 H           1.2483    2.1053   -1.6506 H       1  LIG1        0.2100
     65 H           6.3437    2.3931   -2.1622 H       1  LIG1        0.2100
     66 H           2.7803    2.6278    0.7330 H       1  LIG1        0.0584
     67 H           4.1772    2.5184    1.7941 H       1  LIG1        0.0584
     68 H           3.3671    4.5482    0.0675 H       1  LIG1        0.2095
     69 H           4.7775    0.4416   -2.9636 H       1  LIG1        0.2101
@<TRIPOS>BOND
     1     1     2    2
     2     2     3    1
     3     3     4    1
     4     4     6    1
     5     6     7    1
     6     7     8    2
     7     8     9    1
     8     3     9    1
     9     9    10    1
    10    10    11    1
    11    11    12    1
    12    11    13    1
    13    13    14   ar
    14    14    15    1
    15    15    16    1
    16    16    17    1
    17    11    17    1
    18    14    18   ar
    19    18    19   ar
    20    19    20   ar
    21    20    21   ar
    22    21    22   ar
    23    22    23   ar
    24    18    23   ar
    25    23    24   ar
    26    13    24   ar
    27     8    25    1
    28    25    26    1
    29    25    27    2
    30    28    29    1
    31    29    30    1
    32    29    31    1
    33    31    32    1
    34    32    34    1
    35    34    35    1
    36    34    36    1
    37    34    39    1
    38    40    41    1
    39    29    42    1
    40    36    42    1
    41     4    28    1
    42     4     5    1
    43    32    40    1
    44    32    33    1
    45    36    38    1
    46    36    37    1
    47    42    44    1
    48    42    43    1
    49     1    45    1
    50     1    46    1
    51     2    47    1
    52     3    48    1
    53     7    49    1
    54     9    50    1
    55    10    51    1
    56    10    52    1
    57    15    53    1
    58    15    54    1
    59    16    55    1
    60    16    56    1
    61    17    57    1
    62    19    58    1
    63    20    59    1
    64    21    60    1
    65    22    61    1
    66    24    62    1
    67    26    63    1
    68    38    64    1
    69    39    65    1
    70    40    66    1
    71    40    67    1
    72    41    68    1
    73    44    69    1
