REMARK  Name = NuBBE_1078
REMARK  5 active torsions:
REMARK  status: ('A' for Active; 'I' for Inactive)
REMARK    1  A    between atoms: C_8  and  C_9
REMARK    2  A    between atoms: C_8  and  C_10
REMARK    3  A    between atoms: C_14  and  O_15
REMARK    4  A    between atoms: N_16  and  C_17
REMARK    5  A    between atoms: C_19  and  O_20
REMARK                            x       y       z     vdW  Elec       q    Type
REMARK                         _______ _______ _______ _____ _____    ______ ____
ROOT
ATOM      1  O   LIG A   1      -3.813   1.547  -0.214  0.00  0.00    -0.286 OA
ATOM      2  C   LIG A   1      -2.597   1.490  -0.198  0.00  0.00    +0.201 A 
ATOM      3  C   LIG A   1      -1.861   0.200  -0.179  0.00  0.00    +0.088 A 
ATOM      4  C   LIG A   1      -0.456   0.224  -0.355  0.00  0.00    +0.067 A 
ATOM      5  C   LIG A   1       0.177  -1.035  -0.543  0.00  0.00    +0.041 A 
ATOM      6  C   LIG A   1      -0.524  -2.231  -0.279  0.00  0.00    +0.134 A 
ATOM      7  O   LIG A   1       0.103  -3.458  -0.221  0.00  0.00    -0.481 OA
ATOM      8  C   LIG A   1       1.507  -3.383   0.133  0.00  0.00    +0.123 C 
ATOM      9  C   LIG A   1       2.113  -4.756  -0.176  0.00  0.00    +0.060 C 
ATOM     10  C   LIG A   1       1.640  -3.114   1.643  0.00  0.00    +0.060 C 
ATOM     11  C   LIG A   1       2.198  -2.325  -0.697  0.00  0.00    +0.020 C 
ATOM     12  C   LIG A   1       1.541  -1.217  -1.061  0.00  0.00    +0.013 C 
ATOM     13  C   LIG A   1      -1.885  -2.230  -0.026  0.00  0.00    +0.092 A 
ATOM     14  C   LIG A   1      -2.559  -1.017  -0.006  0.00  0.00    +0.133 A 
ATOM     15  N   LIG A   1       0.244   1.478  -0.288  0.00  0.00    -0.339 N 
ATOM     16  C   LIG A   1       1.609   1.413   0.255  0.00  0.00    +0.149 C 
ATOM     17  C   LIG A   1      -0.422   2.738  -0.217  0.00  0.00    +0.095 A 
ATOM     18  C   LIG A   1       0.189   4.016  -0.156  0.00  0.00    +0.141 A 
ATOM     19  C   LIG A   1      -0.558   5.206  -0.132  0.00  0.00    +0.047 A 
ATOM     20  C   LIG A   1      -1.942   5.177  -0.178  0.00  0.00    +0.004 A 
ATOM     21  C   LIG A   1      -2.580   3.949  -0.217  0.00  0.00    +0.014 A 
ATOM     22  C   LIG A   1      -1.832   2.754  -0.227  0.00  0.00    +0.050 A 
ENDROOT
BRANCH  14  23
ATOM     23  O   LIG A   1      -3.902  -1.038   0.246  0.00  0.00    -0.506 OA
ATOM     24  H   LIG A   1      -4.236  -1.949   0.257  0.00  0.00    +0.292 HD
ENDBRANCH  14  23
BRANCH  18  25
ATOM     25  O   LIG A   1       1.538   4.260  -0.108  0.00  0.00    -0.505 OA
ATOM     26  H   LIG A   1       2.004   3.544  -0.556  0.00  0.00    +0.292 HD
ENDBRANCH  18  25
TORSDOF 2
