@<TRIPOS>MOLECULE
NuBBE_1430
 81 85 0 0 0
SMALL
GASTEIGER

@<TRIPOS>ATOM
      1 O           1.7544   -1.3513   -4.0200 O.3     1  LIG1       -0.3912
      2 C           3.0742   -0.8131   -4.0335 C.3     1  LIG1        0.0607
      3 H           3.4408   -1.0405   -5.0418 H       1  LIG1        0.0599
      4 C           3.0006    0.7797   -3.8605 C.3     1  LIG1       -0.0256
      5 C           2.3015    1.2264   -2.5917 C.3     1  LIG1       -0.0413
      6 C           2.7137    0.4993   -1.2934 C.3     1  LIG1       -0.0073
      7 C           3.8900    1.1703   -0.5879 C.3     1  LIG1       -0.0556
      8 C           3.1084   -0.9516   -1.6441 C.3     1  LIG1       -0.0242
      9 C           3.1570   -1.8524   -0.3737 C.3     1  LIG1       -0.0451
     10 C           1.7917   -1.9009    0.2502 C.3     1  LIG1       -0.0306
     11 C           1.0647   -0.5540    0.3347 C.2     1  LIG1       -0.0633
     12 C           1.4659    0.5043   -0.3151 C.2     1  LIG1       -0.0636
     13 C           0.7721    1.8867   -0.2584 C.3     1  LIG1       -0.0304
     14 C          -0.7340    1.8194    0.0416 C.3     1  LIG1       -0.0428
     15 C          -0.9744    1.0219    1.3211 C.3     1  LIG1       -0.0191
     16 C          -0.1756    1.9883    2.3846 C.3     1  LIG1       -0.0585
     17 C          -0.3703   -0.6804    0.9190 C.3     1  LIG1       -0.0051
     18 C          -0.9347   -1.6504   -0.2974 C.3     1  LIG1       -0.0553
     19 C          -0.6504   -1.7592    2.0477 C.3     1  LIG1       -0.0429
     20 C          -2.1553   -1.7825    2.3678 C.3     1  LIG1       -0.0465
     21 C          -2.7465   -0.3662    2.4025 C.3     1  LIG1       -0.0284
     22 C          -1.8055   -0.0916    3.7480 C.3     1  LIG1       -0.0593
     23 C          -2.4964    1.1285    2.0034 C.3     1  LIG1       -0.0266
     24 C          -3.9846    1.6925    1.4138 C.3     1  LIG1       -0.0374
     25 H          -3.8104    1.9170    0.3486 H       1  LIG1        0.0304
     26 C          -4.5777    3.0060    1.8841 C.3     1  LIG1       -0.0619
     27 C          -5.0120    0.4783    1.5838 C.3     1  LIG1       -0.0410
     28 H          -4.6667   -0.0789    2.4506 H       1  LIG1        0.0301
     29 C          -6.4203    0.3956    2.1011 C.3     1  LIG1       -0.0622
     30 C          -4.6596   -0.4063    0.4431 C.3     1  LIG1       -0.0497
     31 C          -3.1625   -0.4471    0.6653 C.3     1  LIG1       -0.0471
     32 C           4.0951   -1.2443   -2.8778 C.3     1  LIG1       -0.0053
     33 C           5.0200   -2.3275   -2.2533 C.3     1  LIG1       -0.0572
     34 C           5.3378   -0.6067   -3.6324 C.3     1  LIG1       -0.0572
     35 H           1.1148   -0.6357   -3.8438 H       1  LIG1        0.2098
     36 H           2.5293    1.2536   -4.7256 H       1  LIG1        0.0290
     37 H           3.9884    1.2562   -3.7882 H       1  LIG1        0.0290
     38 H           1.2434    1.0527   -2.7996 H       1  LIG1        0.0274
     39 H           2.4528    2.3040   -2.4896 H       1  LIG1        0.0274
     40 H           4.8328    0.9207   -1.0735 H       1  LIG1        0.0238
     41 H           3.9550    0.8612    0.4619 H       1  LIG1        0.0238
     42 H           3.7789    2.2528   -0.5996 H       1  LIG1        0.0238
     43 H           2.1765   -1.3611   -1.9977 H       1  LIG1        0.0315
     44 H           3.8988   -1.5384    0.3269 H       1  LIG1        0.0271
     45 H           3.3036   -2.9209   -0.5954 H       1  LIG1        0.0271
     46 H           1.7981   -2.4545    1.1950 H       1  LIG1        0.0310
     47 H           1.2875   -2.5699   -0.4591 H       1  LIG1        0.0310
     48 H           0.8650    2.4620   -1.1748 H       1  LIG1        0.0310
     49 H           1.3400    2.5275    0.4326 H       1  LIG1        0.0310
     50 H          -1.2343    1.3713   -0.8184 H       1  LIG1        0.0274
     51 H          -1.1197    2.8408    0.1193 H       1  LIG1        0.0274
     52 H           0.8735    2.2040    2.1980 H       1  LIG1        0.0235
     53 H          -0.2054    1.7345    3.4425 H       1  LIG1        0.0235
     54 H          -0.6821    2.9759    2.3627 H       1  LIG1        0.0235
     55 H          -0.9330   -1.2077   -1.2837 H       1  LIG1        0.0238
     56 H          -1.7997   -2.2915   -0.1129 H       1  LIG1        0.0238
     57 H          -0.3793   -2.5922   -0.3554 H       1  LIG1        0.0238
     58 H          -0.0125   -1.6525    2.9381 H       1  LIG1        0.0274
     59 H          -0.4245   -2.7990    1.7545 H       1  LIG1        0.0274
     60 H          -2.3694   -2.3147    3.3104 H       1  LIG1        0.0271
     61 H          -2.7371   -2.4327    1.7036 H       1  LIG1        0.0271
     62 H          -2.0809    0.7778    4.3532 H       1  LIG1        0.0235
     63 H          -0.7303   -0.0083    3.5560 H       1  LIG1        0.0235
     64 H          -1.8361   -0.8933    4.4922 H       1  LIG1        0.0235
     65 H          -2.4411    1.8325    2.8476 H       1  LIG1        0.0314
     66 H          -5.0958    2.9301    2.8405 H       1  LIG1        0.0233
     67 H          -5.3283    3.3184    1.1377 H       1  LIG1        0.0233
     68 H          -3.8252    3.7966    1.9187 H       1  LIG1        0.0233
     69 H          -7.1301    1.0867    1.6706 H       1  LIG1        0.0233
     70 H          -6.3834    0.5229    3.1967 H       1  LIG1        0.0233
     71 H          -6.7765   -0.6407    1.9677 H       1  LIG1        0.0233
     72 H          -4.8907    0.0161   -0.5489 H       1  LIG1        0.0268
     73 H          -5.0503   -1.4278    0.4725 H       1  LIG1        0.0268
     74 H          -2.7221    0.3312    0.0220 H       1  LIG1        0.0271
     75 H          -2.9868   -1.2884    0.0565 H       1  LIG1        0.0271
     76 H           4.6470   -3.1523   -1.6618 H       1  LIG1        0.0236
     77 H           5.6261   -1.7366   -1.5237 H       1  LIG1        0.0236
     78 H           5.7596   -2.8142   -2.8889 H       1  LIG1        0.0236
     79 H           5.1597   -0.0129   -4.5380 H       1  LIG1        0.0236
     80 H           5.8805   -1.4225   -4.1495 H       1  LIG1        0.0236
     81 H           6.0121   -0.0708   -2.9794 H       1  LIG1        0.0236
@<TRIPOS>BOND
     1     2     4    1
     2     4     5    1
     3     5     6    1
     4     6     8    1
     5     8     9    1
     6     9    10    1
     7    10    11    1
     8    11    12    2
     9     6    12    1
    10    12    13    1
    11    13    14    1
    12    14    15    1
    13    15    17    1
    14    11    17    1
    15    17    19    1
    16    19    20    1
    17    20    21    1
    18    21    23    1
    19    15    23    1
    20    23    24    1
    21    24    27    1
    22    27    30    1
    23    30    31    1
    24    21    31    1
    25     8    32    1
    26     2    32    1
    27     1     2    1
    28     2     3    1
    29     6     7    1
    30    15    16    1
    31    17    18    1
    32    21    22    1
    33    32    33    1
    34    32    34    1
    35    24    26    1
    36    24    25    1
    37    27    29    1
    38    27    28    1
    39     1    35    1
    40     4    36    1
    41     4    37    1
    42     5    38    1
    43     5    39    1
    44     7    40    1
    45     7    41    1
    46     7    42    1
    47     8    43    1
    48     9    44    1
    49     9    45    1
    50    10    46    1
    51    10    47    1
    52    13    48    1
    53    13    49    1
    54    14    50    1
    55    14    51    1
    56    16    52    1
    57    16    53    1
    58    16    54    1
    59    18    55    1
    60    18    56    1
    61    18    57    1
    62    19    58    1
    63    19    59    1
    64    20    60    1
    65    20    61    1
    66    22    62    1
    67    22    63    1
    68    22    64    1
    69    23    65    1
    70    26    66    1
    71    26    67    1
    72    26    68    1
    73    29    69    1
    74    29    70    1
    75    29    71    1
    76    30    72    1
    77    30    73    1
    78    31    74    1
    79    31    75    1
    80    33    76    1
    81    33    77    1
    82    33    78    1
    83    34    79    1
    84    34    80    1
    85    34    81    1
