REMARK  Name = NuBBE_1153
REMARK  12 active torsions:
REMARK  status: ('A' for Active; 'I' for Inactive)
REMARK    1  A    between atoms: C_2  and  O_3
REMARK    2  A    between atoms: C_2  and  C_5
REMARK    3  A    between atoms: O_3  and  C_4
REMARK    4  A    between atoms: C_5  and  C_6
REMARK    5  A    between atoms: C_6  and  C_7
REMARK    6  A    between atoms: C_7  and  C_8
REMARK    7  A    between atoms: C_8  and  C_9
REMARK    8  A    between atoms: C_9  and  C_10
REMARK    9  A    between atoms: C_10  and  C_11
REMARK   10  A    between atoms: C_11  and  C_12
REMARK   11  A    between atoms: C_12  and  C_13
REMARK   12  A    between atoms: C_13  and  C_14
REMARK                            x       y       z     vdW  Elec       q    Type
REMARK                         _______ _______ _______ _____ _____    ______ ____
ROOT
ATOM      1  C   LIG A   1      -0.188   0.404  -0.972  0.00  0.00    +0.000 C 
ENDROOT
BRANCH   1   2
ATOM      2  C   LIG A   1      -1.306   0.360   0.073  0.00  0.00    -0.000 C 
BRANCH   2   3
ATOM      3  C   LIG A   1      -0.748   0.195   1.492  0.00  0.00    +0.000 C 
BRANCH   3   4
ATOM      4  C   LIG A   1      -1.876   0.129   2.528  0.00  0.00    +0.000 C 
BRANCH   4   5
ATOM      5  C   LIG A   1      -1.344  -0.012   3.956  0.00  0.00    +0.011 C 
BRANCH   5   6
ATOM      6  C   LIG A   1      -2.479  -0.081   4.983  0.00  0.00    +0.120 C 
BRANCH   6   8
ATOM      7  O   LIG A   1      -0.900  -0.809   6.671  0.00  0.00    -0.251 OA
ATOM      8  C   LIG A   1      -1.941  -0.228   6.386  0.00  0.00    +0.307 C 
BRANCH   8   9
ATOM      9  O   LIG A   1      -2.784   0.355   7.278  0.00  0.00    -0.468 OA
ATOM     10  C   LIG A   1      -2.365   0.360   8.647  0.00  0.00    +0.280 C 
ENDBRANCH   8   9
ENDBRANCH   6   8
ENDBRANCH   5   6
ENDBRANCH   4   5
ENDBRANCH   3   4
ENDBRANCH   2   3
ENDBRANCH   1   2
BRANCH   1  11
ATOM     11  C   LIG A   1      -0.744   0.561  -2.392  0.00  0.00    +0.000 C 
BRANCH  11  12
ATOM     12  C   LIG A   1       0.342   0.632  -3.476  0.00  0.00    +0.005 C 
BRANCH  12  13
ATOM     13  C   LIG A   1       1.213  -0.628  -3.541  0.00  0.00    +0.035 C 
BRANCH  13  14
ATOM     14  C   LIG A   1       2.260  -0.563  -4.626  0.00  0.00    -0.047 A 
ATOM     15  C   LIG A   1       3.530  -0.030  -4.357  0.00  0.00    +0.003 A 
ATOM     16  C   LIG A   1       4.505   0.017  -5.356  0.00  0.00    +0.000 A 
ATOM     17  C   LIG A   1       4.220  -0.464  -6.632  0.00  0.00    +0.000 A 
ATOM     18  C   LIG A   1       2.961  -0.994  -6.910  0.00  0.00    +0.000 A 
ATOM     19  C   LIG A   1       1.984  -1.040  -5.913  0.00  0.00    +0.003 A 
ENDBRANCH  13  14
ENDBRANCH  12  13
ENDBRANCH  11  12
ENDBRANCH   1  11
TORSDOF 11
