REMARK  Name = NuBBE_2142
REMARK  10 active torsions:
REMARK  status: ('A' for Active; 'I' for Inactive)
REMARK    1  A    between atoms: O_1  and  C_2
REMARK    2  A    between atoms: C_2  and  C_3
REMARK    3  A    between atoms: C_3  and  C_4
REMARK    4  A    between atoms: C_4  and  C_5
REMARK    5  A    between atoms: C_5  and  C_6
REMARK    6  A    between atoms: C_6  and  C_7
REMARK    7  A    between atoms: C_7  and  C_8
REMARK    8  A    between atoms: C_8  and  C_9
REMARK    9  A    between atoms: C_9  and  C_10
REMARK   10  A    between atoms: C_10  and  C_11
REMARK                            x       y       z     vdW  Elec       q    Type
REMARK                         _______ _______ _______ _____ _____    ______ ____
ROOT
ATOM      1  C   LIG A   1       0.594   1.188  -1.425  0.00  0.00    +0.000 C 
ENDROOT
BRANCH   1   2
ATOM      2  C   LIG A   1      -0.140   2.093  -2.414  0.00  0.00    +0.011 C 
BRANCH   2   3
ATOM      3  C   LIG A   1       0.846   2.868  -3.281  0.00  0.00    +0.120 C 
BRANCH   3   4
ATOM      4  C   LIG A   1       0.118   3.758  -4.253  0.00  0.00    +0.305 C 
ATOM      5  O   LIG A   1      -0.227   3.408  -5.372  0.00  0.00    -0.251 OA
BRANCH   4   6
ATOM      6  O   LIG A   1      -0.153   4.986  -3.760  0.00  0.00    -0.481 OA
ATOM      7  H   LIG A   1       0.166   5.126  -2.848  0.00  0.00    +0.295 HD
ENDBRANCH   4   6
ENDBRANCH   3   4
ENDBRANCH   2   3
ENDBRANCH   1   2
BRANCH   1   8
ATOM      8  C   LIG A   1      -0.380   0.401  -0.548  0.00  0.00    +0.000 C 
BRANCH   8   9
ATOM      9  C   LIG A   1       0.369  -0.490   0.446  0.00  0.00    -0.000 C 
BRANCH   9  10
ATOM     10  C   LIG A   1      -0.602  -1.289   1.317  0.00  0.00    -0.000 C 
BRANCH  10  11
ATOM     11  C   LIG A   1       0.141  -2.172   2.322  0.00  0.00    -0.000 C 
BRANCH  11  12
ATOM     12  C   LIG A   1      -0.834  -2.983   3.177  0.00  0.00    -0.003 C 
ATOM     13  C   LIG A   1      -0.109  -3.859   4.187  0.00  0.00    +0.004 C 
ENDBRANCH  11  12
ENDBRANCH  10  11
ENDBRANCH   9  10
ENDBRANCH   8   9
ENDBRANCH   1   8
TORSDOF 9
