@<TRIPOS>MOLECULE
NuBBE_979
 66 68 0 0 0
SMALL
GASTEIGER

@<TRIPOS>ATOM
      1 O          -6.5344   -2.8476    3.0067 O.2     1  LIG1       -0.2702
      2 C          -7.1722   -1.8939    2.5675 C.2     1  LIG1        0.2441
      3 N          -6.6173   -0.8847    1.8064 N.am    1  LIG1       -0.3110
      4 C          -5.2127   -0.8706    1.4400 C.3     1  LIG1        0.0159
      5 C          -4.9617   -1.5924    0.1137 C.3     1  LIG1       -0.0120
      6 C          -3.5105   -1.5453   -0.2992 C.ar    1  LIG1       -0.0457
      7 C          -2.6138   -2.5348    0.1237 C.ar    1  LIG1       -0.0551
      8 C          -1.2628   -2.4671   -0.2340 C.ar    1  LIG1       -0.0197
      9 C          -0.7888   -1.4049   -1.0044 C.ar    1  LIG1        0.1210
     10 O           0.5607   -1.3898   -1.2469 O.3     1  LIG1       -0.4880
     11 C           1.1244   -0.0810   -1.4054 C.3     1  LIG1        0.1082
     12 C           2.5844   -0.1281   -1.0458 C.2     1  LIG1       -0.0447
     13 C           3.4526    0.9080   -1.0967 C.2     1  LIG1       -0.0333
     14 C           3.0419    2.3099   -1.4752 C.3     1  LIG1       -0.0402
     15 C           4.9539    0.6628   -0.9199 C.3     1  LIG1        0.1264
     16 O           5.6025    1.0768   -2.1436 O.3     1  LIG1       -0.4570
     17 C           5.4696    0.2172   -3.1890 C.2     1  LIG1        0.3045
     18 C           5.9848    0.8547   -4.4353 C.3     1  LIG1        0.0333
     19 O           4.9856   -0.9115   -3.1427 O.2     1  LIG1       -0.2511
     20 C           5.5883    1.4518    0.2406 C.3     1  LIG1        0.0173
     21 C           7.0605    1.1488    0.3874 C.3     1  LIG1        0.0915
     22 O           7.6742    1.8701    1.4717 O.3     1  LIG1       -0.3652
     23 C           8.1940    2.1513    0.1672 C.3     1  LIG1        0.0906
     24 C           9.5882    1.6362   -0.0390 C.3     1  LIG1       -0.0336
     25 C           7.9356    3.5472   -0.3075 C.3     1  LIG1       -0.0336
     26 C          -1.6879   -0.4478   -1.4756 C.ar    1  LIG1       -0.0197
     27 C          -3.0356   -0.5054   -1.1077 C.ar    1  LIG1       -0.0551
     28 H          -7.1775   -0.0802    1.5588 H       1  LIG1        0.1490
     29 C          -8.6263   -1.7571    2.8603 C.ar    1  LIG1        0.0367
     30 C          -9.4887   -1.1485    1.9372 C.ar    1  LIG1       -0.0496
     31 C         -10.8474   -1.0208    2.2246 C.ar    1  LIG1       -0.0610
     32 C         -11.3546   -1.5094    3.4272 C.ar    1  LIG1       -0.0617
     33 C         -10.5047   -2.1270    4.3459 C.ar    1  LIG1       -0.0610
     34 C          -9.1414   -2.2541    4.0641 C.ar    1  LIG1       -0.0496
     35 H          -4.6302   -1.3283    2.2472 H       1  LIG1        0.0465
     36 H          -4.9151    0.1817    1.3702 H       1  LIG1        0.0465
     37 H          -5.5765   -1.1413   -0.6770 H       1  LIG1        0.0328
     38 H          -5.2925   -2.6361    0.1798 H       1  LIG1        0.0328
     39 H          -2.9607   -3.3647    0.7369 H       1  LIG1        0.0621
     40 H          -0.5760   -3.2382    0.1066 H       1  LIG1        0.0654
     41 H           0.6226    0.6407   -0.7512 H       1  LIG1        0.0742
     42 H           1.0221    0.2129   -2.4576 H       1  LIG1        0.0742
     43 H           2.9627   -1.1192   -0.7974 H       1  LIG1        0.0606
     44 H           1.9880    2.3816   -1.7589 H       1  LIG1        0.0276
     45 H           3.6207    2.6665   -2.3336 H       1  LIG1        0.0276
     46 H           3.2037    2.9974   -0.6398 H       1  LIG1        0.0276
     47 H           5.1594   -0.4025   -0.7469 H       1  LIG1        0.0783
     48 H           5.4702    1.8054   -4.6013 H       1  LIG1        0.0342
     49 H           5.7786    0.2008   -5.2879 H       1  LIG1        0.0342
     50 H           7.0637    1.0072   -4.3548 H       1  LIG1        0.0342
     51 H           5.0861    1.1854    1.1790 H       1  LIG1        0.0330
     52 H           5.4385    2.5241    0.0926 H       1  LIG1        0.0330
     53 H           7.2884    0.0924    0.3030 H       1  LIG1        0.0626
     54 H           9.7668    0.7064    0.5118 H       1  LIG1        0.0258
     55 H          10.3275    2.3689    0.3035 H       1  LIG1        0.0258
     56 H           9.7673    1.4412   -1.1009 H       1  LIG1        0.0258
     57 H           7.9326    3.5757   -1.4015 H       1  LIG1        0.0258
     58 H           8.7181    4.2257    0.0492 H       1  LIG1        0.0258
     59 H           6.9842    3.9510    0.0478 H       1  LIG1        0.0258
     60 H          -1.3653    0.3517   -2.1345 H       1  LIG1        0.0654
     61 H          -3.7129    0.2669   -1.4645 H       1  LIG1        0.0621
     62 H          -9.1204   -0.7900    0.9815 H       1  LIG1        0.0625
     63 H         -11.5096   -0.5453    1.5058 H       1  LIG1        0.0618
     64 H         -12.4153   -1.4119    3.6464 H       1  LIG1        0.0618
     65 H         -10.9059   -2.5082    5.2823 H       1  LIG1        0.0618
     66 H          -8.4838   -2.7308    4.7887 H       1  LIG1        0.0625
@<TRIPOS>BOND
     1     1     2    2
     2     2     3   am
     3     3     4    1
     4     4     5    1
     5     5     6    1
     6     6     7   ar
     7     7     8   ar
     8     8     9   ar
     9     9    10    1
    10    10    11    1
    11    11    12    1
    12    12    13    2
    13    13    14    1
    14    13    15    1
    15    15    16    1
    16    16    17    1
    17    17    18    1
    18    17    19    2
    19    15    20    1
    20    20    21    1
    21    21    22    1
    22    21    23    1
    23    23    24    1
    24    22    23    1
    25    23    25    1
    26     9    26   ar
    27    26    27   ar
    28     6    27   ar
    29     3    28    1
    30     2    29    1
    31    29    30   ar
    32    30    31   ar
    33    31    32   ar
    34    32    33   ar
    35    33    34   ar
    36    29    34   ar
    37     4    35    1
    38     4    36    1
    39     5    37    1
    40     5    38    1
    41     7    39    1
    42     8    40    1
    43    11    41    1
    44    11    42    1
    45    12    43    1
    46    14    44    1
    47    14    45    1
    48    14    46    1
    49    15    47    1
    50    18    48    1
    51    18    49    1
    52    18    50    1
    53    20    51    1
    54    20    52    1
    55    21    53    1
    56    24    54    1
    57    24    55    1
    58    24    56    1
    59    25    57    1
    60    25    58    1
    61    25    59    1
    62    26    60    1
    63    27    61    1
    64    30    62    1
    65    31    63    1
    66    32    64    1
    67    33    65    1
    68    34    66    1
