REMARK  Name = NuBBE_1079
REMARK  7 active torsions:
REMARK  status: ('A' for Active; 'I' for Inactive)
REMARK    1  A    between atoms: C_5  and  O_6
REMARK    2  A    between atoms: O_6  and  C_7
REMARK    3  A    between atoms: C_10  and  C_11
REMARK    4  A    between atoms: C_10  and  C_12
REMARK    5  A    between atoms: C_16  and  O_17
REMARK    6  A    between atoms: N_18  and  C_19
REMARK    7  A    between atoms: C_21  and  O_22
REMARK                            x       y       z     vdW  Elec       q    Type
REMARK                         _______ _______ _______ _____ _____    ______ ____
ROOT
ATOM      1  O   LIG A   1      -3.308  -2.067  -0.045  0.00  0.00    -0.286 OA
ATOM      2  C   LIG A   1      -2.079  -2.063  -0.023  0.00  0.00    +0.201 A 
ATOM      3  C   LIG A   1      -1.347  -0.775  -0.049  0.00  0.00    +0.091 A 
ATOM      4  C   LIG A   1       0.056  -0.800  -0.136  0.00  0.00    +0.102 A 
ATOM      5  C   LIG A   1       0.733   0.439  -0.104  0.00  0.00    +0.187 A 
ATOM      6  C   LIG A   1       0.035   1.661  -0.079  0.00  0.00    +0.176 A 
ATOM      7  O   LIG A   1       0.791   2.803  -0.105  0.00  0.00    -0.478 OA
ATOM      8  C   LIG A   1       0.148   4.090  -0.144  0.00  0.00    +0.124 C 
ATOM      9  C   LIG A   1       0.560   4.746  -1.467  0.00  0.00    +0.060 C 
ATOM     10  C   LIG A   1       0.724   4.890   1.031  0.00  0.00    +0.060 C 
ATOM     11  C   LIG A   1      -1.356   4.070  -0.041  0.00  0.00    +0.020 C 
ATOM     12  C   LIG A   1      -2.068   2.942   0.017  0.00  0.00    +0.015 C 
ATOM     13  C   LIG A   1      -1.361   1.667  -0.024  0.00  0.00    +0.062 A 
ATOM     14  C   LIG A   1      -2.049   0.444  -0.001  0.00  0.00    +0.141 A 
ATOM     15  N   LIG A   1       0.746  -2.049  -0.212  0.00  0.00    -0.337 N 
ATOM     16  C   LIG A   1       1.701  -2.088  -1.347  0.00  0.00    +0.149 C 
ATOM     17  C   LIG A   1       0.075  -3.280   0.004  0.00  0.00    +0.095 A 
ATOM     18  C   LIG A   1       0.765  -4.487   0.212  0.00  0.00    +0.141 A 
ATOM     19  C   LIG A   1       0.100  -5.702   0.364  0.00  0.00    +0.047 A 
ATOM     20  C   LIG A   1      -1.292  -5.730   0.357  0.00  0.00    +0.004 A 
ATOM     21  C   LIG A   1      -2.007  -4.541   0.225  0.00  0.00    +0.014 A 
ATOM     22  C   LIG A   1      -1.323  -3.327   0.066  0.00  0.00    +0.050 A 
ENDROOT
BRANCH   5  23
ATOM     23  O   LIG A   1       2.112   0.443  -0.135  0.00  0.00    -0.489 OA
ATOM     24  C   LIG A   1       2.636   0.700   1.169  0.00  0.00    +0.277 C 
ENDBRANCH   5  23
BRANCH  14  25
ATOM     25  O   LIG A   1      -3.424   0.480   0.066  0.00  0.00    -0.505 OA
ATOM     26  H   LIG A   1      -3.759  -0.446   0.034  0.00  0.00    +0.292 HD
ENDBRANCH  14  25
BRANCH  18  27
ATOM     27  O   LIG A   1       2.129  -4.504   0.345  0.00  0.00    -0.505 OA
ATOM     28  H   LIG A   1       2.380  -3.592   0.581  0.00  0.00    +0.292 HD
ENDBRANCH  18  27
TORSDOF 3
