REMARK  Name = NuBBE_2345
REMARK  11 active torsions:
REMARK  status: ('A' for Active; 'I' for Inactive)
REMARK    1  A    between atoms: C_1  and  O_2
REMARK    2  A    between atoms: O_2  and  C_3
REMARK    3  A    between atoms: C_4  and  O_5
REMARK    4  A    between atoms: O_5  and  C_6
REMARK    5  A    between atoms: C_7  and  O_8
REMARK    6  A    between atoms: O_8  and  C_9
REMARK    7  A    between atoms: C_11  and  C_12
REMARK    8  A    between atoms: C_17  and  O_18
REMARK    9  A    between atoms: C_19  and  O_20
REMARK   10  A    between atoms: O_20  and  C_21
REMARK   11  A    between atoms: C_24  and  C_26
REMARK                            x       y       z     vdW  Elec       q    Type
REMARK                         _______ _______ _______ _____ _____    ______ ____
ROOT
ATOM      1  C   LIG A   1       1.394   0.855   0.755  0.00  0.00    +0.211 C 
ATOM      2  O   LIG A   1       0.731   0.692   2.039  0.00  0.00    -0.483 OA
ATOM      3  C   LIG A   1       0.601  -0.665   2.179  0.00  0.00    +0.129 A 
ATOM      4  C   LIG A   1      -0.238  -1.255   3.108  0.00  0.00    +0.095 A 
ATOM      5  C   LIG A   1      -0.366  -2.648   3.072  0.00  0.00    +0.162 A 
ATOM      6  C   LIG A   1       0.343  -3.422   2.135  0.00  0.00    +0.162 A 
ATOM      7  C   LIG A   1       1.194  -2.785   1.212  0.00  0.00    +0.057 A 
ATOM      8  C   LIG A   1       1.312  -1.405   1.256  0.00  0.00    +0.005 A 
ATOM      9  C   LIG A   1       2.088  -0.484   0.380  0.00  0.00    +0.065 C 
ATOM     10  C   LIG A   1       3.570  -0.476   0.744  0.00  0.00    +0.016 C 
ENDROOT
BRANCH   1  15
ATOM     11  C   LIG A   1      -0.290   2.946  -1.989  0.00  0.00    +0.166 A 
ATOM     12  C   LIG A   1      -1.411   2.153  -2.317  0.00  0.00    +0.203 A 
ATOM     13  C   LIG A   1      -1.637   0.954  -1.605  0.00  0.00    +0.166 A 
ATOM     14  C   LIG A   1      -0.736   0.554  -0.614  0.00  0.00    +0.057 A 
ATOM     15  C   LIG A   1       0.383   1.326  -0.283  0.00  0.00    +0.000 A 
ATOM     16  C   LIG A   1       0.568   2.539  -0.953  0.00  0.00    +0.057 A 
BRANCH  11  18
ATOM     17  C   LIG A   1       1.293   4.519  -2.814  0.00  0.00    +0.277 C 
ATOM     18  O   LIG A   1      -0.065   4.112  -2.675  0.00  0.00    -0.491 OA
ENDBRANCH  11  18
BRANCH  12  19
ATOM     19  O   LIG A   1      -2.289   2.377  -3.353  0.00  0.00    -0.488 OA
ATOM     20  C   LIG A   1      -2.533   3.713  -3.766  0.00  0.00    +0.277 C 
ENDBRANCH  12  19
BRANCH  13  21
ATOM     21  O   LIG A   1      -2.755   0.218  -1.935  0.00  0.00    -0.491 OA
ATOM     22  C   LIG A   1      -3.023  -0.939  -1.146  0.00  0.00    +0.277 C 
ENDBRANCH  13  21
ENDBRANCH   1  15
BRANCH   5  23
ATOM     23  O   LIG A   1      -1.245  -3.225   3.952  0.00  0.00    -0.503 OA
ATOM     24  H   LIG A   1      -1.689  -2.531   4.462  0.00  0.00    +0.292 HD
ENDBRANCH   5  23
BRANCH   6  25
ATOM     25  O   LIG A   1       0.257  -4.777   1.945  0.00  0.00    -0.491 OA
ATOM     26  C   LIG A   1      -0.082  -5.566   3.078  0.00  0.00    +0.277 C 
ENDBRANCH   6  25
TORSDOF 6
