@<TRIPOS>MOLECULE
NuBBE_1989
 80 83 0 0 0
SMALL
GASTEIGER

@<TRIPOS>ATOM
      1 C          -3.7807   -2.3478   -1.6606 C.3     1  LIG1       -0.0590
      2 C          -2.2371   -2.1232   -1.8073 C.3     1  LIG1       -0.0257
      3 C          -1.9958   -0.5638   -1.9149 C.3     1  LIG1       -0.0323
      4 H          -2.6354   -0.2071   -2.7372 H       1  LIG1        0.0309
      5 C          -2.4559    0.1848   -0.6368 C.3     1  LIG1       -0.0344
      6 H          -3.5550    0.1194   -0.6321 H       1  LIG1        0.0306
      7 C          -2.2313    1.7320   -0.7177 C.3     1  LIG1       -0.0323
      8 H          -3.0440    2.1036   -1.3594 H       1  LIG1        0.0309
      9 C          -0.8820    2.2376   -1.3076 C.3     1  LIG1       -0.0259
     10 C          -0.4570    1.3657   -2.5022 C.3     1  LIG1       -0.0468
     11 C          -0.5644   -0.1391   -2.2885 C.3     1  LIG1       -0.0489
     12 C          -1.0595    3.6859   -1.8391 C.3     1  LIG1       -0.0590
     13 C           0.0520    2.2119   -0.0553 C.3     1  LIG1       -0.0328
     14 H           0.3187    1.1671    0.1377 H       1  LIG1        0.0309
     15 C          -0.8849    2.6807    1.0907 C.3     1  LIG1       -0.0492
     16 C          -2.3270    2.4494    0.6323 C.3     1  LIG1       -0.0492
     17 C           1.3705    3.0493   -0.0498 C.3     1  LIG1       -0.0403
     18 H           1.0931    4.1110   -0.1137 H       1  LIG1        0.0301
     19 C           2.1673    2.9047    1.2818 C.3     1  LIG1       -0.0465
     20 C           2.7843    1.5173    1.5271 C.3     1  LIG1       -0.0315
     21 C           3.5502    1.4458    2.8369 C.2     1  LIG1       -0.0740
     22 C           4.8719    1.7188    2.8576 C.2     1  LIG1       -0.0992
     23 C           2.7516    1.0456    4.0731 C.3     1  LIG1       -0.0258
     24 C           2.7284   -0.4763    4.2539 C.3     1  LIG1       -0.0590
     25 C           3.2335    1.7072    5.3703 C.3     1  LIG1       -0.0590
     26 C           2.2973    2.7743   -1.2364 C.3     1  LIG1       -0.0621
     27 C          -2.0499   -0.5405    0.6677 C.3     1  LIG1       -0.0494
     28 C          -1.1054   -1.7242    0.5038 C.3     1  LIG1       -0.0491
     29 C          -1.5504   -2.7527   -0.5486 C.3     1  LIG1       -0.0304
     30 H          -2.3301   -3.3395   -0.0367 H       1  LIG1        0.0310
     31 C          -0.4382   -3.8028   -0.8459 C.3     1  LIG1       -0.0145
     32 H          -0.2209   -4.2941    0.1142 H       1  LIG1        0.0326
     33 C           0.9064   -3.2383   -1.3218 C.3     1  LIG1       -0.0598
     34 C          -0.9445   -4.8900   -1.8154 C.3     1  LIG1        0.0581
     35 H          -0.0993   -5.4603   -2.2193 H       1  LIG1        0.0596
     36 C          -1.8013   -4.3816   -2.9780 C.3     1  LIG1       -0.0261
     37 C          -1.8315   -2.8600   -3.1149 C.3     1  LIG1       -0.0448
     38 O          -1.7372   -5.8328   -1.0843 O.3     1  LIG1       -0.3915
     39 H          -4.1735   -1.9547   -0.7185 H       1  LIG1        0.0235
     40 H          -4.0418   -3.4112   -1.6745 H       1  LIG1        0.0235
     41 H          -4.3288   -1.8661   -2.4786 H       1  LIG1        0.0235
     42 H           0.5623    1.5960   -2.8194 H       1  LIG1        0.0271
     43 H          -1.0887    1.6156   -3.3664 H       1  LIG1        0.0271
     44 H           0.1692   -0.4462   -1.5436 H       1  LIG1        0.0268
     45 H          -0.2624   -0.6078   -3.2295 H       1  LIG1        0.0268
     46 H          -1.8687    3.7328   -2.5775 H       1  LIG1        0.0235
     47 H          -0.1549    4.0474   -2.3366 H       1  LIG1        0.0235
     48 H          -1.3033    4.4007   -1.0473 H       1  LIG1        0.0235
     49 H          -0.7504    3.7459    1.3154 H       1  LIG1        0.0268
     50 H          -0.6695    2.1334    2.0147 H       1  LIG1        0.0268
     51 H          -2.8189    3.4213    0.4990 H       1  LIG1        0.0268
     52 H          -2.9245    1.9153    1.3771 H       1  LIG1        0.0268
     53 H           1.5283    3.1814    2.1285 H       1  LIG1        0.0271
     54 H           2.9750    3.6507    1.2747 H       1  LIG1        0.0271
     55 H           3.4638    1.2664    0.7039 H       1  LIG1        0.0310
     56 H           2.0094    0.7420    1.5222 H       1  LIG1        0.0310
     57 H           5.4008    2.0070    1.9561 H       1  LIG1        0.0534
     58 H           5.4619    1.6635    3.7675 H       1  LIG1        0.0534
     59 H           1.7161    1.3816    3.9246 H       1  LIG1        0.0340
     60 H           3.7353   -0.8773    4.4183 H       1  LIG1        0.0235
     61 H           2.3032   -0.9790    3.3789 H       1  LIG1        0.0235
     62 H           2.1174   -0.7512    5.1215 H       1  LIG1        0.0235
     63 H           4.2170    1.3366    5.6797 H       1  LIG1        0.0235
     64 H           2.5354    1.4963    6.1877 H       1  LIG1        0.0235
     65 H           3.2940    2.7948    5.2572 H       1  LIG1        0.0235
     66 H           3.2648    3.2707   -1.0998 H       1  LIG1        0.0233
     67 H           1.8840    3.1717   -2.1664 H       1  LIG1        0.0233
     68 H           2.4798    1.7039   -1.3685 H       1  LIG1        0.0233
     69 H          -2.9671   -0.9073    1.1495 H       1  LIG1        0.0268
     70 H          -1.5996    0.1308    1.3991 H       1  LIG1        0.0268
     71 H          -1.0157   -2.2337    1.4727 H       1  LIG1        0.0268
     72 H          -0.1073   -1.3347    0.2987 H       1  LIG1        0.0268
     73 H           0.8351   -2.6801   -2.2548 H       1  LIG1        0.0233
     74 H           1.6205   -4.0530   -1.4881 H       1  LIG1        0.0233
     75 H           1.3587   -2.5855   -0.5704 H       1  LIG1        0.0233
     76 H          -2.8233   -4.7725   -2.9057 H       1  LIG1        0.0290
     77 H          -1.4061   -4.8010   -3.9125 H       1  LIG1        0.0290
     78 H          -2.5238   -2.5921   -3.9242 H       1  LIG1        0.0271
     79 H          -0.8499   -2.5467   -3.4717 H       1  LIG1        0.0271
     80 H          -1.1601   -6.2434   -0.4175 H       1  LIG1        0.2098
@<TRIPOS>BOND
     1     2     3    1
     2     3     5    1
     3     5     7    1
     4     7     9    1
     5     9    10    1
     6    10    11    1
     7     3    11    1
     8     9    13    1
     9    13    15    1
    10    15    16    1
    11     7    16    1
    12    17    18    1
    13    17    19    1
    14    19    20    1
    15    20    21    1
    16    21    22    2
    17    21    23    1
    18    23    24    1
    19    23    25    1
    20    17    26    1
    21     5    27    1
    22    27    28    1
    23    28    29    1
    24     2    29    1
    25    29    31    1
    26    31    34    1
    27    34    36    1
    28    36    37    1
    29     2    37    1
    30     1     2    1
    31     3     4    1
    32     5     6    1
    33     7     8    1
    34     9    12    1
    35    29    30    1
    36    31    32    1
    37    31    33    1
    38    13    17    1
    39    13    14    1
    40    34    38    1
    41    34    35    1
    42     1    39    1
    43     1    40    1
    44     1    41    1
    45    10    42    1
    46    10    43    1
    47    11    44    1
    48    11    45    1
    49    12    46    1
    50    12    47    1
    51    12    48    1
    52    15    49    1
    53    15    50    1
    54    16    51    1
    55    16    52    1
    56    19    53    1
    57    19    54    1
    58    20    55    1
    59    20    56    1
    60    22    57    1
    61    22    58    1
    62    23    59    1
    63    24    60    1
    64    24    61    1
    65    24    62    1
    66    25    63    1
    67    25    64    1
    68    25    65    1
    69    26    66    1
    70    26    67    1
    71    26    68    1
    72    27    69    1
    73    27    70    1
    74    28    71    1
    75    28    72    1
    76    33    73    1
    77    33    74    1
    78    33    75    1
    79    36    76    1
    80    36    77    1
    81    37    78    1
    82    37    79    1
    83    38    80    1
