REMARK  Name = NuBBE_2410
REMARK  10 active torsions:
REMARK  status: ('A' for Active; 'I' for Inactive)
REMARK    1  A    between atoms: C_1  and  C_2
REMARK    2  A    between atoms: N_5  and  C_6
REMARK    3  A    between atoms: C_20  and  C_22
REMARK    4  A    between atoms: C_23  and  O_24
REMARK    5  A    between atoms: O_24  and  C_25
REMARK    6  A    between atoms: C_37  and  C_39
REMARK    7  A    between atoms: C_39  and  C_40
REMARK    8  A    between atoms: C_53  and  C_55
REMARK    9  A    between atoms: C_55  and  O_57
REMARK   10  A    between atoms: O_57  and  C_58
REMARK                            x       y       z     vdW  Elec       q    Type
REMARK                         _______ _______ _______ _____ _____    ______ ____
ROOT
ATOM      1  C   LIG A   1      -3.598   0.661  -4.562  0.00  0.00    +0.035 C 
ATOM      2  C   LIG A   1      -2.812   1.608  -3.711  0.00  0.00    -0.030 C 
ATOM      3  C   LIG A   1      -3.040   1.915  -2.414  0.00  0.00    -0.056 C 
ATOM      4  C   LIG A   1      -4.255   1.360  -1.678  0.00  0.00    +0.115 C 
ATOM      5  N   LIG A   1      -4.544   1.964  -0.380  0.00  0.00    -0.297 NA
ATOM      6  C   LIG A   1      -5.608   1.272   0.339  0.00  0.00    +0.105 C 
ATOM      7  C   LIG A   1      -3.340   2.200   0.436  0.00  0.00    +0.075 C 
ATOM      8  C   LIG A   1      -2.532   0.904   0.734  0.00  0.00    +0.057 C 
ATOM      9  C   LIG A   1      -1.236   1.154   1.444  0.00  0.00    -0.017 A 
ATOM     10  C   LIG A   1      -0.074   1.754   0.948  0.00  0.00    +0.028 A 
ATOM     11  N   LIG A   1       0.791   1.861   2.019  0.00  0.00    -0.357 N 
ATOM     12  H   LIG A   1       1.721   2.252   1.960  0.00  0.00    +0.166 HD
ATOM     13  C   LIG A   1       0.248   1.324   3.159  0.00  0.00    +0.047 A 
ATOM     14  C   LIG A   1       0.763   1.262   4.460  0.00  0.00    +0.026 A 
ATOM     15  C   LIG A   1       0.015   0.584   5.427  0.00  0.00    +0.002 A 
ATOM     16  C   LIG A   1      -1.198  -0.016   5.101  0.00  0.00    +0.001 A 
ATOM     17  C   LIG A   1      -1.718   0.095   3.805  0.00  0.00    +0.010 A 
ATOM     18  C   LIG A   1      -0.990   0.795   2.815  0.00  0.00    +0.003 A 
ATOM     19  C   LIG A   1       0.369   2.305  -0.425  0.00  0.00    +0.072 C 
ATOM     20  C   LIG A   1      -0.638   1.964  -1.562  0.00  0.00    +0.023 C 
ATOM     21  C   LIG A   1      -1.990   2.755  -1.643  0.00  0.00    +0.032 C 
ATOM     22  C   LIG A   1      -2.542   3.292  -0.305  0.00  0.00    +0.122 C 
ENDROOT
BRANCH  19  23
ATOM     23  C   LIG A   1       1.782   1.787  -0.806  0.00  0.00    +0.027 A 
ATOM     24  C   LIG A   1       2.882   2.639  -1.161  0.00  0.00    +0.126 A 
ATOM     25  C   LIG A   1       4.136   2.096  -1.494  0.00  0.00    +0.046 A 
ATOM     26  C   LIG A   1       4.374   0.733  -1.503  0.00  0.00    +0.014 A 
ATOM     27  C   LIG A   1       3.335  -0.134  -1.175  0.00  0.00    +0.004 A 
ATOM     28  C   LIG A   1       3.267  -1.546  -1.121  0.00  0.00    -0.018 A 
ATOM     29  C   LIG A   1       4.309  -2.603  -1.506  0.00  0.00    +0.053 C 
ATOM     30  C   LIG A   1       4.575  -3.833  -0.546  0.00  0.00    +0.089 C 
ATOM     31  N   LIG A   1       3.523  -4.638   0.148  0.00  0.00    -0.298 NA
ATOM     32  C   LIG A   1       2.733  -5.623  -0.651  0.00  0.00    +0.088 C 
ATOM     33  C   LIG A   1       1.168  -5.562  -0.283  0.00  0.00    +0.004 C 
ATOM     34  C   LIG A   1       1.058  -5.706   1.244  0.00  0.00    +0.009 C 
ATOM     35  C   LIG A   1       1.823  -4.533   1.899  0.00  0.00    +0.007 C 
ATOM     36  C   LIG A   1       2.573  -3.727   0.805  0.00  0.00    +0.069 C 
ATOM     37  C   LIG A   1       1.665  -3.232  -0.358  0.00  0.00    +0.054 C 
ATOM     38  C   LIG A   1       0.526  -4.162  -0.624  0.00  0.00    +0.016 C 
ATOM     39  C   LIG A   1       1.989  -1.843  -0.678  0.00  0.00    +0.025 A 
ATOM     40  N   LIG A   1       1.283  -0.700  -0.495  0.00  0.00    -0.357 N 
ATOM     41  H   LIG A   1       0.341  -0.632  -0.132  0.00  0.00    +0.166 HD
ATOM     42  C   LIG A   1       2.081   0.391  -0.824  0.00  0.00    +0.054 A 
BRANCH  24  43
ATOM     43  O   LIG A   1       2.706   4.013  -1.155  0.00  0.00    -0.495 OA
ATOM     44  C   LIG A   1       3.861   4.792  -1.527  0.00  0.00    +0.277 C 
ENDBRANCH  24  43
BRANCH  35  45
ATOM     45  C   LIG A   1       0.900  -3.654   2.764  0.00  0.00    +0.002 C 
ATOM     46  C   LIG A   1       1.633  -2.499   3.435  0.00  0.00    +0.004 C 
ENDBRANCH  35  45
ENDBRANCH  19  23
BRANCH  22  47
ATOM     47  C   LIG A   1      -3.427   4.540  -0.464  0.00  0.00    +0.312 C 
ATOM     48  O   LIG A   1      -3.892   5.167   0.471  0.00  0.00    -0.251 OA
BRANCH  47  49
ATOM     49  O   LIG A   1      -3.643   4.832  -1.777  0.00  0.00    -0.468 OA
ATOM     50  C   LIG A   1      -4.758   5.663  -2.082  0.00  0.00    +0.280 C 
ENDBRANCH  47  49
ENDBRANCH  22  47
TORSDOF 5
