REMARK  Name = NuBBE_532
REMARK  9 active torsions:
REMARK  status: ('A' for Active; 'I' for Inactive)
REMARK    1  A    between atoms: C_1  and  O_2
REMARK    2  A    between atoms: O_2  and  C_3
REMARK    3  A    between atoms: C_4  and  O_5
REMARK    4  A    between atoms: O_5  and  C_6
REMARK    5  A    between atoms: C_9  and  O_10
REMARK    6  A    between atoms: C_11  and  O_12
REMARK    7  A    between atoms: O_12  and  C_13
REMARK    8  A    between atoms: N_20  and  C_21
REMARK    9  A    between atoms: N_20  and  C_22
REMARK                            x       y       z     vdW  Elec       q    Type
REMARK                         _______ _______ _______ _____ _____    ______ ____
ROOT
ATOM      1  C   LIG A   1      -0.851   1.103  -2.680  0.00  0.00    +0.162 A 
ATOM      2  C   LIG A   1      -0.450  -0.133  -2.129  0.00  0.00    +0.170 A 
ATOM      3  C   LIG A   1      -0.012  -0.209  -0.778  0.00  0.00    +0.040 A 
ATOM      4  C   LIG A   1       0.425  -1.468  -0.080  0.00  0.00    +0.035 A 
ATOM      5  C   LIG A   1       1.245  -2.485  -0.614  0.00  0.00    +0.167 A 
ATOM      6  C   LIG A   1       1.614  -3.618   0.137  0.00  0.00    +0.162 A 
ATOM      7  C   LIG A   1       1.121  -3.780   1.434  0.00  0.00    +0.050 A 
ATOM      8  C   LIG A   1       0.370  -2.767   2.017  0.00  0.00    +0.008 A 
ATOM      9  C   LIG A   1       0.088  -1.604   1.296  0.00  0.00    -0.030 A 
ATOM     10  C   LIG A   1      -0.497  -0.411   2.017  0.00  0.00    +0.095 C 
ATOM     11  C   LIG A   1      -0.073   0.980   0.008  0.00  0.00    +0.015 A 
ATOM     12  C   LIG A   1       0.234   0.849   1.494  0.00  0.00    +0.102 C 
ATOM     13  N   LIG A   1      -0.073   2.113   2.349  0.00  0.00    +0.245 N 
ATOM     14  C   LIG A   1      -1.548   2.241   2.710  0.00  0.00    +0.193 C 
ATOM     15  C   LIG A   1       0.746   2.065   3.642  0.00  0.00    +0.193 C 
ATOM     16  C   LIG A   1       0.402   3.341   1.549  0.00  0.00    +0.138 C 
ATOM     17  C   LIG A   1      -0.363   3.489   0.236  0.00  0.00    +0.086 C 
ATOM     18  C   LIG A   1      -0.395   2.216  -0.563  0.00  0.00    -0.030 A 
ATOM     19  C   LIG A   1      -0.788   2.265  -1.903  0.00  0.00    +0.053 A 
ENDROOT
BRANCH   1  21
ATOM     20  C   LIG A   1      -2.202   2.127  -4.346  0.00  0.00    +0.277 C 
ATOM     21  O   LIG A   1      -1.207   1.164  -4.003  0.00  0.00    -0.491 OA
ENDBRANCH   1  21
BRANCH   2  22
ATOM     22  O   LIG A   1      -0.406  -1.315  -2.830  0.00  0.00    -0.491 OA
ATOM     23  C   LIG A   1      -1.409  -1.546  -3.817  0.00  0.00    +0.277 C 
ENDBRANCH   2  22
BRANCH   5  24
ATOM     24  O   LIG A   1       1.812  -2.362  -1.861  0.00  0.00    -0.503 OA
ATOM     25  H   LIG A   1       1.167  -1.920  -2.441  0.00  0.00    +0.292 HD
ENDBRANCH   5  24
BRANCH   6  26
ATOM     26  O   LIG A   1       2.433  -4.538  -0.471  0.00  0.00    -0.491 OA
ATOM     27  C   LIG A   1       3.240  -5.329   0.395  0.00  0.00    +0.277 C 
ENDBRANCH   6  26
TORSDOF 4
