@<TRIPOS>MOLECULE
NuBBE_1182
 53 57 0 0 0
SMALL
GASTEIGER

@<TRIPOS>ATOM
      1 O          -1.7518   -1.7255    3.6412 O.3     1  LIG1       -0.3829
      2 C          -2.3508   -1.4913    2.3410 C.3     1  LIG1        0.1465
      3 H          -2.9302   -0.5655    2.4378 H       1  LIG1        0.0683
      4 C          -3.3225   -2.6512    2.0648 C.3     1  LIG1        0.1261
      5 H          -4.2108   -2.5087    2.6920 H       1  LIG1        0.0659
      6 C          -3.7392   -2.7724    0.5951 C.3     1  LIG1        0.1571
      7 H          -4.2143   -3.7447    0.4112 H       1  LIG1        0.0787
      8 C          -2.4979   -2.6650   -0.3183 C.3     1  LIG1        0.0994
      9 H          -2.8549   -2.5514   -1.3489 H       1  LIG1        0.0632
     10 O          -1.7507   -1.4657   -0.0652 O.3     1  LIG1       -0.3327
     11 C          -1.2529   -1.2976    1.2602 C.3     1  LIG1        0.2310
     12 H          -0.4129   -1.9769    1.4567 H       1  LIG1        0.1084
     13 O          -0.7817    0.0610    1.4549 O.3     1  LIG1       -0.4570
     14 C           0.2808    0.5495    0.7424 C.ar    1  LIG1        0.1697
     15 C           0.6269    1.8932    0.9772 C.ar    1  LIG1        0.2026
     16 C           1.7303    2.4647    0.3362 C.ar    1  LIG1        0.1854
     17 C           2.5095    1.7279   -0.5410 C.ar    1  LIG1        0.0468
     18 C           2.1521    0.4090   -0.8136 C.ar    1  LIG1        0.0744
     19 C           2.9567   -0.3760   -1.7855 C.ar    1  LIG1        0.3454
     20 O           4.1228    0.2246   -2.2610 O.2     1  LIG1       -0.4178
     21 C           4.4698    1.5658   -1.9859 C.ar    1  LIG1        0.1854
     22 C           3.6625    2.3291   -1.1500 C.ar    1  LIG1        0.0468
     23 C           3.9890    3.6668   -0.9144 C.ar    1  LIG1        0.0744
     24 C           3.1309    4.4766   -0.0115 C.ar    1  LIG1        0.3454
     25 O           2.0510    3.8204    0.5914 O.2     1  LIG1       -0.4178
     26 O           3.3660    5.6605    0.1960 O.2     1  LIG1       -0.2445
     27 C           5.1123    4.2448   -1.5315 C.ar    1  LIG1       -0.0017
     28 C           5.9081    3.4586   -2.3622 C.ar    1  LIG1        0.1628
     29 O           7.0070    3.9640   -3.0008 O.3     1  LIG1       -0.5032
     30 C           5.5981    2.1166   -2.5813 C.ar    1  LIG1        0.2022
     31 O           6.3981    1.3622   -3.3897 O.3     1  LIG1       -0.5009
     32 O           2.6119   -1.4976   -2.1349 O.2     1  LIG1       -0.2445
     33 C           1.0385   -0.1792   -0.1796 C.ar    1  LIG1       -0.0014
     34 O          -0.1256    2.6500    1.8373 O.3     1  LIG1       -0.5009
     35 C          -1.6136   -3.9171   -0.3012 C.3     1  LIG1       -0.0350
     36 O          -4.6613   -1.7002    0.2476 O.3     1  LIG1       -0.4562
     37 C          -6.0029   -1.9517    0.3923 C.2     1  LIG1        0.3044
     38 C          -6.8049   -0.7195    0.0415 C.3     1  LIG1        0.0332
     39 O          -6.4917   -3.0044    0.7469 O.2     1  LIG1       -0.2512
     40 O          -2.7240   -3.8812    2.5023 O.3     1  LIG1       -0.3852
     41 H          -1.2730   -0.9068    3.8752 H       1  LIG1        0.2102
     42 H           5.3497    5.2916   -1.3570 H       1  LIG1        0.0664
     43 H           7.0649    4.9211   -2.8303 H       1  LIG1        0.2923
     44 H           7.1115    1.9613   -3.6868 H       1  LIG1        0.2924
     45 H           0.7836   -1.2056   -0.4297 H       1  LIG1        0.0664
     46 H           0.2005    3.5677    1.7884 H       1  LIG1        0.2924
     47 H          -2.2116   -4.8178   -0.4807 H       1  LIG1        0.0256
     48 H          -1.0714   -4.0473    0.6392 H       1  LIG1        0.0256
     49 H          -0.8509   -3.8582   -1.0851 H       1  LIG1        0.0256
     50 H          -6.2365    0.1812    0.2876 H       1  LIG1        0.0342
     51 H          -7.7178   -0.7031    0.6438 H       1  LIG1        0.0342
     52 H          -7.0668   -0.7200   -1.0186 H       1  LIG1        0.0342
     53 H          -2.3097   -3.6665    3.3645 H       1  LIG1        0.2101
@<TRIPOS>BOND
     1     2     4    1
     2     4     6    1
     3     6     8    1
     4     8     9    1
     5     8    10    1
     6    10    11    1
     7     2    11    1
     8    13    14    1
     9    14    15   ar
    10    15    16   ar
    11    16    17   ar
    12    17    18   ar
    13    18    19   ar
    14    19    20   ar
    15    20    21   ar
    16    21    22   ar
    17    17    22   ar
    18    22    23   ar
    19    23    24   ar
    20    24    25   ar
    21    16    25   ar
    22    24    26    2
    23    23    27   ar
    24    27    28   ar
    25    28    29    1
    26    28    30   ar
    27    21    30   ar
    28    30    31    1
    29    19    32    2
    30    18    33   ar
    31    14    33   ar
    32    15    34    1
    33     8    35    1
    34    36    37    1
    35    37    38    1
    36    37    39    2
    37     4    40    1
    38     4     5    1
    39     6    36    1
    40     6     7    1
    41     2     3    1
    42     2     1    1
    43    11    13    1
    44    11    12    1
    45     1    41    1
    46    27    42    1
    47    29    43    1
    48    31    44    1
    49    33    45    1
    50    34    46    1
    51    35    47    1
    52    35    48    1
    53    35    49    1
    54    38    50    1
    55    38    51    1
    56    38    52    1
    57    40    53    1
