REMARK  Name = NuBBE_139
REMARK  6 active torsions:
REMARK  status: ('A' for Active; 'I' for Inactive)
REMARK    1  A    between atoms: C_6  and  C_11
REMARK    2  A    between atoms: C_8  and  O_10
REMARK    3  A    between atoms: C_13  and  O_14
REMARK    4  A    between atoms: C_15  and  O_18
REMARK    5  A    between atoms: C_20  and  O_24
REMARK    6  A    between atoms: C_22  and  O_23
REMARK                            x       y       z     vdW  Elec       q    Type
REMARK                         _______ _______ _______ _____ _____    ______ ____
ROOT
ATOM      1  O   LIG A   1      -3.438  -0.785   0.795  0.00  0.00    -0.289 OA
ATOM      2  C   LIG A   1      -2.217  -0.787   0.653  0.00  0.00    +0.202 C 
ATOM      3  C   LIG A   1      -1.420  -2.020   0.430  0.00  0.00    +0.103 A 
ATOM      4  C   LIG A   1      -0.052  -1.876   0.168  0.00  0.00    +0.139 A 
ATOM      5  O   LIG A   1       0.596  -0.674   0.089  0.00  0.00    -0.480 OA
ATOM      6  C   LIG A   1      -0.263   0.431  -0.235  0.00  0.00    +0.240 C 
ATOM      7  C   LIG A   1      -1.443   0.518   0.732  0.00  0.00    +0.230 C 
ATOM      8  C   LIG A   1       0.762  -2.999  -0.006  0.00  0.00    +0.092 A 
ATOM      9  C   LIG A   1       0.198  -4.266   0.053  0.00  0.00    +0.124 A 
ATOM     10  C   LIG A   1      -1.161  -4.431   0.296  0.00  0.00    +0.091 A 
ATOM     11  C   LIG A   1      -1.969  -3.308   0.490  0.00  0.00    +0.134 A 
ENDROOT
BRANCH   6  12
ATOM     12  C   LIG A   1       0.614   1.676  -0.204  0.00  0.00    -0.001 A 
ATOM     13  C   LIG A   1       0.701   2.502  -1.339  0.00  0.00    +0.056 A 
ATOM     14  C   LIG A   1       1.516   3.630  -1.310  0.00  0.00    +0.159 A 
ATOM     15  C   LIG A   1       2.241   3.949  -0.165  0.00  0.00    +0.158 A 
ATOM     16  C   LIG A   1       2.165   3.152   0.966  0.00  0.00    +0.049 A 
ATOM     17  C   LIG A   1       1.354   2.015   0.946  0.00  0.00    +0.011 A 
BRANCH  14  18
ATOM     18  O   LIG A   1       1.639   4.460  -2.391  0.00  0.00    -0.503 OA
ATOM     19  H   LIG A   1       1.052   4.131  -3.092  0.00  0.00    +0.292 HD
ENDBRANCH  14  18
BRANCH  15  20
ATOM     20  O   LIG A   1       3.039   5.057  -0.150  0.00  0.00    -0.503 OA
ATOM     21  H   LIG A   1       2.925   5.449  -1.038  0.00  0.00    +0.292 HD
ENDBRANCH  15  20
ENDBRANCH   6  12
BRANCH   7  22
ATOM     22  O   LIG A   1      -2.328   1.587   0.378  0.00  0.00    -0.380 OA
ATOM     23  H   LIG A   1      -3.203   1.337   0.745  0.00  0.00    +0.210 HD
ENDBRANCH   7  22
BRANCH  11  24
ATOM     24  O   LIG A   1      -3.296  -3.494   0.751  0.00  0.00    -0.506 OA
ATOM     25  H   LIG A   1      -3.512  -4.440   0.744  0.00  0.00    +0.292 HD
ENDBRANCH  11  24
BRANCH   9  26
ATOM     26  O   LIG A   1       0.950  -5.389  -0.126  0.00  0.00    -0.506 OA
ATOM     27  H   LIG A   1       1.873  -5.132  -0.287  0.00  0.00    +0.292 HD
ENDBRANCH   9  26
TORSDOF 6
