@<TRIPOS>MOLECULE
NuBBE_1413
 51 55 0 0 0
SMALL
GASTEIGER

@<TRIPOS>ATOM
      1 C          -6.2089    2.0718   -1.0624 C.3     1  LIG1       -0.0215
      2 C          -5.0132    2.8475   -1.6276 C.3     1  LIG1        0.1235
      3 C          -5.5087    4.1108   -2.3415 C.3     1  LIG1       -0.0215
      4 C          -4.2676    1.9795   -2.6131 C.2     1  LIG1       -0.0408
      5 C          -3.0526    1.4795   -2.3717 C.2     1  LIG1       -0.0478
      6 C          -2.4199    1.7818   -1.0913 C.ar    1  LIG1        0.0588
      7 C          -1.1969    1.1990   -0.7084 C.ar    1  LIG1        0.1422
      8 C          -0.6127    1.5498    0.5099 C.ar    1  LIG1        0.0606
      9 C          -1.2462    2.4580    1.3649 C.ar    1  LIG1       -0.0442
     10 C          -2.4642    3.0236    0.9937 C.ar    1  LIG1       -0.0184
     11 C          -3.0503    2.6843   -0.2264 C.ar    1  LIG1        0.1324
     12 O          -4.2351    3.3073   -0.5033 O.3     1  LIG1       -0.4815
     13 O          -0.6214    0.3133   -1.5797 O.3     1  LIG1       -0.4830
     14 C           0.3495   -0.5741   -1.0252 C.3     1  LIG1        0.1479
     15 H           0.8798   -0.9997   -1.8891 H       1  LIG1        0.0778
     16 C          -0.2892   -1.7437   -0.2741 C.3     1  LIG1        0.1273
     17 O           0.6636   -2.7438    0.0922 O.3     1  LIG1       -0.4879
     18 C           1.8690   -2.2793    0.5471 C.ar    1  LIG1        0.1283
     19 C           2.2770   -0.9465    0.4673 C.ar    1  LIG1        0.0122
     20 C           1.3865    0.1094   -0.1453 C.3     1  LIG1        0.0908
     21 H           1.9880    0.7846   -0.7688 H       1  LIG1        0.0468
     22 C           0.6980    0.9814    0.8867 C.2     1  LIG1        0.1778
     23 O           1.1997    1.2906    1.9632 O.2     1  LIG1       -0.2912
     24 C           3.5454   -0.6049    0.9577 C.ar    1  LIG1       -0.0088
     25 C           4.4168   -1.5745    1.4754 C.ar    1  LIG1        0.1620
     26 O           5.6134   -1.0511    1.8925 O.3     1  LIG1       -0.4914
     27 C           6.7440   -1.9114    1.8510 C.3     1  LIG1        0.0790
     28 C           4.0041   -2.9142    1.5351 C.ar    1  LIG1        0.1650
     29 O           4.8414   -3.8374    2.1050 O.3     1  LIG1       -0.4913
     30 C           4.7299   -5.1699    1.6160 C.3     1  LIG1        0.0790
     31 C           2.7224   -3.2503    1.0783 C.ar    1  LIG1        0.0257
     32 H          -6.7711    2.6866   -0.3498 H       1  LIG1        0.0271
     33 H          -5.8750    1.1865   -0.5080 H       1  LIG1        0.0271
     34 H          -6.8945    1.7436   -1.8513 H       1  LIG1        0.0271
     35 H          -6.0549    4.7620   -1.6488 H       1  LIG1        0.0271
     36 H          -6.1689    3.8750   -3.1835 H       1  LIG1        0.0271
     37 H          -4.6658    4.7017   -2.7200 H       1  LIG1        0.0271
     38 H          -4.7602    1.7438   -3.5529 H       1  LIG1        0.0611
     39 H          -2.5410    0.8527   -3.0932 H       1  LIG1        0.0624
     40 H          -0.7912    2.7354    2.3141 H       1  LIG1        0.0627
     41 H          -2.9567    3.7346    1.6528 H       1  LIG1        0.0654
     42 H          -1.0407   -2.2220   -0.9130 H       1  LIG1        0.0734
     43 H          -0.8259   -1.4201    0.6261 H       1  LIG1        0.0734
     44 H           3.8742    0.4334    0.9356 H       1  LIG1        0.0659
     45 H           7.6381   -1.2801    1.8392 H       1  LIG1        0.0660
     46 H           6.7662   -2.5225    0.9420 H       1  LIG1        0.0660
     47 H           6.7946   -2.5274    2.7535 H       1  LIG1        0.0660
     48 H           5.6232   -5.7161    1.9343 H       1  LIG1        0.0660
     49 H           4.6962   -5.1971    0.5211 H       1  LIG1        0.0660
     50 H           3.8608   -5.6731    2.0503 H       1  LIG1        0.0660
     51 H           2.3514   -4.2681    1.1438 H       1  LIG1        0.0692
@<TRIPOS>BOND
     1     1     2    1
     2     2     3    1
     3     2     4    1
     4     4     5    2
     5     5     6    1
     6     6     7   ar
     7     7     8   ar
     8     8     9   ar
     9     9    10   ar
    10    10    11   ar
    11     6    11   ar
    12    11    12    1
    13     2    12    1
    14     7    13    1
    15    13    14    1
    16    14    15    1
    17    14    16    1
    18    16    17    1
    19    17    18    1
    20    18    19   ar
    21    19    20    1
    22    20    21    1
    23    14    20    1
    24    20    22    1
    25     8    22    1
    26    22    23    2
    27    19    24   ar
    28    24    25   ar
    29    25    26    1
    30    26    27    1
    31    25    28   ar
    32    28    29    1
    33    29    30    1
    34    28    31   ar
    35    18    31   ar
    36     1    32    1
    37     1    33    1
    38     1    34    1
    39     3    35    1
    40     3    36    1
    41     3    37    1
    42     4    38    1
    43     5    39    1
    44     9    40    1
    45    10    41    1
    46    16    42    1
    47    16    43    1
    48    24    44    1
    49    27    45    1
    50    27    46    1
    51    27    47    1
    52    30    48    1
    53    30    49    1
    54    30    50    1
    55    31    51    1
