REMARK  Name = NuBBE_511
REMARK  12 active torsions:
REMARK  status: ('A' for Active; 'I' for Inactive)
REMARK    1  A    between atoms: C_2  and  C_3
REMARK    2  A    between atoms: C_2  and  O_13
REMARK    3  A    between atoms: C_4  and  C_5
REMARK    4  A    between atoms: C_7  and  O_8
REMARK    5  A    between atoms: C_9  and  O_10
REMARK    6  A    between atoms: O_13  and  C_14
REMARK    7  A    between atoms: C_17  and  O_18
REMARK    8  A    between atoms: C_17  and  C_19
REMARK    9  A    between atoms: C_19  and  O_20
REMARK   10  A    between atoms: O_20  and  C_21
REMARK   11  A    between atoms: C_24  and  O_26
REMARK   12  A    between atoms: C_27  and  O_29
REMARK                            x       y       z     vdW  Elec       q    Type
REMARK                         _______ _______ _______ _____ _____    ______ ____
ROOT
ATOM      1  C   LIG A   1      -1.194   0.673   0.595  0.00  0.00    +0.211 C 
ATOM      2  C   LIG A   1      -0.560  -0.526   1.313  0.00  0.00    +0.093 C 
ATOM      3  C   LIG A   1      -1.453  -1.769   1.294  0.00  0.00    +0.168 C 
ATOM      4  C   LIG A   1      -1.898  -2.126  -0.131  0.00  0.00    +0.080 C 
ATOM      5  C   LIG A   1      -2.545  -0.942  -0.844  0.00  0.00    +0.150 C 
ATOM      6  C   LIG A   1      -1.629   0.288  -0.833  0.00  0.00    +0.184 C 
ENDROOT
BRANCH   3   7
ATOM      7  O   LIG A   1      -2.645  -1.475   2.038  0.00  0.00    -0.377 OA
ATOM      8  H   LIG A   1      -2.525  -1.875   2.924  0.00  0.00    +0.211 HD
ENDBRANCH   3   7
BRANCH   3   9
ATOM      9  C   LIG A   1      -0.663  -2.952   1.891  0.00  0.00    +0.339 C 
ATOM     10  O   LIG A   1       0.078  -3.700   1.263  0.00  0.00    -0.248 OA
BRANCH   9  11
ATOM     11  O   LIG A   1      -0.881  -3.012   3.239  0.00  0.00    -0.466 OA
ATOM     12  C   LIG A   1      -0.109  -4.008   3.911  0.00  0.00    +0.280 C 
ENDBRANCH   9  11
ENDBRANCH   3   9
BRANCH   5  13
ATOM     13  O   LIG A   1      -3.801  -0.593  -0.246  0.00  0.00    -0.389 OA
ATOM     14  H   LIG A   1      -3.719  -0.731   0.723  0.00  0.00    +0.210 HD
ENDBRANCH   5  13
BRANCH   6  15
ATOM     15  O   LIG A   1      -2.327   1.382  -1.442  0.00  0.00    -0.386 OA
ATOM     16  H   LIG A   1      -3.264   1.277  -1.181  0.00  0.00    +0.210 HD
ENDBRANCH   6  15
BRANCH   1  17
ATOM     17  O   LIG A   1      -0.183   1.692   0.455  0.00  0.00    -0.456 OA
BRANCH  17  19
ATOM     18  O   LIG A   1      -0.430   2.429   2.619  0.00  0.00    -0.246 OA
ATOM     19  C   LIG A   1       0.142   2.426   1.532  0.00  0.00    +0.332 C 
BRANCH  19  20
ATOM     20  C   LIG A   1       1.403   3.168   1.276  0.00  0.00    +0.092 C 
ATOM     21  C   LIG A   1       2.221   3.195   0.213  0.00  0.00    +0.015 C 
BRANCH  21  22
ATOM     22  C   LIG A   1       2.143   2.514  -1.096  0.00  0.00    -0.021 A 
ATOM     23  C   LIG A   1       2.747   1.261  -1.296  0.00  0.00    +0.057 A 
ATOM     24  C   LIG A   1       2.742   0.683  -2.571  0.00  0.00    +0.159 A 
ATOM     25  C   LIG A   1       2.153   1.343  -3.646  0.00  0.00    +0.158 A 
ATOM     26  C   LIG A   1       1.553   2.578  -3.465  0.00  0.00    +0.050 A 
ATOM     27  C   LIG A   1       1.550   3.163  -2.191  0.00  0.00    +0.012 A 
BRANCH  24  28
ATOM     28  O   LIG A   1       3.314  -0.535  -2.819  0.00  0.00    -0.503 OA
ATOM     29  H   LIG A   1       3.660  -0.888  -1.982  0.00  0.00    +0.292 HD
ENDBRANCH  24  28
BRANCH  25  30
ATOM     30  O   LIG A   1       2.163   0.788  -4.894  0.00  0.00    -0.503 OA
ATOM     31  H   LIG A   1       2.635  -0.062  -4.793  0.00  0.00    +0.292 HD
ENDBRANCH  25  30
ENDBRANCH  21  22
ENDBRANCH  19  20
ENDBRANCH  17  19
ENDBRANCH   1  17
TORSDOF 11
