REMARK  Name = NuBBE_507
REMARK  10 active torsions:
REMARK  status: ('A' for Active; 'I' for Inactive)
REMARK    1  A    between atoms: C_1  and  C_2
REMARK    2  A    between atoms: C_6  and  O_7
REMARK    3  A    between atoms: C_8  and  C_9
REMARK    4  A    between atoms: C_9  and  C_10
REMARK    5  A    between atoms: C_12  and  O_13
REMARK    6  A    between atoms: C_12  and  C_14
REMARK    7  A    between atoms: C_15  and  O_17
REMARK    8  A    between atoms: C_23  and  C_24
REMARK    9  A    between atoms: C_26  and  O_27
REMARK   10  A    between atoms: C_28  and  C_29
REMARK                            x       y       z     vdW  Elec       q    Type
REMARK                         _______ _______ _______ _____ _____    ______ ____
ROOT
ATOM      1  C   LIG A   1       0.779   1.562   1.128  0.00  0.00    +0.081 C 
ENDROOT
BRANCH   1   8
ATOM      2  C   LIG A   1       3.163  -5.329  -2.194  0.00  0.00    +0.052 C 
ATOM      3  C   LIG A   1       2.531  -4.019  -1.746  0.00  0.00    +0.178 C 
ATOM      4  O   LIG A   1       3.205  -2.955  -2.440  0.00  0.00    -0.458 OA
ATOM      5  C   LIG A   1       2.917  -1.679  -2.107  0.00  0.00    +0.343 C 
ATOM      6  C   LIG A   1       2.287  -1.429  -0.782  0.00  0.00    +0.104 A 
ATOM      7  C   LIG A   1       1.879  -0.127  -0.431  0.00  0.00    +0.138 A 
ATOM      8  C   LIG A   1       1.240   0.148   0.794  0.00  0.00    +0.041 A 
ATOM      9  C   LIG A   1       1.117  -0.923   1.699  0.00  0.00    +0.127 A 
ATOM     10  C   LIG A   1       1.597  -2.217   1.410  0.00  0.00    -0.004 A 
ATOM     11  C   LIG A   1       1.474  -3.312   2.441  0.00  0.00    +0.048 C 
ATOM     12  C   LIG A   1       2.143  -2.480   0.139  0.00  0.00    -0.020 A 
ATOM     13  C   LIG A   1       2.666  -3.836  -0.242  0.00  0.00    +0.080 C 
ATOM     14  O   LIG A   1       3.177  -0.737  -2.864  0.00  0.00    -0.245 OA
BRANCH   7  15
ATOM     15  O   LIG A   1       2.156   0.935  -1.258  0.00  0.00    -0.505 OA
ATOM     16  H   LIG A   1       2.590   0.611  -2.080  0.00  0.00    +0.292 HD
ENDBRANCH   7  15
BRANCH   9  17
ATOM     17  O   LIG A   1       0.580  -0.768   2.947  0.00  0.00    -0.506 OA
ATOM     18  H   LIG A   1      -0.145  -0.110   2.934  0.00  0.00    +0.292 HD
ENDBRANCH   9  17
ENDBRANCH   1   8
BRANCH   1  19
ATOM     19  C   LIG A   1      -0.692   1.870   0.858  0.00  0.00    +0.010 C 
ATOM     20  C   LIG A   1      -1.605   1.645   2.032  0.00  0.00    +0.194 C 
ATOM     21  C   LIG A   1      -3.113   1.892   1.927  0.00  0.00    +0.155 C 
ATOM     22  C   LIG A   1      -3.674   2.343   3.283  0.00  0.00    +0.053 C 
ATOM     23  C   LIG A   1      -3.437   2.913   0.833  0.00  0.00    +0.187 C 
ATOM     24  O   LIG A   1      -1.151   1.101   3.047  0.00  0.00    -0.289 OA
ATOM     25  C   LIG A   1      -1.232   2.315  -0.302  0.00  0.00    -0.006 C 
ATOM     26  C   LIG A   1      -2.652   2.657  -0.412  0.00  0.00    +0.026 C 
ATOM     27  C   LIG A   1      -3.183   2.751  -1.644  0.00  0.00    +0.202 C 
ATOM     28  O   LIG A   1      -2.462   2.593  -2.812  0.00  0.00    -0.468 OA
ATOM     29  C   LIG A   1      -1.073   2.560  -2.711  0.00  0.00    +0.102 C 
ATOM     30  C   LIG A   1      -0.353   2.623  -4.019  0.00  0.00    +0.086 C 
ATOM     31  C   LIG A   1      -0.448   2.483  -1.522  0.00  0.00    +0.050 C 
BRANCH  21  32
ATOM     32  O   LIG A   1      -3.726   0.627   1.618  0.00  0.00    -0.378 OA
ATOM     33  H   LIG A   1      -3.433  -0.001   2.306  0.00  0.00    +0.211 HD
ENDBRANCH  21  32
BRANCH  23  34
ATOM     34  O   LIG A   1      -3.140   4.247   1.259  0.00  0.00    -0.384 OA
ATOM     35  H   LIG A   1      -3.970   4.638   1.583  0.00  0.00    +0.210 HD
ENDBRANCH  23  34
ENDBRANCH   1  19
TORSDOF 6
