@<TRIPOS>MOLECULE
NuBBE_2509
 35 37 0 0 0
SMALL
GASTEIGER

@<TRIPOS>ATOM
      1 O          -1.1183   -1.2484    1.2047 O.2     1  LIG1       -0.2910
      2 C           0.0508   -1.0690    0.8735 C.2     1  LIG1        0.1808
      3 C           0.8772   -2.2510    0.5576 C.ar    1  LIG1        0.1012
      4 C           0.3325   -3.5422    0.5475 C.ar    1  LIG1        0.1343
      5 O          -0.9872   -3.7993    0.8064 O.3     1  LIG1       -0.5058
      6 C           1.1370   -4.6445    0.2677 C.ar    1  LIG1        0.0222
      7 C           2.4911   -4.4480    0.0158 C.ar    1  LIG1        0.1238
      8 O           3.3172   -5.4967   -0.2631 O.3     1  LIG1       -0.5065
      9 C           3.0474   -3.1714    0.0348 C.ar    1  LIG1        0.0225
     10 C           2.2317   -2.0681    0.2850 C.ar    1  LIG1        0.1380
     11 O           2.8342   -0.8378    0.2737 O.3     1  LIG1       -0.4900
     12 C           1.9275    0.2008   -0.1179 C.3     1  LIG1        0.1034
     13 C           0.7288    0.2909    0.8224 C.3     1  LIG1        0.0814
     14 C          -0.1870    1.4363    0.4193 C.ar    1  LIG1       -0.0334
     15 C           0.0019    2.7059    0.9844 C.ar    1  LIG1       -0.0543
     16 C          -0.8250    3.7756    0.6259 C.ar    1  LIG1       -0.0197
     17 C          -1.8519    3.6060   -0.3039 C.ar    1  LIG1        0.1201
     18 O          -2.5946    4.7268   -0.5537 O.3     1  LIG1       -0.4951
     19 C          -3.6519    4.5998   -1.4970 C.3     1  LIG1        0.0788
     20 C          -2.0364    2.3536   -0.8849 C.ar    1  LIG1       -0.0197
     21 C          -1.2046    1.2826   -0.5348 C.ar    1  LIG1       -0.0543
     22 H          -1.4217   -2.9483    1.0473 H       1  LIG1        0.2922
     23 H           0.6946   -5.6355    0.2586 H       1  LIG1        0.0691
     24 H           2.7960   -6.3176   -0.2571 H       1  LIG1        0.2921
     25 H           4.1076   -3.0389   -0.1623 H       1  LIG1        0.0691
     26 H           1.6303    0.0410   -1.1637 H       1  LIG1        0.0707
     27 H           2.4965    1.1379   -0.0941 H       1  LIG1        0.0707
     28 H           1.0834    0.4597    1.8488 H       1  LIG1        0.0463
     29 H           0.7887    2.8768    1.7162 H       1  LIG1        0.0622
     30 H          -0.6716    4.7509    1.0821 H       1  LIG1        0.0654
     31 H          -4.1466    5.5725   -1.5792 H       1  LIG1        0.0660
     32 H          -4.3998    3.8744   -1.1598 H       1  LIG1        0.0660
     33 H          -3.2658    4.3383   -2.4879 H       1  LIG1        0.0660
     34 H          -2.8243    2.1691   -1.6076 H       1  LIG1        0.0654
     35 H          -1.3877    0.3179   -1.0046 H       1  LIG1        0.0622
@<TRIPOS>BOND
     1     1     2    2
     2     2     3    1
     3     3     4   ar
     4     4     5    1
     5     4     6   ar
     6     6     7   ar
     7     7     8    1
     8     7     9   ar
     9     9    10   ar
    10     3    10   ar
    11    10    11    1
    12    11    12    1
    13    12    13    1
    14     2    13    1
    15    13    14    1
    16    14    15   ar
    17    15    16   ar
    18    16    17   ar
    19    17    18    1
    20    18    19    1
    21    17    20   ar
    22    20    21   ar
    23    14    21   ar
    24     5    22    1
    25     6    23    1
    26     8    24    1
    27     9    25    1
    28    12    26    1
    29    12    27    1
    30    13    28    1
    31    15    29    1
    32    16    30    1
    33    19    31    1
    34    19    32    1
    35    19    33    1
    36    20    34    1
    37    21    35    1
