@<TRIPOS>MOLECULE
NuBBE_1171
 20 20 0 0 0
SMALL
GASTEIGER

@<TRIPOS>ATOM
      1 O          -2.4935    0.7393   -0.2431 O.2     1  LIG1       -0.2662
      2 C          -1.2780    0.6500   -0.0760 C.ar    1  LIG1        0.2721
      3 N          -0.4715    1.7491    0.2205 N.ar    1  LIG1       -0.3170
      4 C          -1.0727    3.0707    0.3386 C.3     1  LIG1        0.0147
      5 C           0.8896    1.6324    0.3941 C.ar    1  LIG1        0.0111
      6 C           1.4938    0.4470    0.2900 C.ar    1  LIG1       -0.0023
      7 C           0.7457   -0.7576   -0.0091 C.ar    1  LIG1        0.1441
      8 O           1.6001   -1.8301   -0.0588 O.3     1  LIG1       -0.4936
      9 C           1.1499   -3.1449   -0.3487 C.3     1  LIG1        0.0788
     10 C          -0.5942   -0.6859   -0.1893 C.ar    1  LIG1        0.1574
     11 C          -1.4380   -1.7883   -0.4838 C.1     1  LIG1        0.1083
     12 N          -2.0895   -2.7199   -0.7239 N.1     1  LIG1       -0.1906
     13 H          -2.1607    3.0364    0.2384 H       1  LIG1        0.0457
     14 H          -0.6682    3.7148   -0.4487 H       1  LIG1        0.0457
     15 H          -0.8254    3.4906    1.3189 H       1  LIG1        0.0457
     16 H           1.4477    2.5376    0.6175 H       1  LIG1        0.0811
     17 H           2.5682    0.3640    0.4288 H       1  LIG1        0.0669
     18 H           2.0230   -3.8047   -0.3363 H       1  LIG1        0.0660
     19 H           0.7139   -3.1986   -1.3502 H       1  LIG1        0.0660
     20 H           0.4598   -3.5017    0.4211 H       1  LIG1        0.0660
@<TRIPOS>BOND
     1     1     2    2
     2     2     3   ar
     3     3     4    1
     4     3     5   ar
     5     5     6   ar
     6     6     7   ar
     7     7     8    1
     8     8     9    1
     9     7    10   ar
    10     2    10   ar
    11    10    11    1
    12    11    12    3
    13     4    13    1
    14     4    14    1
    15     4    15    1
    16     5    16    1
    17     6    17    1
    18     9    18    1
    19     9    19    1
    20     9    20    1
