@<TRIPOS>MOLECULE
NuBBE_1780
 36 38 0 0 0
SMALL
GASTEIGER

@<TRIPOS>ATOM
      1 C           1.4734    0.1718    0.7197 C.3     1  LIG1       -0.0242
      2 C           0.4271   -0.9284    0.5068 C.3     1  LIG1       -0.0113
      3 C          -1.0147   -0.4001    0.3815 C.3     1  LIG1        0.1105
      4 H          -1.0767    0.2522   -0.4958 H       1  LIG1        0.0738
      5 C          -2.0497   -1.5012    0.1826 C.3     1  LIG1        0.0423
      6 C          -2.2961   -2.2227    1.4718 C.2     1  LIG1        0.1076
      7 C          -2.1414   -1.5722    2.6378 C.2     1  LIG1        0.0600
      8 C          -1.7720   -0.1495    2.6789 C.2     1  LIG1        0.3354
      9 O          -1.8511    0.4822    3.7302 O.2     1  LIG1       -0.2455
     10 O          -1.3555    0.4182    1.5244 O.3     1  LIG1       -0.4578
     11 O          -2.6529   -3.5400    1.3051 O.2     1  LIG1       -0.4990
     12 C          -2.8879   -4.3127    2.4772 C.3     1  LIG1        0.0783
     13 C           1.5593    1.1593   -0.4183 C.ar    1  LIG1       -0.0436
     14 C           2.4181    0.9237   -1.5024 C.ar    1  LIG1       -0.0130
     15 C           2.4861    1.8818   -2.4923 C.ar    1  LIG1        0.1665
     16 C           1.7191    3.0230   -2.4549 C.ar    1  LIG1        0.1662
     17 C           0.8361    3.2701   -1.4289 C.ar    1  LIG1       -0.0159
     18 C           0.7686    2.3327   -0.3956 C.ar    1  LIG1       -0.0549
     19 O           1.9546    3.8419   -3.5146 O.3     1  LIG1       -0.4526
     20 C           3.0372    3.1388   -4.1575 C.3     1  LIG1        0.2332
     21 O           3.2979    1.8409   -3.5834 O.3     1  LIG1       -0.4526
     22 H           2.4572   -0.2976    0.8529 H       1  LIG1        0.0314
     23 H           1.2812    0.7075    1.6576 H       1  LIG1        0.0314
     24 H           0.5034   -1.6105    1.3629 H       1  LIG1        0.0304
     25 H           0.6788   -1.5134   -0.3866 H       1  LIG1        0.0304
     26 H          -1.7188   -2.1903   -0.6031 H       1  LIG1        0.0379
     27 H          -3.0002   -1.0612   -0.1444 H       1  LIG1        0.0379
     28 H          -2.3173   -2.0200    3.6059 H       1  LIG1        0.0722
     29 H          -3.1208   -5.3348    2.1660 H       1  LIG1        0.0660
     30 H          -3.7458   -3.9203    3.0325 H       1  LIG1        0.0660
     31 H          -1.9944   -4.3473    3.1092 H       1  LIG1        0.0660
     32 H           3.0341    0.0327   -1.5589 H       1  LIG1        0.0658
     33 H           0.2290    4.1677   -1.4135 H       1  LIG1        0.0655
     34 H           0.0909    2.5162    0.4376 H       1  LIG1        0.0621
     35 H           3.9467    3.7463   -4.0716 H       1  LIG1        0.1166
     36 H           2.7965    3.0152   -5.2187 H       1  LIG1        0.1166
@<TRIPOS>BOND
     1     1     2    1
     2     2     3    1
     3     3     4    1
     4     3     5    1
     5     5     6    1
     6     6     7    2
     7     7     8    1
     8     8     9    2
     9     8    10    1
    10     3    10    1
    11     6    11    1
    12    11    12    1
    13     1    13    1
    14    13    14   ar
    15    14    15   ar
    16    15    16   ar
    17    16    17   ar
    18    17    18   ar
    19    13    18   ar
    20    16    19    1
    21    19    20    1
    22    20    21    1
    23    15    21    1
    24     1    22    1
    25     1    23    1
    26     2    24    1
    27     2    25    1
    28     5    26    1
    29     5    27    1
    30     7    28    1
    31    12    29    1
    32    12    30    1
    33    12    31    1
    34    14    32    1
    35    17    33    1
    36    18    34    1
    37    20    35    1
    38    20    36    1
