REMARK  Name = NuBBE_2475
REMARK  12 active torsions:
REMARK  status: ('A' for Active; 'I' for Inactive)
REMARK    1  A    between atoms: C_1  and  O_2
REMARK    2  A    between atoms: O_2  and  C_3
REMARK    3  A    between atoms: C_5  and  C_6
REMARK    4  A    between atoms: C_6  and  C_7
REMARK    5  A    between atoms: C_9  and  C_11
REMARK    6  A    between atoms: C_11  and  O_12
REMARK    7  A    between atoms: C_13  and  C_15
REMARK    8  A    between atoms: C_18  and  O_19
REMARK    9  A    between atoms: O_19  and  C_20
REMARK   10  A    between atoms: C_21  and  O_22
REMARK   11  A    between atoms: O_22  and  C_23
REMARK   12  A    between atoms: C_29  and  O_30
REMARK                            x       y       z     vdW  Elec       q    Type
REMARK                         _______ _______ _______ _____ _____    ______ ____
ROOT
ATOM      1  C   LIG A   1      -0.423   0.251  -1.398  0.00  0.00    +0.027 C 
ATOM      2  C   LIG A   1       0.255  -0.947  -0.700  0.00  0.00    +0.053 C 
ATOM      3  C   LIG A   1       0.963  -0.270   0.478  0.00  0.00    +0.154 C 
ATOM      4  O   LIG A   1       1.368   1.022  -0.007  0.00  0.00    -0.371 OA
ATOM      5  C   LIG A   1       0.703   1.275  -1.258  0.00  0.00    +0.165 C 
ENDROOT
BRANCH   3   6
ATOM      6  C   LIG A   1       2.126  -1.049   1.053  0.00  0.00    -0.015 A 
ATOM      7  C   LIG A   1       3.445  -0.901   0.616  0.00  0.00    +0.010 A 
ATOM      8  C   LIG A   1       4.466  -1.677   1.177  0.00  0.00    +0.050 A 
ATOM      9  C   LIG A   1       4.192  -2.660   2.139  0.00  0.00    +0.162 A 
ATOM     10  C   LIG A   1       2.870  -2.829   2.575  0.00  0.00    +0.162 A 
ATOM     11  C   LIG A   1       1.871  -1.988   2.064  0.00  0.00    +0.055 A 
BRANCH   9  12
ATOM     12  O   LIG A   1       5.305  -3.342   2.559  0.00  0.00    -0.491 OA
ATOM     13  C   LIG A   1       5.114  -4.679   3.004  0.00  0.00    +0.277 C 
ENDBRANCH   9  12
BRANCH  10  14
ATOM     14  O   LIG A   1       2.578  -3.779   3.520  0.00  0.00    -0.491 OA
ATOM     15  C   LIG A   1       1.276  -4.351   3.420  0.00  0.00    +0.277 C 
ENDBRANCH  10  14
ENDBRANCH   3   6
BRANCH   1  16
ATOM     16  C   LIG A   1      -1.740   0.762  -0.742  0.00  0.00    +0.041 C 
BRANCH  16  19
ATOM     17  C   LIG A   1      -3.252   4.270  -1.357  0.00  0.00    +0.162 A 
ATOM     18  C   LIG A   1      -2.601   3.175  -0.753  0.00  0.00    +0.053 A 
ATOM     19  C   LIG A   1      -2.406   1.951  -1.440  0.00  0.00    -0.043 A 
ATOM     20  C   LIG A   1      -2.901   1.842  -2.740  0.00  0.00    +0.007 A 
ATOM     21  C   LIG A   1      -3.545   2.925  -3.358  0.00  0.00    +0.049 A 
ATOM     22  C   LIG A   1      -3.708   4.135  -2.669  0.00  0.00    +0.159 A 
BRANCH  17  24
ATOM     23  C   LIG A   1      -4.030   6.517  -1.092  0.00  0.00    +0.277 C 
ATOM     24  O   LIG A   1      -3.376   5.376  -0.547  0.00  0.00    -0.491 OA
ENDBRANCH  17  24
BRANCH  22  25
ATOM     25  O   LIG A   1      -4.325   5.158  -3.332  0.00  0.00    -0.503 OA
ATOM     26  H   LIG A   1      -4.535   4.899  -4.235  0.00  0.00    +0.292 HD
ENDBRANCH  22  25
ENDBRANCH  16  19
ENDBRANCH   1  16
BRANCH   2  27
ATOM     27  C   LIG A   1      -0.601  -2.142  -0.302  0.00  0.00    +0.162 C 
BRANCH  27  28
ATOM     28  O   LIG A   1      -1.226  -2.698  -1.450  0.00  0.00    -0.395 OA
ATOM     29  H   LIG A   1      -1.534  -3.589  -1.204  0.00  0.00    +0.209 HD
ENDBRANCH  27  28
ENDBRANCH   2  27
TORSDOF 9
