REMARK  Name = NuBBE_2436
REMARK  3 active torsions:
REMARK  status: ('A' for Active; 'I' for Inactive)
REMARK    1  A    between atoms: C_1  and  O_2
REMARK    2  A    between atoms: O_2  and  C_3
REMARK    3  A    between atoms: N_13  and  C_14
REMARK                            x       y       z     vdW  Elec       q    Type
REMARK                         _______ _______ _______ _____ _____    ______ ____
ROOT
ATOM      1  C   LIG A   1      -1.873  -1.546  -1.268  0.00  0.00    +0.128 A 
ATOM      2  C   LIG A   1      -2.094  -2.910  -1.522  0.00  0.00    +0.046 A 
ATOM      3  C   LIG A   1      -1.156  -3.866  -1.141  0.00  0.00    +0.004 A 
ATOM      4  C   LIG A   1      -0.016  -3.475  -0.452  0.00  0.00    +0.004 A 
ATOM      5  C   LIG A   1       0.196  -2.120  -0.162  0.00  0.00    -0.034 A 
ATOM      6  C   LIG A   1       1.390  -1.715   0.674  0.00  0.00    +0.059 C 
ATOM      7  C   LIG A   1      -0.692  -1.115  -0.624  0.00  0.00    +0.031 A 
ATOM      8  C   LIG A   1      -0.342   0.306  -0.339  0.00  0.00    +0.036 A 
ATOM      9  C   LIG A   1       0.454   0.613   0.803  0.00  0.00    -0.015 A 
ATOM     10  C   LIG A   1       1.015  -0.550   1.625  0.00  0.00    +0.092 C 
ATOM     11  N   LIG A   1       2.111  -0.179   2.559  0.00  0.00    -0.298 NA
ATOM     12  C   LIG A   1       3.421  -0.025   1.927  0.00  0.00    +0.105 C 
ATOM     13  C   LIG A   1       1.723   1.025   3.311  0.00  0.00    +0.089 C 
ATOM     14  C   LIG A   1       1.512   2.261   2.429  0.00  0.00    +0.051 C 
ATOM     15  C   LIG A   1       0.713   1.957   1.187  0.00  0.00    -0.037 A 
ATOM     16  C   LIG A   1       0.279   3.011   0.378  0.00  0.00    +0.053 A 
ATOM     17  C   LIG A   1      -0.391   2.695  -0.782  0.00  0.00    +0.167 A 
ATOM     18  C   LIG A   1      -0.685   1.393  -1.139  0.00  0.00    +0.174 A 
ATOM     19  O   LIG A   1      -1.272   1.352  -2.372  0.00  0.00    -0.452 OA
ATOM     20  C   LIG A   1      -1.403   2.747  -2.684  0.00  0.00    +0.466 C 
ATOM     21  O   LIG A   1      -0.807   3.609  -1.701  0.00  0.00    -0.453 OA
ENDROOT
BRANCH   1  23
ATOM     22  C   LIG A   1      -3.572  -0.805  -2.729  0.00  0.00    +0.277 C 
ATOM     23  O   LIG A   1      -2.865  -0.624  -1.506  0.00  0.00    -0.494 OA
ENDBRANCH   1  23
TORSDOF 1
