@<TRIPOS>MOLECULE
NuBBE_257
 68 72 0 0 0
SMALL
GASTEIGER

@<TRIPOS>ATOM
      1 O          -5.1983   -1.8386   -0.7439 O.2     1  LIG1       -0.2840
      2 C          -4.4359   -1.6948    0.1745 C.2     1  LIG1        0.2206
      3 C          -3.6369   -2.8402    0.6942 C.2     1  LIG1        0.1671
      4 O          -3.9250   -4.0568    0.0945 O.2     1  LIG1       -0.5030
      5 C          -2.6830   -2.6686    1.6373 C.2     1  LIG1        0.0022
      6 C          -1.9965   -3.8860    2.1783 C.3     1  LIG1       -0.0356
      7 C          -2.2434   -1.2793    2.0207 C.2     1  LIG1       -0.0144
      8 C          -1.1147   -0.9510    2.7061 C.2     1  LIG1       -0.0539
      9 C          -0.3415    0.3499    2.5709 C.2     1  LIG1       -0.0606
     10 C          -0.7318    1.2939    1.6761 C.2     1  LIG1       -0.0529
     11 C           0.2150    2.1731    0.4913 C.3     1  LIG1       -0.0043
     12 C           1.7215    2.8316    0.1943 C.3     1  LIG1       -0.0429
     13 C           2.9821    2.1831   -0.4887 C.3     1  LIG1       -0.0462
     14 C           2.7582    0.9142   -1.3472 C.3     1  LIG1       -0.0218
     15 C           4.0728    0.0789   -1.4152 C.3     1  LIG1        0.0144
     16 C           2.5031    1.2161   -2.8448 C.3     1  LIG1       -0.0589
     17 C           1.5570    0.2525   -0.5926 C.3     1  LIG1       -0.0261
     18 H           1.8260    0.3790    0.4742 H       1  LIG1        0.0313
     19 C           1.5124   -1.2845   -0.6090 C.3     1  LIG1       -0.0135
     20 C           2.8895   -1.9773   -0.5196 C.3     1  LIG1        0.1211
     21 C           2.7203   -3.4896   -0.5662 C.3     1  LIG1       -0.0291
     22 O           3.5697   -1.6736    0.7104 O.3     1  LIG1       -0.3813
     23 C           3.7625   -1.3883   -1.6130 C.2     1  LIG1        0.1648
     24 O           4.2200   -2.0404   -2.5482 O.2     1  LIG1       -0.2943
     25 C          -0.5103    3.5728    0.5081 C.3     1  LIG1       -0.0553
     26 C           0.1563    1.1037   -0.7508 C.3     1  LIG1       -0.0195
     27 C          -0.1618    1.6646   -2.1638 C.3     1  LIG1       -0.0585
     28 C          -1.0916    0.2375   -0.6324 C.3     1  LIG1       -0.0455
     29 C          -2.2336    1.2279   -0.2442 C.3     1  LIG1       -0.0393
     30 C          -2.3040    1.1859    1.2836 C.3     1  LIG1        0.0154
     31 C          -3.2174    2.1822    2.0295 C.3     1  LIG1       -0.0517
     32 C          -3.0041   -0.1742    1.4446 C.2     1  LIG1       -0.0262
     33 C          -4.1658   -0.3776    0.7784 C.2     1  LIG1       -0.0067
     34 H          -4.5337   -3.8368   -0.6497 H       1  LIG1        0.2923
     35 H          -2.3227   -4.8050    1.6747 H       1  LIG1        0.0279
     36 H          -2.2471   -4.0108    3.2360 H       1  LIG1        0.0279
     37 H          -0.9128   -3.8339    2.0501 H       1  LIG1        0.0279
     38 H          -0.5290   -1.7394    3.1744 H       1  LIG1        0.0624
     39 H           0.6881    0.2856    2.9142 H       1  LIG1        0.0618
     40 H           2.0565    3.4590    1.0285 H       1  LIG1        0.0274
     41 H           1.4952    3.5631   -0.6080 H       1  LIG1        0.0274
     42 H           3.6902    1.9652    0.3202 H       1  LIG1        0.0271
     43 H           3.4879    2.9430   -1.1066 H       1  LIG1        0.0271
     44 H           4.6960    0.1891   -0.5234 H       1  LIG1        0.0348
     45 H           4.7257    0.3925   -2.2430 H       1  LIG1        0.0348
     46 H           3.4147    1.2920   -3.4469 H       1  LIG1        0.0235
     47 H           2.0442    2.1859   -3.0146 H       1  LIG1        0.0235
     48 H           1.9258    0.4069   -3.3062 H       1  LIG1        0.0235
     49 H           0.9712   -1.6198   -1.4955 H       1  LIG1        0.0300
     50 H           0.9561   -1.6078    0.2816 H       1  LIG1        0.0300
     51 H           1.9495   -3.7855   -1.2833 H       1  LIG1        0.0261
     52 H           2.4317   -3.8655    0.4237 H       1  LIG1        0.0261
     53 H           3.6505   -3.9991   -0.8370 H       1  LIG1        0.0261
     54 H           4.4432   -2.1140    0.6646 H       1  LIG1        0.2107
     55 H           0.0559    4.2824    1.1351 H       1  LIG1        0.0238
     56 H          -1.4914    3.6073    0.9619 H       1  LIG1        0.0238
     57 H          -0.5997    4.0131   -0.4883 H       1  LIG1        0.0238
     58 H           0.3355    2.5902   -2.4193 H       1  LIG1        0.0235
     59 H          -1.2209    1.9014   -2.3258 H       1  LIG1        0.0235
     60 H          -0.0047    0.8705   -2.9064 H       1  LIG1        0.0235
     61 H          -0.9058   -0.5601    0.0838 H       1  LIG1        0.0271
     62 H          -1.3446   -0.3256   -1.5357 H       1  LIG1        0.0271
     63 H          -3.1240    0.9643   -0.8155 H       1  LIG1        0.0277
     64 H          -2.0894    2.2558   -0.5747 H       1  LIG1        0.0277
     65 H          -2.7116    3.0716    2.4091 H       1  LIG1        0.0241
     66 H          -3.6586    1.7166    2.9252 H       1  LIG1        0.0241
     67 H          -4.0559    2.5055    1.4013 H       1  LIG1        0.0241
     68 H          -4.7364    0.4164    0.3080 H       1  LIG1        0.0660
@<TRIPOS>BOND
     1     2     3    1
     2     3     5    2
     3     5     7    1
     4     7     8    2
     5     8     9    1
     6     9    10    2
     7    10    11    1
     8    11    12    1
     9    12    13    1
    10    13    14    1
    11    14    15    1
    12    14    17    1
    13    17    19    1
    14    19    20    1
    15    20    23    1
    16    15    23    1
    17    11    26    1
    18    17    26    1
    19    26    28    1
    20    28    29    1
    21    10    30    1
    22    29    30    1
    23    30    32    1
    24     7    32    1
    25    32    33    2
    26     2    33    1
    27     1     2    2
    28     3     4    1
    29     5     6    1
    30    11    25    1
    31    14    16    1
    32    17    18    1
    33    23    24    2
    34    26    27    1
    35    30    31    1
    36    20    22    1
    37    20    21    1
    38     4    34    1
    39     6    35    1
    40     6    36    1
    41     6    37    1
    42     8    38    1
    43     9    39    1
    44    12    40    1
    45    12    41    1
    46    13    42    1
    47    13    43    1
    48    15    44    1
    49    15    45    1
    50    16    46    1
    51    16    47    1
    52    16    48    1
    53    19    49    1
    54    19    50    1
    55    21    51    1
    56    21    52    1
    57    21    53    1
    58    22    54    1
    59    25    55    1
    60    25    56    1
    61    25    57    1
    62    27    58    1
    63    27    59    1
    64    27    60    1
    65    28    61    1
    66    28    62    1
    67    29    63    1
    68    29    64    1
    69    31    65    1
    70    31    66    1
    71    31    67    1
    72    33    68    1
