@<TRIPOS>MOLECULE
NuBBE_2117
 33 32 0 0 0
SMALL
GASTEIGER

@<TRIPOS>ATOM
      1 C          -1.7039    1.0883    2.2317 C.2     1  LIG1       -0.1026
      2 C          -2.2952    1.9722    1.3938 C.2     1  LIG1       -0.0911
      3 C          -2.1092    2.0712   -0.0960 C.3     1  LIG1       -0.0350
      4 C          -0.7798    1.5792   -0.6140 C.3     1  LIG1       -0.0496
      5 C           0.4729    2.2582   -0.0350 C.3     1  LIG1       -0.0528
      6 C           1.8169    1.6812   -0.5149 C.3     1  LIG1       -0.0530
      7 C           2.1616    0.2431   -0.0691 C.3     1  LIG1       -0.0531
      8 C           1.2220   -0.8267   -0.6130 C.3     1  LIG1       -0.0531
      9 C           1.4861   -2.2589   -0.1889 C.3     1  LIG1       -0.0533
     10 C           0.3995   -3.2099   -0.7310 C.3     1  LIG1       -0.0559
     11 C          -1.0301   -2.9350   -0.2538 C.3     1  LIG1       -0.0653
     12 H          -1.8729    1.1243    3.3081 H       1  LIG1        0.0532
     13 H          -1.0074    0.2977    1.8823 H       1  LIG1        0.0532
     14 H          -2.9643    2.6904    1.8322 H       1  LIG1        0.0566
     15 H          -2.2604    3.0981   -0.4240 H       1  LIG1        0.0307
     16 H          -2.8943    1.4625   -0.5618 H       1  LIG1        0.0307
     17 H          -0.7292    1.5731   -1.7076 H       1  LIG1        0.0268
     18 H          -0.8278    0.5373   -0.3315 H       1  LIG1        0.0268
     19 H           0.4688    2.2433    1.0587 H       1  LIG1        0.0265
     20 H           0.4318    3.3181   -0.3212 H       1  LIG1        0.0265
     21 H           2.6055    2.3375   -0.1180 H       1  LIG1        0.0265
     22 H           1.8796    1.7601   -1.6063 H       1  LIG1        0.0265
     23 H           2.1647    0.2021    1.0266 H       1  LIG1        0.0265
     24 H           3.1808    0.0182   -0.4016 H       1  LIG1        0.0265
     25 H           1.1079   -0.7329   -1.6997 H       1  LIG1        0.0265
     26 H           0.2757   -0.6711   -0.1385 H       1  LIG1        0.0265
     27 H           1.4868   -2.3065    0.9067 H       1  LIG1        0.0265
     28 H           2.4712   -2.5734   -0.5419 H       1  LIG1        0.0265
     29 H           0.6613   -4.2308   -0.4348 H       1  LIG1        0.0263
     30 H           0.4100   -3.1789   -1.8268 H       1  LIG1        0.0263
     31 H          -1.1389   -3.1558    0.8126 H       1  LIG1        0.0230
     32 H          -1.7348   -3.5717   -0.8007 H       1  LIG1        0.0230
     33 H          -1.3549   -1.9043   -0.4225 H       1  LIG1        0.0230
@<TRIPOS>BOND
     1     1     2    2
     2     2     3    1
     3     3     4    1
     4     4     5    1
     5     5     6    1
     6     6     7    1
     7     7     8    1
     8     8     9    1
     9     9    10    1
    10    10    11    1
    11     1    12    1
    12     1    13    1
    13     2    14    1
    14     3    15    1
    15     3    16    1
    16     4    17    1
    17     4    18    1
    18     5    19    1
    19     5    20    1
    20     6    21    1
    21     6    22    1
    22     7    23    1
    23     7    24    1
    24     8    25    1
    25     8    26    1
    26     9    27    1
    27     9    28    1
    28    10    29    1
    29    10    30    1
    30    11    31    1
    31    11    32    1
    32    11    33    1
