@<TRIPOS>MOLECULE
NuBBE_972
 33 34 0 0 0
SMALL
GASTEIGER

@<TRIPOS>ATOM
      1 O           1.1254    2.8719    0.9390 O.2     1  LIG1       -0.2702
      2 C           0.2710    2.1837    0.3818 C.2     1  LIG1        0.2441
      3 N           0.5447    1.2906   -0.6319 N.am    1  LIG1       -0.3110
      4 C           1.8818    1.0497   -1.1330 C.3     1  LIG1        0.0159
      5 C           2.6090   -0.0791   -0.3937 C.3     1  LIG1       -0.0120
      6 C           1.9270   -1.4286   -0.4869 C.ar    1  LIG1       -0.0457
      7 C           1.6960   -2.0417   -1.7281 C.ar    1  LIG1       -0.0551
      8 C           1.0751   -3.2919   -1.8015 C.ar    1  LIG1       -0.0199
      9 C           0.6955   -3.9383   -0.6305 C.ar    1  LIG1        0.1169
     10 O           0.0912   -5.1601   -0.6580 O.3     1  LIG1       -0.5068
     11 C           0.9266   -3.3554    0.6085 C.ar    1  LIG1       -0.0199
     12 C           1.5424   -2.1041    0.6811 C.ar    1  LIG1       -0.0551
     13 H          -0.2053    0.7593   -1.0567 H       1  LIG1        0.1490
     14 C          -1.1640    2.2951    0.7675 C.ar    1  LIG1        0.0367
     15 C          -2.0210    1.1864    0.6789 C.ar    1  LIG1       -0.0496
     16 C          -3.3635    1.3075    1.0342 C.ar    1  LIG1       -0.0610
     17 C          -3.8574    2.5281    1.4900 C.ar    1  LIG1       -0.0617
     18 C          -3.0105    3.6334    1.5874 C.ar    1  LIG1       -0.0610
     19 C          -1.6643    3.5186    1.2297 C.ar    1  LIG1       -0.0496
     20 H           2.4620    1.9752   -1.0461 H       1  LIG1        0.0465
     21 H           1.7805    0.8219   -2.1989 H       1  LIG1        0.0465
     22 H           2.7315    0.2024    0.6595 H       1  LIG1        0.0328
     23 H           3.6209   -0.1830   -0.8054 H       1  LIG1        0.0328
     24 H           2.0044   -1.5544   -2.6500 H       1  LIG1        0.0621
     25 H           0.9029   -3.7435   -2.7733 H       1  LIG1        0.0654
     26 H           0.0282   -5.4535   -1.5816 H       1  LIG1        0.2921
     27 H           0.6339   -3.8745    1.5170 H       1  LIG1        0.0654
     28 H           1.7234   -1.6621    1.6589 H       1  LIG1        0.0621
     29 H          -1.6521    0.2175    0.3584 H       1  LIG1        0.0625
     30 H          -4.0194    0.4438    0.9617 H       1  LIG1        0.0618
     31 H          -4.9031    2.6151    1.7749 H       1  LIG1        0.0618
     32 H          -3.4022    4.5839    1.9433 H       1  LIG1        0.0618
     33 H          -1.0106    4.3861    1.3038 H       1  LIG1        0.0625
@<TRIPOS>BOND
     1     1     2    2
     2     2     3   am
     3     3     4    1
     4     4     5    1
     5     5     6    1
     6     6     7   ar
     7     7     8   ar
     8     8     9   ar
     9     9    10    1
    10     9    11   ar
    11    11    12   ar
    12     6    12   ar
    13     3    13    1
    14     2    14    1
    15    14    15   ar
    16    15    16   ar
    17    16    17   ar
    18    17    18   ar
    19    18    19   ar
    20    14    19   ar
    21     4    20    1
    22     4    21    1
    23     5    22    1
    24     5    23    1
    25     7    24    1
    26     8    25    1
    27    10    26    1
    28    11    27    1
    29    12    28    1
    30    15    29    1
    31    16    30    1
    32    17    31    1
    33    18    32    1
    34    19    33    1
