REMARK  Name = NuBBE_1956
REMARK  9 active torsions:
REMARK  status: ('A' for Active; 'I' for Inactive)
REMARK    1  A    between atoms: O_1  and  C_2
REMARK    2  A    between atoms: O_1  and  C_3
REMARK    3  A    between atoms: C_6  and  O_7
REMARK    4  A    between atoms: O_7  and  C_8
REMARK    5  A    between atoms: C_16  and  C_17
REMARK    6  A    between atoms: C_17  and  C_18
REMARK    7  A    between atoms: C_18  and  C_19
REMARK    8  A    between atoms: C_18  and  O_22
REMARK    9  A    between atoms: C_19  and  C_21
REMARK                            x       y       z     vdW  Elec       q    Type
REMARK                         _______ _______ _______ _____ _____    ______ ____
ROOT
ATOM      1  C   LIG A   1      -0.908  -0.666   0.635  0.00  0.00    +0.138 A 
ATOM      2  C   LIG A   1      -0.171  -1.940   0.641  0.00  0.00    +0.044 A 
ATOM      3  C   LIG A   1       1.222  -1.911   0.769  0.00  0.00    +0.095 A 
ATOM      4  C   LIG A   1       1.992  -3.080   0.705  0.00  0.00    +0.144 A 
ATOM      5  C   LIG A   1       1.349  -4.304   0.526  0.00  0.00    +0.048 A 
ATOM      6  C   LIG A   1      -0.043  -4.352   0.411  0.00  0.00    +0.004 A 
ATOM      7  C   LIG A   1      -0.800  -3.180   0.472  0.00  0.00    +0.014 A 
ATOM      8  N   LIG A   1       1.865  -0.673   0.943  0.00  0.00    -0.319 N 
ATOM      9  H   LIG A   1       2.874  -0.678   1.063  0.00  0.00    +0.169 HD
ATOM     10  C   LIG A   1       1.233   0.520   0.941  0.00  0.00    +0.256 A 
ATOM     11  O   LIG A   1       1.844   1.580   1.113  0.00  0.00    -0.268 OA
ATOM     12  C   LIG A   1      -0.247   0.508   0.731  0.00  0.00    +0.062 A 
ENDROOT
BRANCH   1  13
ATOM     13  O   LIG A   1      -2.285  -0.758   0.590  0.00  0.00    -0.494 OA
ATOM     14  C   LIG A   1      -2.824  -0.490  -0.703  0.00  0.00    +0.277 C 
ENDBRANCH   1  13
BRANCH   4  15
ATOM     15  O   LIG A   1       3.348  -2.920   0.850  0.00  0.00    -0.493 OA
ATOM     16  C   LIG A   1       4.159  -3.909   0.228  0.00  0.00    +0.277 C 
ENDBRANCH   4  15
BRANCH  12  17
ATOM     17  C   LIG A   1      -0.897   1.864   0.704  0.00  0.00    +0.080 C 
BRANCH  17  18
ATOM     18  C   LIG A   1      -0.738   2.590  -0.657  0.00  0.00    +0.144 C 
BRANCH  18  19
ATOM     19  C   LIG A   1      -1.372   3.971  -0.711  0.00  0.00    -0.051 C 
ATOM     20  C   LIG A   1      -2.037   4.539   0.312  0.00  0.00    +0.010 C 
ATOM     21  C   LIG A   1      -1.225   4.713  -2.015  0.00  0.00    +0.041 C 
ENDBRANCH  18  19
BRANCH  18  22
ATOM     22  O   LIG A   1       0.632   2.744  -1.025  0.00  0.00    -0.387 OA
ATOM     23  H   LIG A   1       1.160   2.829  -0.206  0.00  0.00    +0.210 HD
ENDBRANCH  18  22
ENDBRANCH  17  18
ENDBRANCH  12  17
TORSDOF 6
