REMARK  Name = NuBBE_2143
REMARK  12 active torsions:
REMARK  status: ('A' for Active; 'I' for Inactive)
REMARK    1  A    between atoms: O_1  and  C_2
REMARK    2  A    between atoms: C_2  and  C_3
REMARK    3  A    between atoms: C_3  and  C_4
REMARK    4  A    between atoms: C_4  and  C_5
REMARK    5  A    between atoms: C_5  and  C_6
REMARK    6  A    between atoms: C_6  and  C_7
REMARK    7  A    between atoms: C_7  and  C_8
REMARK    8  A    between atoms: C_8  and  C_9
REMARK    9  A    between atoms: C_9  and  C_10
REMARK   10  A    between atoms: C_10  and  C_11
REMARK   11  A    between atoms: C_11  and  C_12
REMARK   12  A    between atoms: C_12  and  C_13
REMARK                            x       y       z     vdW  Elec       q    Type
REMARK                         _______ _______ _______ _____ _____    ______ ____
ROOT
ATOM      1  C   LIG A   1      -0.413   0.957  -1.167  0.00  0.00    +0.000 C 
ENDROOT
BRANCH   1   2
ATOM      2  C   LIG A   1       0.952   1.640  -1.394  0.00  0.00    +0.000 C 
BRANCH   2   3
ATOM      3  C   LIG A   1       1.430   1.566  -2.846  0.00  0.00    +0.011 C 
BRANCH   3   4
ATOM      4  C   LIG A   1       2.799   2.223  -3.076  0.00  0.00    +0.120 C 
BRANCH   4   5
ATOM      5  C   LIG A   1       3.249   2.104  -4.522  0.00  0.00    +0.305 C 
ATOM      6  O   LIG A   1       4.394   2.013  -4.907  0.00  0.00    -0.251 OA
BRANCH   5   7
ATOM      7  O   LIG A   1       2.222   2.148  -5.402  0.00  0.00    -0.481 OA
ATOM      8  H   LIG A   1       2.645   1.996  -6.272  0.00  0.00    +0.295 HD
ENDBRANCH   5   7
ENDBRANCH   4   5
ENDBRANCH   3   4
ENDBRANCH   2   3
ENDBRANCH   1   2
BRANCH   1   9
ATOM      9  C   LIG A   1      -0.826   1.079   0.308  0.00  0.00    -0.000 C 
BRANCH   9  10
ATOM     10  C   LIG A   1      -2.179   0.458   0.678  0.00  0.00    -0.000 C 
BRANCH  10  11
ATOM     11  C   LIG A   1      -2.313  -1.046   0.420  0.00  0.00    -0.000 C 
BRANCH  11  12
ATOM     12  C   LIG A   1      -1.278  -1.910   1.151  0.00  0.00    -0.000 C 
BRANCH  12  13
ATOM     13  C   LIG A   1      -1.362  -1.777   2.675  0.00  0.00    -0.000 C 
BRANCH  13  14
ATOM     14  C   LIG A   1      -0.322  -2.648   3.377  0.00  0.00    -0.003 C 
ATOM     15  C   LIG A   1      -0.405  -2.510   4.890  0.00  0.00    +0.004 C 
ENDBRANCH  13  14
ENDBRANCH  12  13
ENDBRANCH  11  12
ENDBRANCH  10  11
ENDBRANCH   9  10
ENDBRANCH   1   9
TORSDOF 11
