REMARK  Name = NuBBE_2175
REMARK  11 active torsions:
REMARK  status: ('A' for Active; 'I' for Inactive)
REMARK    1  A    between atoms: C_6  and  O_7
REMARK    2  A    between atoms: O_7  and  C_8
REMARK    3  A    between atoms: C_8  and  C_9
REMARK    4  A    between atoms: C_10  and  C_11
REMARK    5  A    between atoms: C_10  and  C_12
REMARK    6  A    between atoms: C_17  and  C_18
REMARK    7  A    between atoms: C_20  and  O_21
REMARK    8  A    between atoms: O_21  and  C_22
REMARK    9  A    between atoms: C_22  and  C_23
REMARK   10  A    between atoms: C_25  and  O_26
REMARK   11  A    between atoms: O_26  and  C_27
REMARK                            x       y       z     vdW  Elec       q    Type
REMARK                         _______ _______ _______ _____ _____    ______ ____
ROOT
ATOM      1  O   LIG A   1      -3.412  -0.384   0.251  0.00  0.00    -0.286 OA
ATOM      2  C   LIG A   1      -2.187  -0.405   0.202  0.00  0.00    +0.200 A 
ATOM      3  C   LIG A   1      -1.482  -1.689   0.083  0.00  0.00    +0.065 A 
ATOM      4  C   LIG A   1      -2.189  -2.892  -0.006  0.00  0.00    +0.019 A 
ATOM      5  C   LIG A   1      -1.485  -4.094  -0.112  0.00  0.00    +0.046 A 
ATOM      6  C   LIG A   1      -0.086  -4.091  -0.119  0.00  0.00    +0.124 A 
ATOM      7  C   LIG A   1       0.603  -2.880  -0.092  0.00  0.00    +0.092 A 
ATOM      8  C   LIG A   1      -0.095  -1.688   0.040  0.00  0.00    +0.142 A 
ATOM      9  O   LIG A   1       0.659  -0.552   0.134  0.00  0.00    -0.462 OA
ATOM     10  C   LIG A   1      -0.007   0.640   0.230  0.00  0.00    +0.208 A 
ATOM     11  C   LIG A   1      -1.339   0.825   0.246  0.00  0.00    +0.064 A 
ENDROOT
BRANCH  11  12
ATOM     12  C   LIG A   1      -1.907   2.187   0.310  0.00  0.00    -0.008 A 
ATOM     13  C   LIG A   1      -1.255   3.263  -0.308  0.00  0.00    +0.059 A 
ATOM     14  C   LIG A   1      -1.758   4.559  -0.198  0.00  0.00    +0.174 A 
ATOM     15  C   LIG A   1      -2.990   4.803   0.425  0.00  0.00    +0.162 A 
ATOM     16  C   LIG A   1      -3.664   3.727   1.004  0.00  0.00    +0.050 A 
ATOM     17  C   LIG A   1      -3.113   2.443   0.971  0.00  0.00    +0.012 A 
BRANCH  15  18
ATOM     18  O   LIG A   1      -3.440   6.096   0.422  0.00  0.00    -0.491 OA
ATOM     19  C   LIG A   1      -4.694   6.331   1.054  0.00  0.00    +0.277 C 
ENDBRANCH  15  18
BRANCH  14  20
ATOM     20  O   LIG A   1      -1.067   5.670  -0.737  0.00  0.00    -0.422 OA
BRANCH  20  21
ATOM     21  C   LIG A   1       0.332   5.723  -0.694  0.00  0.00    +0.309 C 
ATOM     22  C   LIG A   1       0.763   7.068  -1.207  0.00  0.00    +0.136 C 
ATOM     23  O   LIG A   1       1.098   4.860  -0.308  0.00  0.00    -0.251 OA
ENDBRANCH  20  21
ENDBRANCH  14  20
ENDBRANCH  11  12
BRANCH   6  24
ATOM     24  O   LIG A   1       0.534  -5.307  -0.183  0.00  0.00    -0.488 OA
BRANCH  24  25
ATOM     25  C   LIG A   1       1.795  -5.397   0.499  0.00  0.00    +0.256 C 
BRANCH  25  26
ATOM     26  C   LIG A   1       2.869  -5.753  -0.489  0.00  0.00    +0.012 C 
ATOM     27  C   LIG A   1       4.164  -5.378  -0.466  0.00  0.00    -0.076 C 
ATOM     28  C   LIG A   1       4.789  -4.481   0.568  0.00  0.00    +0.038 C 
ATOM     29  C   LIG A   1       5.136  -5.899  -1.494  0.00  0.00    +0.038 C 
ENDBRANCH  25  26
ENDBRANCH  24  25
ENDBRANCH   6  24
TORSDOF 7
