REMARK  Name = NuBBE_1485
REMARK  6 active torsions:
REMARK  status: ('A' for Active; 'I' for Inactive)
REMARK    1  A    between atoms: C_1  and  C_2
REMARK    2  A    between atoms: C_2  and  C_4
REMARK    3  A    between atoms: C_9  and  C_10
REMARK    4  A    between atoms: C_16  and  O_17
REMARK    5  A    between atoms: N_20  and  C_21
REMARK    6  A    between atoms: C_23  and  O_24
REMARK                            x       y       z     vdW  Elec       q    Type
REMARK                         _______ _______ _______ _____ _____    ______ ____
ROOT
ATOM      1  C   LIG A   1      -0.661   1.515   3.792  0.00  0.00    +0.060 C 
ATOM      2  C   LIG A   1       0.656   1.400   3.015  0.00  0.00    +0.123 C 
ATOM      3  O   LIG A   1       0.727   0.074   2.463  0.00  0.00    -0.481 OA
ATOM      4  C   LIG A   1       1.837   1.507   3.987  0.00  0.00    +0.060 C 
ATOM      5  C   LIG A   1       0.753   2.498   1.989  0.00  0.00    +0.020 C 
ATOM      6  C   LIG A   1       0.568   2.278   0.684  0.00  0.00    +0.013 C 
ATOM      7  C   LIG A   1       0.227   0.926   0.238  0.00  0.00    +0.042 A 
ATOM      8  C   LIG A   1       0.347  -0.133   1.158  0.00  0.00    +0.142 A 
ATOM      9  C   LIG A   1       0.138  -1.478   0.773  0.00  0.00    +0.067 A 
ATOM     10  C   LIG A   1      -0.181  -1.734  -0.574  0.00  0.00    +0.141 A 
ATOM     11  C   LIG A   1      -0.308  -0.685  -1.501  0.00  0.00    +0.088 A 
ATOM     12  C   LIG A   1      -0.151   0.656  -1.099  0.00  0.00    +0.067 A 
ATOM     13  N   LIG A   1      -0.367   1.722  -2.046  0.00  0.00    -0.339 N 
ATOM     14  C   LIG A   1      -1.687   2.345  -1.740  0.00  0.00    +0.149 C 
ATOM     15  C   LIG A   1      -0.342   1.428  -3.447  0.00  0.00    +0.095 A 
ATOM     16  C   LIG A   1      -0.161   2.446  -4.396  0.00  0.00    +0.141 A 
ATOM     17  C   LIG A   1      -0.201   2.187  -5.763  0.00  0.00    +0.047 A 
ATOM     18  C   LIG A   1      -0.396   0.880  -6.209  0.00  0.00    +0.004 A 
ATOM     19  C   LIG A   1      -0.532  -0.159  -5.286  0.00  0.00    +0.014 A 
ATOM     20  C   LIG A   1      -0.490   0.118  -3.914  0.00  0.00    +0.050 A 
ATOM     21  C   LIG A   1      -0.592  -0.972  -2.928  0.00  0.00    +0.201 A 
ATOM     22  O   LIG A   1      -0.870  -2.115  -3.283  0.00  0.00    -0.286 OA
ENDROOT
BRANCH   9  23
ATOM     23  C   LIG A   1       0.262  -2.578   1.754  0.00  0.00    -0.011 A 
ATOM     24  C   LIG A   1       1.283  -3.536   1.643  0.00  0.00    +0.009 A 
ATOM     25  C   LIG A   1       1.404  -4.570   2.575  0.00  0.00    +0.001 A 
ATOM     26  C   LIG A   1       0.506  -4.662   3.635  0.00  0.00    +0.000 A 
ATOM     27  C   LIG A   1      -0.515  -3.723   3.763  0.00  0.00    +0.001 A 
ATOM     28  C   LIG A   1      -0.635  -2.690   2.830  0.00  0.00    +0.009 A 
ENDBRANCH   9  23
BRANCH  10  29
ATOM     29  O   LIG A   1      -0.371  -3.044  -0.954  0.00  0.00    -0.505 OA
ATOM     30  H   LIG A   1      -0.624  -3.065  -1.904  0.00  0.00    +0.292 HD
ENDBRANCH  10  29
BRANCH  16  31
ATOM     31  O   LIG A   1       0.105   3.727  -3.995  0.00  0.00    -0.505 OA
ATOM     32  H   LIG A   1       0.343   3.657  -3.051  0.00  0.00    +0.292 HD
ENDBRANCH  16  31
TORSDOF 3
