@<TRIPOS>MOLECULE
NuBBE_935
 37 39 0 0 0
SMALL
GASTEIGER

@<TRIPOS>ATOM
      1 O          -1.8886    1.5212    1.2374 O.3     1  LIG1       -0.4939
      2 C          -2.5604    0.6940    2.1787 C.3     1  LIG1        0.0788
      3 C          -0.5861    1.2011    0.9499 C.ar    1  LIG1        0.1401
      4 C          -0.1041   -0.0800    0.7667 C.ar    1  LIG1        0.0881
      5 C           1.2026   -0.2228    0.3500 C.ar    1  LIG1        0.2252
      6 N           2.0722    0.7626    0.1058 N.ar    1  LIG1       -0.2124
      7 C           1.6169    2.0081    0.2906 C.ar    1  LIG1        0.0783
      8 C           0.2869    2.2922    0.7039 C.ar    1  LIG1        0.0426
      9 C          -0.1049    3.6417    0.8482 C.ar    1  LIG1       -0.0490
     10 C           0.7839    4.6854    0.5956 C.ar    1  LIG1       -0.0610
     11 C           2.0808    4.3969    0.1922 C.ar    1  LIG1       -0.0597
     12 C           2.4798    3.0670    0.0449 C.ar    1  LIG1       -0.0355
     13 O           1.5668   -1.5231    0.0437 O.3     1  LIG1       -0.4669
     14 C           0.3134   -2.2462    0.0517 C.3     1  LIG1        0.1598
     15 H           0.4947   -3.1917    0.5810 H       1  LIG1        0.0792
     16 C          -0.7168   -1.4214    0.8537 C.3     1  LIG1        0.1280
     17 H          -1.7255   -1.4807    0.4395 H       1  LIG1        0.0685
     18 O          -0.7468   -1.8124    2.2260 O.3     1  LIG1       -0.3831
     19 C          -0.1515   -2.5849   -1.3951 C.3     1  LIG1        0.1000
     20 C          -0.3929   -1.3563   -2.2813 C.3     1  LIG1       -0.0327
     21 C           0.8670   -3.5055   -2.0782 C.3     1  LIG1       -0.0327
     22 O          -1.3904   -3.3073   -1.2981 O.3     1  LIG1       -0.3854
     23 H          -1.9181    0.4142    3.0189 H       1  LIG1        0.0660
     24 H          -2.9873   -0.1823    1.6850 H       1  LIG1        0.0660
     25 H          -3.4005    1.2692    2.5807 H       1  LIG1        0.0660
     26 H          -1.1183    3.8835    1.1650 H       1  LIG1        0.0625
     27 H           0.4631    5.7167    0.7140 H       1  LIG1        0.0618
     28 H           2.7839    5.2003   -0.0103 H       1  LIG1        0.0618
     29 H           3.4967    2.8486   -0.2763 H       1  LIG1        0.0639
     30 H          -0.9867   -2.7550    2.2500 H       1  LIG1        0.2104
     31 H          -0.7522   -1.6586   -3.2721 H       1  LIG1        0.0258
     32 H           0.5170   -0.7648   -2.4212 H       1  LIG1        0.0258
     33 H          -1.1759   -0.7118   -1.8683 H       1  LIG1        0.0258
     34 H           0.5165   -3.8037   -3.0733 H       1  LIG1        0.0258
     35 H           0.9946   -4.4332   -1.5088 H       1  LIG1        0.0258
     36 H           1.8439   -3.0246   -2.1881 H       1  LIG1        0.0258
     37 H          -1.6739   -3.5364   -2.2021 H       1  LIG1        0.2103
@<TRIPOS>BOND
     1     1     2    1
     2     1     3    1
     3     3     4   ar
     4     4     5   ar
     5     5     6   ar
     6     6     7   ar
     7     7     8   ar
     8     3     8   ar
     9     8     9   ar
    10     9    10   ar
    11    10    11   ar
    12    11    12   ar
    13     7    12   ar
    14     5    13    1
    15    13    14    1
    16    14    16    1
    17    16    17    1
    18     4    16    1
    19    16    18    1
    20    19    20    1
    21    19    21    1
    22    19    22    1
    23    14    19    1
    24    14    15    1
    25     2    23    1
    26     2    24    1
    27     2    25    1
    28     9    26    1
    29    10    27    1
    30    11    28    1
    31    12    29    1
    32    18    30    1
    33    20    31    1
    34    20    32    1
    35    20    33    1
    36    21    34    1
    37    21    35    1
    38    21    36    1
    39    22    37    1
