@<TRIPOS>MOLECULE
NuBBE_2467
 51 54 0 0 0
SMALL
GASTEIGER

@<TRIPOS>ATOM
      1 C           5.7063    2.3490   -3.8216 C.3     1  LIG1        0.0790
      2 O           5.1395    1.2786   -3.0807 O.3     1  LIG1       -0.4914
      3 C           4.8297    1.5433   -1.7743 C.ar    1  LIG1        0.1616
      4 C           3.7187    0.8293   -1.3076 C.ar    1  LIG1       -0.0107
      5 C           3.2382    0.9808    0.0065 C.ar    1  LIG1       -0.0149
      6 C           1.9984    0.2403    0.4805 C.3     1  LIG1        0.0891
      7 H           2.3242   -0.7192    0.9015 H       1  LIG1        0.0650
      8 C           0.9256    0.0580   -0.6030 C.3     1  LIG1        0.0205
      9 H           1.0456    0.7632   -1.4337 H       1  LIG1        0.0356
     10 C          -0.3659    0.2940    0.1236 C.3     1  LIG1        0.0205
     11 H          -1.1510    0.6897   -0.5308 H       1  LIG1        0.0356
     12 C           0.0256    1.2923    1.1827 C.3     1  LIG1        0.0544
     13 O           1.3656    0.9669    1.5630 O.3     1  LIG1       -0.3712
     14 C          -0.7118   -1.0942    0.6648 C.3     1  LIG1        0.0891
     15 H          -0.3857   -1.2261    1.7034 H       1  LIG1        0.0650
     16 O           0.0249   -2.0607   -0.1089 O.3     1  LIG1       -0.3712
     17 C           0.8041   -1.3666   -1.0856 C.3     1  LIG1        0.0544
     18 C          -2.1937   -1.3720    0.5732 C.ar    1  LIG1       -0.0149
     19 C          -3.0081   -1.0137    1.6543 C.ar    1  LIG1       -0.0107
     20 C          -4.3974   -1.2171    1.6154 C.ar    1  LIG1        0.1618
     21 O          -5.2355   -0.8723    2.6521 O.3     1  LIG1       -0.4914
     22 C          -4.6301   -0.2805    3.7956 C.3     1  LIG1        0.0790
     23 C          -4.9703   -1.8157    0.4842 C.ar    1  LIG1        0.1615
     24 O          -6.3348   -2.0078    0.4916 O.3     1  LIG1       -0.4915
     25 C          -6.8156   -3.0572   -0.3411 C.3     1  LIG1        0.0790
     26 C          -4.1639   -2.1462   -0.6121 C.ar    1  LIG1       -0.0160
     27 C          -2.7848   -1.9257   -0.5605 C.ar    1  LIG1       -0.0524
     28 C           3.9633    1.7938    0.8797 C.ar    1  LIG1       -0.0524
     29 C           5.0899    2.4925    0.4367 C.ar    1  LIG1       -0.0162
     30 C           5.5105    2.3766   -0.8911 C.ar    1  LIG1        0.1585
     31 O           6.6206    3.0705   -1.2887 O.3     1  LIG1       -0.5033
     32 H           5.6815    2.0601   -4.8786 H       1  LIG1        0.0660
     33 H           6.7571    2.5029   -3.5647 H       1  LIG1        0.0660
     34 H           5.1223    3.2696   -3.7172 H       1  LIG1        0.0660
     35 H           3.2237    0.1650   -2.0056 H       1  LIG1        0.0659
     36 H          -0.6226    1.2786    2.0636 H       1  LIG1        0.0564
     37 H           0.0356    2.3112    0.7787 H       1  LIG1        0.0564
     38 H           0.2613   -1.4142   -2.0355 H       1  LIG1        0.0564
     39 H           1.7649   -1.8732   -1.2110 H       1  LIG1        0.0564
     40 H          -2.5341   -0.5689    2.5184 H       1  LIG1        0.0659
     41 H          -4.1054    0.6464    3.5340 H       1  LIG1        0.0660
     42 H          -3.9523   -0.9875    4.2886 H       1  LIG1        0.0660
     43 H          -5.4161   -0.0203    4.5089 H       1  LIG1        0.0660
     44 H          -7.8675   -3.2301   -0.0962 H       1  LIG1        0.0660
     45 H          -6.2721   -3.9923   -0.1608 H       1  LIG1        0.0660
     46 H          -6.7693   -2.7767   -1.3991 H       1  LIG1        0.0660
     47 H          -4.5779   -2.5672   -1.5175 H       1  LIG1        0.0655
     48 H          -2.1777   -2.1988   -1.4231 H       1  LIG1        0.0622
     49 H           3.6550    1.8936    1.9235 H       1  LIG1        0.0622
     50 H           5.6268    3.1116    1.1480 H       1  LIG1        0.0655
     51 H           6.9848    3.5462   -0.5233 H       1  LIG1        0.2923
@<TRIPOS>BOND
     1     1     2    1
     2     2     3    1
     3     3     4   ar
     4     4     5   ar
     5     6     8    1
     6     8     9    1
     7     8    10    1
     8    10    11    1
     9    10    12    1
    10    12    13    1
    11     6    13    1
    12    10    14    1
    13    14    15    1
    14    14    16    1
    15    16    17    1
    16     8    17    1
    17    14    18    1
    18    18    19   ar
    19    19    20   ar
    20    20    21    1
    21    21    22    1
    22    20    23   ar
    23    23    24    1
    24    24    25    1
    25    23    26   ar
    26    26    27   ar
    27    18    27   ar
    28     5    28   ar
    29    28    29   ar
    30    29    30   ar
    31     3    30   ar
    32    30    31    1
    33     6     7    1
    34     6     5    1
    35     1    32    1
    36     1    33    1
    37     1    34    1
    38     4    35    1
    39    12    36    1
    40    12    37    1
    41    17    38    1
    42    17    39    1
    43    19    40    1
    44    22    41    1
    45    22    42    1
    46    22    43    1
    47    25    44    1
    48    25    45    1
    49    25    46    1
    50    26    47    1
    51    27    48    1
    52    28    49    1
    53    29    50    1
    54    31    51    1
