@<TRIPOS>MOLECULE
NuBBE_180
 33 35 0 0 0
SMALL
GASTEIGER

@<TRIPOS>ATOM
      1 O          -5.7580    2.1872   -0.2498 O.3     1  LIG1       -0.5066
      2 C          -4.4142    2.3951   -0.1498 C.ar    1  LIG1        0.1204
      3 C          -3.5145    1.3316   -0.1287 C.ar    1  LIG1        0.0229
      4 C          -2.1482    1.5987   -0.0289 C.ar    1  LIG1        0.1427
      5 C          -1.6997    2.9156    0.0500 C.ar    1  LIG1        0.0642
      6 C          -0.2555    3.1622    0.1533 C.ar    1  LIG1        0.1931
      7 C           0.6129    1.9749    0.1700 C.ar    1  LIG1        0.0287
      8 C           0.0686    0.7517    0.0785 C.ar    1  LIG1        0.1393
      9 C           0.8965   -0.4757    0.0888 C.ar    1  LIG1        0.0211
     10 C           2.1834   -0.5037   -0.4782 C.ar    1  LIG1       -0.0474
     11 C           2.9621   -1.6703   -0.4714 C.ar    1  LIG1       -0.0156
     12 C           2.4605   -2.8396    0.0916 C.ar    1  LIG1        0.1613
     13 O           3.1039   -4.0481    0.1549 O.3     1  LIG1       -0.4915
     14 C           4.4088   -4.1017   -0.4126 C.3     1  LIG1        0.0790
     15 C           1.1782   -2.8153    0.6479 C.ar    1  LIG1        0.1591
     16 O           0.6532   -3.9467    1.2135 O.3     1  LIG1       -0.5033
     17 C           0.3997   -1.6600    0.6495 C.ar    1  LIG1       -0.0059
     18 O          -1.2980    0.5204   -0.0155 O.2     1  LIG1       -0.4545
     19 O           0.2172    4.2881    0.2190 O.2     1  LIG1       -0.2870
     20 C          -2.6063    3.9793    0.0300 C.ar    1  LIG1       -0.0439
     21 C          -3.9718    3.7132   -0.0708 C.ar    1  LIG1       -0.0193
     22 H          -5.9285    1.2321   -0.3020 H       1  LIG1        0.2921
     23 H          -3.8559    0.3032   -0.1893 H       1  LIG1        0.0691
     24 H           1.6733    2.1667    0.2652 H       1  LIG1        0.0693
     25 H           2.6024    0.3832   -0.9496 H       1  LIG1        0.0626
     26 H           3.9490   -1.6244   -0.9193 H       1  LIG1        0.0655
     27 H           4.7663   -5.1328   -0.3344 H       1  LIG1        0.0660
     28 H           5.1024   -3.4628    0.1440 H       1  LIG1        0.0660
     29 H           4.3929   -3.8373   -1.4753 H       1  LIG1        0.0660
     30 H           1.3507   -4.6244    1.1177 H       1  LIG1        0.2923
     31 H          -0.5896   -1.6973    1.0982 H       1  LIG1        0.0662
     32 H          -2.2537    5.0063    0.0918 H       1  LIG1        0.0627
     33 H          -4.6882    4.5305   -0.0882 H       1  LIG1        0.0654
@<TRIPOS>BOND
     1     1     2    1
     2     2     3   ar
     3     3     4   ar
     4     4     5   ar
     5     5     6   ar
     6     6     7   ar
     7     7     8   ar
     8     8     9    1
     9     9    10   ar
    10    10    11   ar
    11    11    12   ar
    12    12    13    1
    13    13    14    1
    14    12    15   ar
    15    15    16    1
    16    15    17   ar
    17     9    17   ar
    18     8    18   ar
    19     4    18   ar
    20     6    19    2
    21     5    20   ar
    22    20    21   ar
    23     2    21   ar
    24     1    22    1
    25     3    23    1
    26     7    24    1
    27    10    25    1
    28    11    26    1
    29    14    27    1
    30    14    28    1
    31    14    29    1
    32    16    30    1
    33    17    31    1
    34    20    32    1
    35    21    33    1
