@<TRIPOS>MOLECULE
NuBBE_2012
 39 40 0 0 0
SMALL
GASTEIGER

@<TRIPOS>ATOM
      1 C          -2.6619   -1.8482    0.3665 C.3     1  LIG1        0.0730
      2 O          -3.1408   -3.1960    0.4636 O.3     1  LIG1       -0.3784
      3 C          -4.5586   -3.2573    0.4127 C.3     1  LIG1        0.0369
      4 C          -1.1448   -1.7966    0.4142 C.ar    1  LIG1       -0.0111
      5 C          -0.4290   -0.5763    0.3758 C.ar    1  LIG1        0.0294
      6 C           0.9922   -0.5587    0.4077 C.ar    1  LIG1       -0.0295
      7 C           1.7800    0.7454    0.3281 C.3     1  LIG1       -0.0025
      8 C           0.9487    1.9588   -0.0491 C.2     1  LIG1       -0.0309
      9 C           1.3341    2.8651   -0.9864 C.2     1  LIG1       -0.0733
     10 C           2.6917    2.8661   -1.6511 C.3     1  LIG1       -0.0437
     11 C           0.4603    3.9934   -1.4814 C.3     1  LIG1       -0.0437
     12 C          -0.3265    1.9580    0.7680 C.3     1  LIG1        0.1391
     13 C          -1.1399    0.7376    0.3336 C.2     1  LIG1        0.1961
     14 O          -2.3236    0.8471    0.0121 O.2     1  LIG1       -0.2889
     15 O          -1.0764    3.1543    0.6679 O.3     1  LIG1       -0.3796
     16 C           1.6954   -1.7801    0.5295 C.ar    1  LIG1       -0.0463
     17 C           0.9815   -2.9816    0.5669 C.ar    1  LIG1       -0.0582
     18 C          -0.4103   -2.9884    0.5078 C.ar    1  LIG1       -0.0555
     19 C           3.1998   -1.8429    0.5703 C.3     1  LIG1       -0.0394
     20 H          -3.0698   -1.2805    1.2106 H       1  LIG1        0.0610
     21 H          -3.0076   -1.4337   -0.5867 H       1  LIG1        0.0610
     22 H          -4.8563   -4.3083    0.4664 H       1  LIG1        0.0524
     23 H          -4.9309   -2.8380   -0.5268 H       1  LIG1        0.0524
     24 H          -4.9948   -2.7278    1.2646 H       1  LIG1        0.0524
     25 H           2.5780    0.5866   -0.4023 H       1  LIG1        0.0359
     26 H           2.2421    0.9316    1.3057 H       1  LIG1        0.0359
     27 H           3.4539    2.3267   -1.0839 H       1  LIG1        0.0274
     28 H           3.0650    3.8927   -1.7447 H       1  LIG1        0.0274
     29 H           2.6224    2.4331   -2.6538 H       1  LIG1        0.0274
     30 H          -0.5863    3.6936   -1.5808 H       1  LIG1        0.0274
     31 H           0.7665    4.3080   -2.4861 H       1  LIG1        0.0274
     32 H           0.5424    4.8614   -0.8203 H       1  LIG1        0.0274
     33 H          -0.0913    1.8426    1.8326 H       1  LIG1        0.0724
     34 H          -1.9487    2.8894    0.3131 H       1  LIG1        0.2108
     35 H           1.5035   -3.9340    0.6412 H       1  LIG1        0.0620
     36 H          -0.9215   -3.9497    0.5421 H       1  LIG1        0.0621
     37 H           3.6048   -1.0964    1.2602 H       1  LIG1        0.0278
     38 H           3.6090   -1.6774   -0.4311 H       1  LIG1        0.0278
     39 H           3.5477   -2.8198    0.9233 H       1  LIG1        0.0278
@<TRIPOS>BOND
     1     1     2    1
     2     2     3    1
     3     1     4    1
     4     4     5   ar
     5     5     6   ar
     6     6     7    1
     7     7     8    1
     8     8     9    2
     9     9    10    1
    10     9    11    1
    11     8    12    1
    12    12    13    1
    13     5    13    1
    14    13    14    2
    15    12    15    1
    16     6    16   ar
    17    16    17   ar
    18    17    18   ar
    19     4    18   ar
    20    16    19    1
    21     1    20    1
    22     1    21    1
    23     3    22    1
    24     3    23    1
    25     3    24    1
    26     7    25    1
    27     7    26    1
    28    10    27    1
    29    10    28    1
    30    10    29    1
    31    11    30    1
    32    11    31    1
    33    11    32    1
    34    12    33    1
    35    15    34    1
    36    17    35    1
    37    18    36    1
    38    19    37    1
    39    19    38    1
    40    19    39    1
