REMARK  Name = NuBBE_2081
REMARK  9 active torsions:
REMARK  status: ('A' for Active; 'I' for Inactive)
REMARK    1  A    between atoms: O_1  and  C_2
REMARK    2  A    between atoms: C_3  and  C_4
REMARK    3  A    between atoms: C_4  and  C_5
REMARK    4  A    between atoms: C_5  and  C_6
REMARK    5  A    between atoms: C_6  and  C_7
REMARK    6  A    between atoms: C_15  and  O_16
REMARK    7  A    between atoms: O_16  and  C_17
REMARK    8  A    between atoms: C_20  and  O_21
REMARK    9  A    between atoms: O_21  and  C_22
REMARK                            x       y       z     vdW  Elec       q    Type
REMARK                         _______ _______ _______ _____ _____    ______ ____
ROOT
ATOM      1  C   LIG A   1       0.858   2.317   0.989  0.00  0.00    +0.010 C 
ENDROOT
BRANCH   1   2
ATOM      2  C   LIG A   1       1.545   1.062   1.588  0.00  0.00    +0.039 C 
BRANCH   2   4
ATOM      3  C   LIG A   1      -0.660  -0.115   2.464  0.00  0.00    +0.123 A 
ATOM      4  C   LIG A   1       0.753   0.012   2.435  0.00  0.00    -0.006 A 
ATOM      5  C   LIG A   1       1.462  -1.136   2.862  0.00  0.00    +0.011 A 
ATOM      6  C   LIG A   1       0.789  -2.329   3.236  0.00  0.00    +0.046 A 
ATOM      7  C   LIG A   1      -0.599  -2.442   3.120  0.00  0.00    +0.124 A 
ATOM      8  C   LIG A   1      -1.304  -1.333   2.704  0.00  0.00    +0.091 A 
BRANCH   3   9
ATOM      9  O   LIG A   1      -1.515   0.820   1.958  0.00  0.00    -0.506 OA
ATOM     10  H   LIG A   1      -2.023   0.360   1.250  0.00  0.00    +0.292 HD
ENDBRANCH   3   9
BRANCH   7  11
ATOM     11  O   LIG A   1      -1.185  -3.652   3.386  0.00  0.00    -0.495 OA
ATOM     12  C   LIG A   1      -2.607  -3.705   3.195  0.00  0.00    +0.277 C 
ENDBRANCH   7  11
ENDBRANCH   2   4
ENDBRANCH   1   2
BRANCH   1  13
ATOM     13  C   LIG A   1      -0.246   2.225  -0.119  0.00  0.00    +0.039 C 
BRANCH  13  14
ATOM     14  C   LIG A   1       0.007   1.595  -1.488  0.00  0.00    -0.002 A 
ATOM     15  C   LIG A   1       0.424   2.469  -2.493  0.00  0.00    +0.056 A 
ATOM     16  C   LIG A   1       0.594   1.966  -3.776  0.00  0.00    +0.167 A 
ATOM     17  O   LIG A   1       0.982   2.672  -4.865  0.00  0.00    -0.453 OA
ATOM     18  C   LIG A   1       0.989   1.631  -5.875  0.00  0.00    +0.466 C 
ATOM     19  O   LIG A   1       0.589   0.343  -5.343  0.00  0.00    -0.453 OA
ATOM     20  C   LIG A   1       0.360   0.634  -4.071  0.00  0.00    +0.170 A 
ATOM     21  C   LIG A   1      -0.059  -0.236  -3.170  0.00  0.00    +0.095 A 
ATOM     22  C   LIG A   1      -0.264   0.232  -1.874  0.00  0.00    +0.127 A 
BRANCH  22  23
ATOM     23  O   LIG A   1      -0.726  -0.801  -1.120  0.00  0.00    -0.495 OA
ATOM     24  C   LIG A   1       0.273  -1.047  -0.175  0.00  0.00    +0.277 C 
ENDBRANCH  22  23
ENDBRANCH  13  14
ENDBRANCH   1  13
TORSDOF 7
