REMARK  Name = NuBBE_1428
REMARK  7 active torsions:
REMARK  status: ('A' for Active; 'I' for Inactive)
REMARK    1  A    between atoms: C_1  and  C_2
REMARK    2  A    between atoms: C_2  and  O_21
REMARK    3  A    between atoms: C_5  and  C_18
REMARK    4  A    between atoms: C_8  and  C_14
REMARK    5  A    between atoms: C_14  and  C_15
REMARK    6  A    between atoms: C_18  and  C_19
REMARK    7  A    between atoms: C_18  and  C_20
REMARK                            x       y       z     vdW  Elec       q    Type
REMARK                         _______ _______ _______ _____ _____    ______ ____
ROOT
ATOM      1  C   LIG A   1      -1.175   3.421   0.247  0.00  0.00    +0.041 C 
ATOM      2  C   LIG A   1      -1.476   2.029  -0.315  0.00  0.00    +0.066 C 
ATOM      3  C   LIG A   1      -0.809   1.859  -1.688  0.00  0.00    +0.035 C 
ATOM      4  C   LIG A   1      -0.823   0.409  -2.176  0.00  0.00    +0.007 C 
ATOM      5  C   LIG A   1      -0.079  -0.531  -1.189  0.00  0.00    -0.004 C 
ATOM      6  C   LIG A   1      -0.952  -0.505   0.112  0.00  0.00    +0.008 C 
ATOM      7  C   LIG A   1      -0.590  -1.303   1.380  0.00  0.00    +0.059 C 
ATOM      8  C   LIG A   1       0.140  -0.318   2.308  0.00  0.00    +0.011 C 
ATOM      9  C   LIG A   1       0.002   1.064   1.658  0.00  0.00    +0.007 C 
ATOM     10  C   LIG A   1      -1.180   0.907   0.702  0.00  0.00    +0.024 C 
ENDROOT
BRANCH   7  11
ATOM     11  C   LIG A   1       0.005  -2.694   1.213  0.00  0.00    +0.134 C 
ATOM     12  C   LIG A   1       0.413  -3.428   2.465  0.00  0.00    +0.086 C 
ATOM     13  O   LIG A   1       0.012  -3.279   0.127  0.00  0.00    -0.297 OA
ENDBRANCH   7  11
BRANCH   5  14
ATOM     14  C   LIG A   1       1.459  -0.200  -1.170  0.00  0.00    -0.014 C 
ATOM     15  C   LIG A   1       2.063  -0.249  -2.592  0.00  0.00    +0.007 C 
ATOM     16  C   LIG A   1       2.331  -1.123  -0.321  0.00  0.00    +0.007 C 
ENDBRANCH   5  14
BRANCH   2  17
ATOM     17  O   LIG A   1      -2.900   2.012  -0.543  0.00  0.00    -0.389 OA
ATOM     18  H   LIG A   1      -3.146   1.138  -0.889  0.00  0.00    +0.210 HD
ENDBRANCH   2  17
TORSDOF 3
