REMARK  Name = NuBBE_2415
REMARK  6 active torsions:
REMARK  status: ('A' for Active; 'I' for Inactive)
REMARK    1  A    between atoms: O_1  and  C_2
REMARK    2  A    between atoms: O_1  and  C_3
REMARK    3  A    between atoms: C_7  and  C_11
REMARK    4  A    between atoms: C_15  and  O_19
REMARK    5  A    between atoms: O_19  and  C_20
REMARK    6  A    between atoms: C_23  and  O_24
REMARK                            x       y       z     vdW  Elec       q    Type
REMARK                         _______ _______ _______ _____ _____    ______ ____
ROOT
ATOM      1  C   LIG A   1      -2.078  -3.226  -0.369  0.00  0.00    +0.204 A 
ATOM      2  C   LIG A   1      -1.365  -2.011  -0.371  0.00  0.00    +0.169 A 
ATOM      3  C   LIG A   1       0.037  -1.999  -0.318  0.00  0.00    -0.001 A 
ATOM      4  C   LIG A   1       0.816  -0.714  -0.290  0.00  0.00    +0.050 C 
ATOM      5  C   LIG A   1      -0.069   0.504  -0.584  0.00  0.00    +0.065 C 
ATOM      6  C   LIG A   1      -1.431   0.298   0.083  0.00  0.00    +0.238 C 
ATOM      7  O   LIG A   1      -2.097  -0.848  -0.454  0.00  0.00    -0.487 OA
ATOM      8  C   LIG A   1       0.731  -3.212  -0.244  0.00  0.00    +0.011 A 
ATOM      9  C   LIG A   1       0.037  -4.420  -0.238  0.00  0.00    +0.050 A 
ATOM     10  C   LIG A   1      -1.359  -4.428  -0.305  0.00  0.00    +0.162 A 
ENDROOT
BRANCH   5  11
ATOM     11  C   LIG A   1       0.595   1.810  -0.193  0.00  0.00    +0.010 C 
ATOM     12  C   LIG A   1       0.881   2.767  -1.082  0.00  0.00    +0.062 C 
ATOM     13  C   LIG A   1       1.538   4.044  -0.718  0.00  0.00    +0.221 C 
ATOM     14  O   LIG A   1       1.727   4.876  -1.597  0.00  0.00    -0.284 OA
ATOM     15  C   LIG A   1       1.928   4.235   0.714  0.00  0.00    +0.170 C 
ATOM     16  C   LIG A   1       1.623   3.283   1.599  0.00  0.00    +0.100 C 
ATOM     17  C   LIG A   1       0.936   2.036   1.238  0.00  0.00    +0.186 C 
ATOM     18  O   LIG A   1       0.667   1.221   2.112  0.00  0.00    -0.287 OA
BRANCH  15  19
ATOM     19  O   LIG A   1       2.545   5.386   1.187  0.00  0.00    -0.491 OA
ATOM     20  C   LIG A   1       3.452   6.024   0.295  0.00  0.00    +0.277 C 
ENDBRANCH  15  19
ENDBRANCH   5  11
BRANCH   1  21
ATOM     21  O   LIG A   1      -3.442  -3.112  -0.480  0.00  0.00    -0.488 OA
ATOM     22  C   LIG A   1      -4.220  -4.102   0.180  0.00  0.00    +0.277 C 
ENDBRANCH   1  21
BRANCH  10  23
ATOM     23  O   LIG A   1      -1.996  -5.638  -0.330  0.00  0.00    -0.503 OA
ATOM     24  H   LIG A   1      -1.333  -6.347  -0.338  0.00  0.00    +0.292 HD
ENDBRANCH  10  23
TORSDOF 4
