@<TRIPOS>MOLECULE
NuBBE_297
 25 26 0 0 0
SMALL
GASTEIGER

@<TRIPOS>ATOM
      1 O          -1.7788    0.3642   -1.5693 O.3     1  LIG1       -0.3868
      2 C          -0.3721    0.1852   -1.3997 C.3     1  LIG1        0.0904
      3 C          -0.0004   -1.2900   -1.3277 C.3     1  LIG1        0.0145
      4 C          -0.2864   -1.8120    0.0760 C.3     1  LIG1        0.1001
      5 C           0.0361   -3.2994    0.1673 C.3     1  LIG1       -0.0277
      6 O           0.5336   -1.1390    1.0413 O.3     1  LIG1       -0.4885
      7 C           0.4853    0.2293    0.9679 C.ar    1  LIG1        0.1300
      8 C           0.0364    0.9259   -0.1614 C.ar    1  LIG1        0.0639
      9 C           0.0063    2.3257   -0.1022 C.ar    1  LIG1        0.1260
     10 O          -0.5053    3.0679   -1.1321 O.3     1  LIG1       -0.5063
     11 C           0.4732    3.0180    1.0094 C.ar    1  LIG1       -0.0196
     12 C           0.9491    2.3112    2.1116 C.ar    1  LIG1       -0.0548
     13 C           0.9486    0.9160    2.0912 C.ar    1  LIG1       -0.0193
     14 H          -2.0846   -0.2805   -2.2299 H       1  LIG1        0.2102
     15 H           0.1174    0.6245   -2.2767 H       1  LIG1        0.0647
     16 H           1.0733   -1.3911   -1.5350 H       1  LIG1        0.0329
     17 H          -0.5490   -1.8696   -2.0786 H       1  LIG1        0.0329
     18 H          -1.3418   -1.6688    0.3446 H       1  LIG1        0.0731
     19 H           1.0967   -3.4841   -0.0373 H       1  LIG1        0.0265
     20 H          -0.5636   -3.8808   -0.5397 H       1  LIG1        0.0265
     21 H          -0.1581   -3.6717    1.1787 H       1  LIG1        0.0265
     22 H          -1.1812    2.5092   -1.5633 H       1  LIG1        0.2921
     23 H           0.4524    4.1044    1.0221 H       1  LIG1        0.0654
     24 H           1.3072    2.8439    2.9874 H       1  LIG1        0.0620
     25 H           1.3060    0.3616    2.9553 H       1  LIG1        0.0654
@<TRIPOS>BOND
     1     1     2    1
     2     2     3    1
     3     3     4    1
     4     4     5    1
     5     4     6    1
     6     6     7    1
     7     7     8   ar
     8     2     8    1
     9     8     9   ar
    10     9    10    1
    11     9    11   ar
    12    11    12   ar
    13    12    13   ar
    14     7    13   ar
    15     1    14    1
    16     2    15    1
    17     3    16    1
    18     3    17    1
    19     4    18    1
    20     5    19    1
    21     5    20    1
    22     5    21    1
    23    10    22    1
    24    11    23    1
    25    12    24    1
    26    13    25    1
