@<TRIPOS>MOLECULE
NuBBE_84
 60 62 0 0 0
SMALL
GASTEIGER

@<TRIPOS>ATOM
      1 C          -1.5458    0.7080   -3.4813 C.3     1  LIG1       -0.0594
      2 C          -0.1104    0.5974   -2.9917 C.3     1  LIG1       -0.0081
      3 H           0.5238    0.5648   -3.8908 H       1  LIG1        0.0330
      4 C           0.3908    1.7433   -2.1223 C.3     1  LIG1       -0.0081
      5 H          -0.3451    1.9595   -1.3411 H       1  LIG1        0.0330
      6 C           1.6638    1.1243   -1.5307 C.3     1  LIG1        0.0875
      7 H           2.4851    1.1815   -2.2475 H       1  LIG1        0.0649
      8 O           1.3811   -0.2761   -1.3473 O.3     1  LIG1       -0.3636
      9 C           0.2527   -0.6400   -2.1644 C.3     1  LIG1        0.0875
     10 H           0.6141   -1.3965   -2.8747 H       1  LIG1        0.0649
     11 C          -0.7621   -1.3095   -1.2657 C.ar    1  LIG1       -0.0115
     12 C          -1.7442   -0.6376   -0.5333 C.ar    1  LIG1       -0.0104
     13 C          -2.6757   -1.3288    0.2582 C.ar    1  LIG1        0.1655
     14 O          -3.5237   -0.4743    0.9188 O.3     1  LIG1       -0.4913
     15 C          -4.8750   -0.8542    1.1452 C.3     1  LIG1        0.0790
     16 C          -2.5919   -2.7276    0.3929 C.ar    1  LIG1        0.2035
     17 C          -1.5846   -3.4222   -0.3194 C.ar    1  LIG1        0.1655
     18 O          -1.5260   -4.7896   -0.2185 O.3     1  LIG1       -0.4913
     19 C          -0.4898   -5.4669   -0.9251 C.3     1  LIG1        0.0790
     20 C          -0.6890   -2.6989   -1.1212 C.ar    1  LIG1       -0.0104
     21 O          -3.5158   -3.3126    1.2197 O.3     1  LIG1       -0.4885
     22 C          -3.1593   -4.5135    1.8866 C.3     1  LIG1        0.0791
     23 C           2.0855    1.7032   -0.2003 C.ar    1  LIG1       -0.0115
     24 C           3.3397    2.3197   -0.0646 C.ar    1  LIG1       -0.0104
     25 C           3.7714    2.8161    1.1761 C.ar    1  LIG1        0.1653
     26 O           5.0228    3.3891    1.1265 O.3     1  LIG1       -0.4913
     27 C           5.7746    3.3413    2.3323 C.3     1  LIG1        0.0790
     28 C           2.9208    2.7244    2.2730 C.ar    1  LIG1        0.2010
     29 C           1.6533    2.1265    2.1604 C.ar    1  LIG1        0.1653
     30 O           0.9028    2.1166    3.3023 O.3     1  LIG1       -0.4913
     31 C          -0.4018    1.5393    3.2013 C.3     1  LIG1        0.0790
     32 C           1.2577    1.6038    0.9219 C.ar    1  LIG1       -0.0104
     33 O           3.2717    3.2281    3.5041 O.3     1  LIG1       -0.5009
     34 C           0.6522    3.0284   -2.8935 C.3     1  LIG1       -0.0594
     35 H          -1.6299    1.4907   -4.2416 H       1  LIG1        0.0233
     36 H          -2.2447    0.9699   -2.6833 H       1  LIG1        0.0233
     37 H          -1.8756   -0.2328   -3.9341 H       1  LIG1        0.0233
     38 H          -1.8119    0.4443   -0.5618 H       1  LIG1        0.0659
     39 H          -5.0850   -0.7339    2.2136 H       1  LIG1        0.0660
     40 H          -5.1588   -1.8580    0.8259 H       1  LIG1        0.0660
     41 H          -5.5195   -0.1546    0.6016 H       1  LIG1        0.0660
     42 H          -0.5355   -6.5272   -0.6602 H       1  LIG1        0.0660
     43 H           0.5020   -5.1027   -0.6342 H       1  LIG1        0.0660
     44 H          -0.6410   -5.3849   -2.0070 H       1  LIG1        0.0660
     45 H           0.1088   -3.2065   -1.6596 H       1  LIG1        0.0659
     46 H          -3.8321   -4.6216    2.7429 H       1  LIG1        0.0660
     47 H          -2.1363   -4.4795    2.2743 H       1  LIG1        0.0660
     48 H          -3.3244   -5.3818    1.2416 H       1  LIG1        0.0660
     49 H           4.0058    2.3955   -0.9153 H       1  LIG1        0.0659
     50 H           6.8238    3.5226    2.0627 H       1  LIG1        0.0660
     51 H           5.7269    2.3556    2.8059 H       1  LIG1        0.0660
     52 H           5.4769    4.1383    3.0157 H       1  LIG1        0.0660
     53 H          -0.8913    1.6395    4.1722 H       1  LIG1        0.0660
     54 H          -0.3343    0.4720    2.9669 H       1  LIG1        0.0660
     55 H          -1.0160    2.0695    2.4647 H       1  LIG1        0.0660
     56 H           0.2979    1.1071    0.8149 H       1  LIG1        0.0659
     57 H           2.5216    3.0298    4.0784 H       1  LIG1        0.2924
     58 H           1.3711    2.8701   -3.7040 H       1  LIG1        0.0233
     59 H           1.0526    3.8027   -2.2317 H       1  LIG1        0.0233
     60 H          -0.2747    3.4085   -3.3344 H       1  LIG1        0.0233
@<TRIPOS>BOND
     1     1     2    1
     2     2     3    1
     3     2     4    1
     4     4     6    1
     5     6     8    1
     6     8     9    1
     7     2     9    1
     8    11    12   ar
     9    12    13   ar
    10    13    14    1
    11    14    15    1
    12    13    16   ar
    13    16    17   ar
    14    17    18    1
    15    18    19    1
    16    17    20   ar
    17    11    20   ar
    18    16    21    1
    19    21    22    1
    20    23    24   ar
    21    24    25   ar
    22    25    26    1
    23    26    27    1
    24    25    28   ar
    25    28    29   ar
    26    29    30    1
    27    30    31    1
    28    29    32   ar
    29    23    32   ar
    30    28    33    1
    31     9    11    1
    32     9    10    1
    33     6    23    1
    34     6     7    1
    35     4    34    1
    36     4     5    1
    37     1    35    1
    38     1    36    1
    39     1    37    1
    40    12    38    1
    41    15    39    1
    42    15    40    1
    43    15    41    1
    44    19    42    1
    45    19    43    1
    46    19    44    1
    47    20    45    1
    48    22    46    1
    49    22    47    1
    50    22    48    1
    51    24    49    1
    52    27    50    1
    53    27    51    1
    54    27    52    1
    55    31    53    1
    56    31    54    1
    57    31    55    1
    58    32    56    1
    59    33    57    1
    60    34    58    1
    61    34    59    1
    62    34    60    1
