@<TRIPOS>MOLECULE
NuBBE_1980
 19 18 0 0 0
SMALL
GASTEIGER

@<TRIPOS>ATOM
      1 S          -1.6886    1.2801   -1.0193 S.3     1  LIG1       -0.0236
      2 S          -1.4494   -0.3904    0.1606 S.3     1  LIG1       -0.0777
      3 C          -0.9929    0.3816    1.7331 C.3     1  LIG1        0.0225
      4 C          -0.7272   -0.6615    2.7728 C.2     1  LIG1       -0.0805
      5 C          -1.5827   -0.9640    3.7535 C.2     1  LIG1       -0.1018
      6 S           0.2097    2.0501   -1.2044 S.3     1  LIG1       -0.0777
      7 C           0.9115    1.1889   -2.6374 C.3     1  LIG1        0.0225
      8 C           1.0211   -0.2908   -2.4435 C.2     1  LIG1       -0.0805
      9 C           2.1746   -0.9648   -2.3944 C.2     1  LIG1       -0.1018
     10 H          -1.7927    1.0552    2.0490 H       1  LIG1        0.0427
     11 H          -0.0796    0.9675    1.6013 H       1  LIG1        0.0427
     12 H           0.2491   -1.1434    2.7482 H       1  LIG1        0.0575
     13 H          -2.5575   -0.4907    3.8214 H       1  LIG1        0.0532
     14 H          -1.3237   -1.6928    4.5165 H       1  LIG1        0.0532
     15 H           1.9046    1.6206   -2.8024 H       1  LIG1        0.0427
     16 H           0.3129    1.4116   -3.5248 H       1  LIG1        0.0427
     17 H           0.0907   -0.8556   -2.3877 H       1  LIG1        0.0575
     18 H           3.1375   -0.4577   -2.4576 H       1  LIG1        0.0532
     19 H           2.1825   -2.0440   -2.2848 H       1  LIG1        0.0532
@<TRIPOS>BOND
     1     1     2    1
     2     2     3    1
     3     3     4    1
     4     4     5    2
     5     1     6    1
     6     6     7    1
     7     7     8    1
     8     8     9    2
     9     3    10    1
    10     3    11    1
    11     4    12    1
    12     5    13    1
    13     5    14    1
    14     7    15    1
    15     7    16    1
    16     8    17    1
    17     9    18    1
    18     9    19    1
