@<TRIPOS>MOLECULE
NuBBE_175
 60 60 0 0 0
SMALL
GASTEIGER

@<TRIPOS>ATOM
      1 O          -1.3027   -3.8833    4.9271 O.2     1  LIG1       -0.2958
      2 C          -1.8401   -3.1476    4.1093 C.2     1  LIG1        0.1499
      3 C          -2.1030   -1.6586    4.3826 C.3     1  LIG1        0.0638
      4 H          -3.0203   -1.6149    4.9714 H       1  LIG1        0.0536
      5 C          -0.8994   -1.1213    5.1492 C.3     1  LIG1       -0.0428
      6 N          -2.2749   -0.8115    3.1928 N.3     1  LIG1       -0.3044
      7 H          -2.4893    0.1561    3.4137 H       1  LIG1        0.1228
      8 C          -3.0350   -1.3421    2.0807 C.3     1  LIG1        0.0086
      9 H          -4.1062   -1.4753    2.2740 H       1  LIG1        0.0461
     10 C          -2.8147   -0.4925    0.8041 C.3     1  LIG1       -0.0375
     11 C          -2.8748    1.0585    0.6064 C.3     1  LIG1       -0.0516
     12 C          -2.4841    1.8216   -0.8214 C.3     1  LIG1       -0.0530
     13 C          -0.8946    2.2444   -1.5007 C.3     1  LIG1       -0.0531
     14 C           0.2153    1.3171   -2.5874 C.3     1  LIG1       -0.0531
     15 C           1.5730    1.8476   -3.0714 C.3     1  LIG1       -0.0531
     16 C           2.3066    0.7041   -3.8330 C.3     1  LIG1       -0.0531
     17 C           3.8136    0.9496   -3.8479 C.3     1  LIG1       -0.0531
     18 C           4.6361    0.5366   -2.5866 C.3     1  LIG1       -0.0530
     19 C           4.4046    1.2527   -1.2108 C.3     1  LIG1       -0.0527
     20 C           3.2596    0.7868   -0.1933 C.3     1  LIG1       -0.0464
     21 C           1.8045    0.9508   -0.5762 C.3     1  LIG1        0.0055
     22 C           0.4161    0.2527   -0.1876 C.2     1  LIG1        0.1303
     23 C          -0.8601   -0.3909   -1.2461 C.3     1  LIG1       -0.0061
     24 O           0.2610    0.1975    1.2089 O.2     1  LIG1       -0.2977
     25 C          -2.3126   -2.6886    1.7781 C.3     1  LIG1       -0.0308
     26 C          -2.4446   -3.7318    2.8675 C.3     1  LIG1        0.0088
     27 H          -0.7879   -1.6421    6.1058 H       1  LIG1        0.0249
     28 H          -1.0101   -0.0536    5.3516 H       1  LIG1        0.0249
     29 H           0.0383   -1.2716    4.5943 H       1  LIG1        0.0249
     30 H          -1.7635   -0.7170    0.7227 H       1  LIG1        0.0280
     31 H          -3.3933   -0.9776   -0.0032 H       1  LIG1        0.0280
     32 H          -2.3109    1.5387    1.4054 H       1  LIG1        0.0266
     33 H          -3.9404    1.2854    0.7655 H       1  LIG1        0.0266
     34 H          -2.9446    2.8182   -0.6672 H       1  LIG1        0.0265
     35 H          -3.1147    1.3902   -1.6121 H       1  LIG1        0.0265
     36 H          -0.3867    2.7801   -0.6849 H       1  LIG1        0.0265
     37 H          -1.1857    2.9875   -2.2478 H       1  LIG1        0.0265
     38 H          -0.3590    0.9032   -3.4193 H       1  LIG1        0.0265
     39 H           0.5800    0.3516   -2.2684 H       1  LIG1        0.0265
     40 H           2.3607    2.0690   -2.3597 H       1  LIG1        0.0265
     41 H           1.4264    2.8662   -3.3954 H       1  LIG1        0.0265
     42 H           1.8668    0.6302   -4.8279 H       1  LIG1        0.0265
     43 H           2.1889   -0.3054   -3.3862 H       1  LIG1        0.0265
     44 H           3.9788    2.0101   -4.0565 H       1  LIG1        0.0265
     45 H           4.2064    0.3837   -4.7029 H       1  LIG1        0.0265
     46 H           5.6825    0.7564   -2.8754 H       1  LIG1        0.0265
     47 H           4.6192   -0.5501   -2.4444 H       1  LIG1        0.0265
     48 H           4.4052    2.3374   -1.3892 H       1  LIG1        0.0265
     49 H           5.3279    1.0640   -0.6388 H       1  LIG1        0.0265
     50 H           3.3872    1.3247    0.7430 H       1  LIG1        0.0269
     51 H           3.3721   -0.2914   -0.0805 H       1  LIG1        0.0269
     52 H           2.0224    0.3611   -1.4394 H       1  LIG1        0.0341
     53 H           1.6509    2.0583   -0.6980 H       1  LIG1        0.0341
     54 H          -1.4382    0.2948   -1.9044 H       1  LIG1        0.0306
     55 H          -1.7573   -0.8321   -0.9216 H       1  LIG1        0.0306
     56 H          -0.5052   -1.1094   -1.9688 H       1  LIG1        0.0306
     57 H          -1.2350   -2.4487    1.7202 H       1  LIG1        0.0284
     58 H          -2.5736   -3.0677    0.7851 H       1  LIG1        0.0284
     59 H          -1.8682   -4.6308    2.6108 H       1  LIG1        0.0343
     60 H          -3.4735   -4.0310    3.0842 H       1  LIG1        0.0343
@<TRIPOS>BOND
     1     1     2    2
     2     2     3    1
     3     3     4    1
     4     3     5    1
     5     3     6    1
     6     6     7    1
     7     6     8    1
     8    10    11    1
     9    11    12    1
    10    12    13    1
    11    13    14    1
    12    14    15    1
    13    15    16    1
    14    16    17    1
    15    17    18    1
    16    18    19    1
    17    19    20    1
    18    20    21    1
    19    21    22    1
    20    22    23    1
    21    22    24    2
    22     8    25    1
    23    25    26    1
    24     2    26    1
    25     8    10    1
    26     8     9    1
    27     5    27    1
    28     5    28    1
    29     5    29    1
    30    10    30    1
    31    10    31    1
    32    11    32    1
    33    11    33    1
    34    12    34    1
    35    12    35    1
    36    13    36    1
    37    13    37    1
    38    14    38    1
    39    14    39    1
    40    15    40    1
    41    15    41    1
    42    16    42    1
    43    16    43    1
    44    17    44    1
    45    17    45    1
    46    18    46    1
    47    18    47    1
    48    19    48    1
    49    19    49    1
    50    20    50    1
    51    20    51    1
    52    21    52    1
    53    21    53    1
    54    23    54    1
    55    23    55    1
    56    23    56    1
    57    25    57    1
    58    25    58    1
    59    26    59    1
    60    26    60    1
