REMARK  Name = NuBBE_223
REMARK  27 active torsions:
REMARK  status: ('A' for Active; 'I' for Inactive)
REMARK    1  A    between atoms: C_1  and  C_2
REMARK    2  A    between atoms: C_4  and  O_6
REMARK    3  A    between atoms: O_6  and  C_7
REMARK    4  A    between atoms: C_7  and  C_8
REMARK    5  A    between atoms: C_8  and  C_9
REMARK    6  A    between atoms: C_9  and  C_10
REMARK    7  A    between atoms: C_10  and  C_11
REMARK    8  A    between atoms: C_11  and  C_12
REMARK    9  A    between atoms: C_12  and  C_13
REMARK   10  A    between atoms: C_13  and  C_14
REMARK   11  A    between atoms: C_14  and  C_15
REMARK   12  A    between atoms: C_15  and  C_16
REMARK   13  A    between atoms: C_18  and  O_20
REMARK   14  A    between atoms: O_20  and  C_21
REMARK   15  A    between atoms: C_21  and  C_22
REMARK   16  A    between atoms: C_26  and  O_28
REMARK   17  A    between atoms: O_28  and  C_29
REMARK   18  A    between atoms: C_29  and  C_30
REMARK   19  A    between atoms: C_33  and  O_35
REMARK   20  A    between atoms: O_35  and  C_36
REMARK   21  A    between atoms: C_36  and  C_37
REMARK   22  A    between atoms: C_40  and  O_42
REMARK   23  A    between atoms: C_46  and  C_47
REMARK   24  A    between atoms: C_46  and  C_48
REMARK   25  A    between atoms: C_48  and  C_49
REMARK   26  A    between atoms: C_50  and  C_51
REMARK   27  A    between atoms: C_50  and  C_53
REMARK                            x       y       z     vdW  Elec       q    Type
REMARK                         _______ _______ _______ _____ _____    ______ ____
ROOT
ATOM      1  C   LIG A   1       1.327   0.934   1.229  0.00  0.00    +0.012 C 
ATOM      2  C   LIG A   1       0.504   0.030   0.306  0.00  0.00    +0.037 C 
ATOM      3  C   LIG A   1       0.724  -1.456   0.680  0.00  0.00    +0.221 C 
ATOM      4  C   LIG A   1       2.043  -2.046   0.161  0.00  0.00    +0.234 C 
ATOM      5  C   LIG A   1       2.401  -1.835  -1.350  0.00  0.00    +0.104 C 
ATOM      6  C   LIG A   1       2.145  -3.107  -2.202  0.00  0.00    +0.013 C 
ATOM      7  C   LIG A   1       3.463  -3.811  -2.451  0.00  0.00    +0.343 C 
ATOM      8  O   LIG A   1       4.411  -2.753  -2.431  0.00  0.00    -0.297 OA
ATOM      9  C   LIG A   1       3.998  -1.877  -1.399  0.00  0.00    +0.328 C 
ATOM     10  C   LIG A   1       1.112  -3.297  -3.041  0.00  0.00    +0.010 C 
ATOM     11  C   LIG A   1       0.384  -2.116  -3.583  0.00  0.00    +0.138 C 
ATOM     12  C   LIG A   1       1.267  -0.855  -3.464  0.00  0.00    +0.040 C 
ATOM     13  C   LIG A   1       1.712  -0.539  -2.002  0.00  0.00    +0.018 C 
ATOM     14  C   LIG A   1       0.571   0.315  -1.226  0.00  0.00    -0.018 C 
ATOM     15  C   LIG A   1      -0.870   0.059  -1.770  0.00  0.00    +0.012 C 
ENDROOT
BRANCH  11  16
ATOM     16  O   LIG A   1       0.120  -2.348  -4.963  0.00  0.00    -0.388 OA
ATOM     17  H   LIG A   1      -0.489  -3.103  -5.014  0.00  0.00    +0.210 HD
ENDBRANCH  11  16
BRANCH   4  18
ATOM     18  O   LIG A   1       3.044  -1.385   1.012  0.00  0.00    -0.457 OA
BRANCH  18  19
ATOM     19  C   LIG A   1       3.416  -2.032   2.158  0.00  0.00    +0.304 C 
ATOM     20  C   LIG A   1       3.697  -1.033   3.246  0.00  0.00    +0.136 C 
ATOM     21  O   LIG A   1       3.382  -3.238   2.317  0.00  0.00    -0.251 OA
ENDBRANCH  18  19
ENDBRANCH   4  18
BRANCH   7  22
ATOM     22  O   LIG A   1       3.593  -4.541  -3.674  0.00  0.00    -0.431 OA
BRANCH  22  23
ATOM     23  C   LIG A   1       3.860  -3.802  -4.789  0.00  0.00    +0.306 C 
ATOM     24  C   LIG A   1       4.639  -4.582  -5.784  0.00  0.00    +0.136 C 
ATOM     25  O   LIG A   1       3.607  -2.607  -4.963  0.00  0.00    -0.251 OA
ENDBRANCH  22  23
ENDBRANCH   7  22
BRANCH   9  26
ATOM     26  O   LIG A   1       4.591  -0.590  -1.504  0.00  0.00    -0.434 OA
BRANCH  26  27
ATOM     27  C   LIG A   1       5.952  -0.617  -1.263  0.00  0.00    +0.306 C 
ATOM     28  C   LIG A   1       6.385   0.805  -0.973  0.00  0.00    +0.136 C 
ATOM     29  O   LIG A   1       6.673  -1.578  -1.185  0.00  0.00    -0.251 OA
ENDBRANCH  26  27
ENDBRANCH   9  26
BRANCH  14  30
ATOM     30  C   LIG A   1       0.844   1.855  -1.523  0.00  0.00    +0.034 C 
BRANCH  30  31
ATOM     31  C   LIG A   1      -0.126   2.886  -0.947  0.00  0.00    -0.023 C 
ATOM     32  C   LIG A   1      -0.424   4.099  -1.458  0.00  0.00    -0.055 C 
ATOM     33  C   LIG A   1      -1.304   5.080  -0.714  0.00  0.00    +0.043 C 
BRANCH  32  34
ATOM     34  C   LIG A   1       0.131   4.513  -2.731  0.00  0.00    -0.005 C 
ATOM     35  C   LIG A   1       0.773   5.665  -2.951  0.00  0.00    +0.008 C 
ENDBRANCH  32  34
ENDBRANCH  30  31
ENDBRANCH  14  30
BRANCH   3  36
ATOM     36  O   LIG A   1      -0.462  -2.223   0.413  0.00  0.00    -0.457 OA
BRANCH  36  37
ATOM     37  C   LIG A   1      -1.418  -1.969   1.375  0.00  0.00    +0.307 C 
ATOM     38  O   LIG A   1      -1.224  -1.263   2.361  0.00  0.00    -0.251 OA
BRANCH  37  39
ATOM     39  C   LIG A   1      -2.744  -2.606   1.055  0.00  0.00    +0.120 C 
BRANCH  39  40
ATOM     40  C   LIG A   1      -3.787  -2.329   2.153  0.00  0.00    +0.011 C 
BRANCH  40  41
ATOM     41  C   LIG A   1      -4.132  -0.837   2.269  0.00  0.00    +0.000 C 
BRANCH  41  42
ATOM     42  C   LIG A   1      -5.143  -0.544   3.364  0.00  0.00    +0.000 C 
BRANCH  42  43
ATOM     43  C   LIG A   1      -5.447   0.948   3.500  0.00  0.00    -0.000 C 
BRANCH  43  44
ATOM     44  C   LIG A   1      -4.286   1.843   3.941  0.00  0.00    -0.000 C 
BRANCH  44  45
ATOM     45  C   LIG A   1      -4.650   3.333   4.046  0.00  0.00    -0.000 C 
BRANCH  45  46
ATOM     46  C   LIG A   1      -5.619   3.744   5.164  0.00  0.00    -0.003 C 
ATOM     47  C   LIG A   1      -7.068   3.288   5.055  0.00  0.00    +0.004 C 
ENDBRANCH  45  46
ENDBRANCH  44  45
ENDBRANCH  43  44
ENDBRANCH  42  43
ENDBRANCH  41  42
ENDBRANCH  40  41
ENDBRANCH  39  40
ENDBRANCH  37  39
ENDBRANCH  36  37
ENDBRANCH   3  36
TORSDOF 20
