REMARK  Name = NuBBE_2396
REMARK  12 active torsions:
REMARK  status: ('A' for Active; 'I' for Inactive)
REMARK    1  A    between atoms: C_1  and  C_2
REMARK    2  A    between atoms: C_1  and  C_6
REMARK    3  A    between atoms: C_3  and  C_4
REMARK    4  A    between atoms: C_3  and  C_5
REMARK    5  A    between atoms: C_7  and  O_8
REMARK    6  A    between atoms: O_8  and  C_9
REMARK    7  A    between atoms: C_11  and  C_16
REMARK    8  A    between atoms: C_13  and  O_14
REMARK    9  A    between atoms: O_14  and  C_15
REMARK   10  A    between atoms: C_17  and  C_18
REMARK   11  A    between atoms: C_21  and  O_24
REMARK   12  A    between atoms: O_24  and  C_25
REMARK                            x       y       z     vdW  Elec       q    Type
REMARK                         _______ _______ _______ _____ _____    ______ ____
ROOT
ATOM      1  C   LIG A   1      -2.714   0.518   0.723  0.00  0.00    +0.040 A 
ATOM      2  C   LIG A   1      -2.098   1.754   0.431  0.00  0.00    +0.128 A 
ATOM      3  C   LIG A   1      -0.707   1.823   0.302  0.00  0.00    +0.054 A 
ATOM      4  C   LIG A   1       0.079   0.673   0.415  0.00  0.00    -0.018 A 
ATOM      5  C   LIG A   1      -0.527  -0.543   0.735  0.00  0.00    +0.054 A 
ATOM      6  C   LIG A   1      -1.908  -0.628   0.901  0.00  0.00    +0.128 A 
ENDROOT
BRANCH   2   7
ATOM      7  O   LIG A   1      -2.928   2.842   0.325  0.00  0.00    -0.495 OA
ATOM      8  C   LIG A   1      -2.386   4.017  -0.266  0.00  0.00    +0.277 C 
ENDBRANCH   2   7
BRANCH   6   9
ATOM      9  O   LIG A   1      -2.555  -1.778   1.260  0.00  0.00    -0.495 OA
ATOM     10  C   LIG A   1      -1.790  -2.955   1.476  0.00  0.00    +0.277 C 
ENDBRANCH   6   9
BRANCH   4  11
ATOM     11  C   LIG A   1       1.537   0.781   0.284  0.00  0.00    +0.009 C 
ATOM     12  C   LIG A   1       2.311  -0.177  -0.233  0.00  0.00    +0.008 C 
BRANCH  12  13
ATOM     13  C   LIG A   1       3.775  -0.080  -0.286  0.00  0.00    -0.025 A 
ATOM     14  C   LIG A   1       4.480  -0.668  -1.341  0.00  0.00    +0.011 A 
ATOM     15  C   LIG A   1       5.877  -0.603  -1.377  0.00  0.00    +0.046 A 
ATOM     16  C   LIG A   1       6.582   0.038  -0.355  0.00  0.00    +0.120 A 
ATOM     17  C   LIG A   1       5.878   0.607   0.705  0.00  0.00    +0.046 A 
ATOM     18  C   LIG A   1       4.488   0.540   0.744  0.00  0.00    +0.011 A 
BRANCH  16  19
ATOM     19  O   LIG A   1       7.945   0.050  -0.485  0.00  0.00    -0.495 OA
ATOM     20  C   LIG A   1       8.654   0.685   0.575  0.00  0.00    +0.277 C 
ENDBRANCH  16  19
ENDBRANCH  12  13
ENDBRANCH   4  11
BRANCH   1  21
ATOM     21  C   LIG A   1      -4.227   0.403   0.798  0.00  0.00    +0.069 C 
BRANCH  21  22
ATOM     22  C   LIG A   1      -4.854   0.081  -0.539  0.00  0.00    -0.023 C 
ATOM     23  C   LIG A   1      -5.286  -1.112  -0.997  0.00  0.00    -0.079 C 
ATOM     24  C   LIG A   1      -5.191  -2.419  -0.262  0.00  0.00    +0.038 C 
ATOM     25  C   LIG A   1      -5.913  -1.236  -2.361  0.00  0.00    +0.038 C 
ENDBRANCH  21  22
ENDBRANCH   1  21
TORSDOF 7
