@<TRIPOS>MOLECULE
NuBBE_1175
 84 88 0 0 0
SMALL
GASTEIGER

@<TRIPOS>ATOM
      1 C          -4.5206    1.0164    3.2354 C.3     1  LIG1       -0.0598
      2 C          -3.1368    0.3428    3.3326 C.3     1  LIG1       -0.0343
      3 C          -2.5601    0.6534    4.7291 C.3     1  LIG1       -0.0598
      4 C          -3.2795   -1.1836    3.1826 C.3     1  LIG1       -0.0468
      5 C          -3.5672   -1.6333    1.7484 C.3     1  LIG1       -0.0362
      6 C          -2.5209   -1.1124    0.7366 C.3     1  LIG1        0.0741
      7 C          -1.1981   -1.8209    1.0729 C.2     1  LIG1        0.3115
      8 O          -1.0881   -3.0509    0.5226 O.3     1  LIG1       -0.4802
      9 O          -0.3190   -1.4461    1.8221 O.2     1  LIG1       -0.2504
     10 C          -2.9782   -1.4753   -0.6944 C.3     1  LIG1       -0.0359
     11 C          -1.9570   -1.0154   -1.7379 C.3     1  LIG1       -0.0424
     12 C          -1.5872    0.5001   -1.7040 C.3     1  LIG1       -0.0050
     13 C          -2.8401    1.2202   -2.3180 C.3     1  LIG1       -0.0553
     14 C          -0.2050    0.8163   -2.5688 C.3     1  LIG1       -0.0170
     15 C          -0.5905    1.5308   -3.9167 C.3     1  LIG1       -0.0584
     16 C           0.5658   -0.4217   -3.0532 C.3     1  LIG1       -0.0201
     17 C           1.4361   -1.1291   -2.0260 C.3     1  LIG1        0.0597
     18 H           0.8788   -1.4692   -1.1522 H       1  LIG1        0.0596
     19 O           1.9100   -2.2833   -2.7227 O.3     1  LIG1       -0.3915
     20 C           2.6302   -0.2573   -1.5640 C.3     1  LIG1        0.0007
     21 C           3.6568   -1.0544   -0.5835 C.3     1  LIG1        0.0250
     22 C           5.0785   -0.4312   -0.6626 C.3     1  LIG1       -0.0547
     23 C           3.8572   -2.5579   -0.9782 C.3     1  LIG1        0.0524
     24 O           4.8126   -3.2450   -0.1652 O.3     1  LIG1       -0.3944
     25 C           3.1205   -1.0307    0.8718 C.3     1  LIG1        0.0888
     26 H           2.1933   -1.6149    0.9209 H       1  LIG1        0.0625
     27 O           4.0197   -1.6781    1.7869 O.3     1  LIG1       -0.3886
     28 C           2.8540    0.3842    1.3698 C.3     1  LIG1        0.0822
     29 H           3.7624    0.9911    1.3962 H       1  LIG1        0.0619
     30 O           2.3893    0.3287    2.7249 O.3     1  LIG1       -0.3892
     31 C           1.7793    1.0266    0.5091 C.3     1  LIG1       -0.0184
     32 C           2.0902    1.1407   -1.0078 C.3     1  LIG1       -0.0202
     33 C           3.2102    2.2194   -1.1707 C.3     1  LIG1       -0.0588
     34 C           0.8293    1.7631   -1.8421 C.3     1  LIG1       -0.0255
     35 C           0.0429    2.8418   -1.0675 C.3     1  LIG1       -0.0306
     36 C          -0.8658    2.2182   -0.0584 C.2     1  LIG1       -0.0836
     37 C          -1.5416    1.0709   -0.2706 C.2     1  LIG1       -0.0629
     38 C          -2.4396    0.4398    0.8148 C.3     1  LIG1       -0.0031
     39 C          -2.1838    0.9324    2.2645 C.3     1  LIG1       -0.0403
     40 H          -4.9982    0.8469    2.2662 H       1  LIG1        0.0235
     41 H          -4.4408    2.1004    3.3771 H       1  LIG1        0.0235
     42 H          -5.1978    0.6348    4.0081 H       1  LIG1        0.0235
     43 H          -1.5720    0.1970    4.8602 H       1  LIG1        0.0235
     44 H          -3.2107    0.2689    5.5223 H       1  LIG1        0.0235
     45 H          -2.4477    1.7330    4.8805 H       1  LIG1        0.0235
     46 H          -4.0802   -1.5523    3.8367 H       1  LIG1        0.0271
     47 H          -2.3645   -1.6772    3.5337 H       1  LIG1        0.0271
     48 H          -4.5699   -1.2964    1.4576 H       1  LIG1        0.0276
     49 H          -3.5993   -2.7307    1.7301 H       1  LIG1        0.0276
     50 H          -0.2432   -3.3914    0.8867 H       1  LIG1        0.2951
     51 H          -3.9588   -1.0328   -0.9065 H       1  LIG1        0.0276
     52 H          -3.1211   -2.5590   -0.7962 H       1  LIG1        0.0276
     53 H          -2.3378   -1.2817   -2.7329 H       1  LIG1        0.0274
     54 H          -1.0796   -1.6399   -1.5944 H       1  LIG1        0.0274
     55 H          -3.0691    0.8554   -3.3249 H       1  LIG1        0.0238
     56 H          -2.7147    2.3073   -2.3639 H       1  LIG1        0.0238
     57 H          -3.7473    1.0494   -1.7267 H       1  LIG1        0.0238
     58 H          -1.2437    0.8987   -4.5286 H       1  LIG1        0.0235
     59 H           0.2956    1.7392   -4.5301 H       1  LIG1        0.0235
     60 H          -1.0766    2.4972   -3.7595 H       1  LIG1        0.0235
     61 H          -0.1169   -1.1302   -3.5404 H       1  LIG1        0.0296
     62 H           1.2387   -0.1351   -3.8774 H       1  LIG1        0.0296
     63 H           1.1423   -2.8092   -3.0079 H       1  LIG1        0.2098
     64 H           3.2089   -0.0505   -2.4767 H       1  LIG1        0.0338
     65 H           5.1571    0.5476   -0.1970 H       1  LIG1        0.0237
     66 H           5.4003   -0.3335   -1.7052 H       1  LIG1        0.0237
     67 H           5.8285   -1.0455   -0.1521 H       1  LIG1        0.0237
     68 H           2.9294   -3.1244   -0.8622 H       1  LIG1        0.0563
     69 H           4.2136   -2.6418   -2.0098 H       1  LIG1        0.0563
     70 H           4.6660   -2.9371    0.7545 H       1  LIG1        0.2094
     71 H           3.5260   -1.7276    2.6297 H       1  LIG1        0.2099
     72 H           3.1794    0.3038    3.2922 H       1  LIG1        0.2099
     73 H           1.5770    2.0123    0.9441 H       1  LIG1        0.0296
     74 H           0.8727    0.4337    0.6429 H       1  LIG1        0.0296
     75 H           4.0202    2.1263   -0.4516 H       1  LIG1        0.0235
     76 H           2.8216    3.2328   -1.0243 H       1  LIG1        0.0235
     77 H           3.6438    2.1863   -2.1765 H       1  LIG1        0.0235
     78 H           1.3265    2.3096   -2.6589 H       1  LIG1        0.0315
     79 H          -0.5499    3.4666   -1.7454 H       1  LIG1        0.0310
     80 H           0.7246    3.5322   -0.5610 H       1  LIG1        0.0310
     81 H          -0.8952    2.7315    0.8975 H       1  LIG1        0.0572
     82 H          -3.4461    0.8100    0.5660 H       1  LIG1        0.0357
     83 H          -1.1433    0.7247    2.5417 H       1  LIG1        0.0276
     84 H          -2.2859    2.0246    2.3055 H       1  LIG1        0.0276
@<TRIPOS>BOND
     1     2     4    1
     2     4     5    1
     3     5     6    1
     4     7     8    1
     5     7     9    2
     6     6    10    1
     7    10    11    1
     8    11    12    1
     9    12    14    1
    10    14    16    1
    11    16    17    1
    12    17    20    1
    13    20    21    1
    14    23    24    1
    15    21    25    1
    16    25    28    1
    17    28    31    1
    18    31    32    1
    19    20    32    1
    20    32    34    1
    21    14    34    1
    22    34    35    1
    23    35    36    1
    24    36    37    2
    25    12    37    1
    26    37    38    1
    27     6    38    1
    28    38    39    1
    29     2    39    1
    30     1     2    1
    31     2     3    1
    32     6     7    1
    33    12    13    1
    34    14    15    1
    35    25    26    1
    36    25    27    1
    37    28    29    1
    38    28    30    1
    39    32    33    1
    40    17    19    1
    41    17    18    1
    42    21    23    1
    43    21    22    1
    44     1    40    1
    45     1    41    1
    46     1    42    1
    47     3    43    1
    48     3    44    1
    49     3    45    1
    50     4    46    1
    51     4    47    1
    52     5    48    1
    53     5    49    1
    54     8    50    1
    55    10    51    1
    56    10    52    1
    57    11    53    1
    58    11    54    1
    59    13    55    1
    60    13    56    1
    61    13    57    1
    62    15    58    1
    63    15    59    1
    64    15    60    1
    65    16    61    1
    66    16    62    1
    67    19    63    1
    68    20    64    1
    69    22    65    1
    70    22    66    1
    71    22    67    1
    72    23    68    1
    73    23    69    1
    74    24    70    1
    75    27    71    1
    76    30    72    1
    77    31    73    1
    78    31    74    1
    79    33    75    1
    80    33    76    1
    81    33    77    1
    82    34    78    1
    83    35    79    1
    84    35    80    1
    85    36    81    1
    86    38    82    1
    87    39    83    1
    88    39    84    1
