@<TRIPOS>MOLECULE
NuBBE_1553
 81 84 0 0 0
SMALL
GASTEIGER

@<TRIPOS>ATOM
      1 C          -3.4868    0.1392    0.6076 C.3     1  LIG1       -0.0553
      2 C          -2.0313    0.6245    0.4221 C.3     1  LIG1       -0.0051
      3 C          -1.2731   -0.5055   -0.3200 C.2     1  LIG1       -0.0634
      4 C          -0.9536   -0.4799   -1.6292 C.2     1  LIG1       -0.0836
      5 C          -0.4294   -1.6578   -2.3894 C.3     1  LIG1       -0.0306
      6 C          -0.9370   -2.9525   -1.7401 C.3     1  LIG1       -0.0242
      7 H          -2.0323   -2.8308   -1.6634 H       1  LIG1        0.0315
      8 C          -0.4406   -3.0273   -0.2497 C.3     1  LIG1       -0.0218
      9 C           1.0949   -3.1642   -0.1304 C.3     1  LIG1       -0.0587
     10 C          -1.1009   -4.2851    0.3879 C.3     1  LIG1       -0.0444
     11 C          -0.8995   -5.5747   -0.4190 C.3     1  LIG1       -0.0258
     12 C          -1.3857   -5.4539   -1.8681 C.3     1  LIG1        0.0606
     13 H          -1.1566   -6.3815   -2.4076 H       1  LIG1        0.0599
     14 O          -2.8124   -5.3359   -1.8491 O.3     1  LIG1       -0.3912
     15 C          -0.7711   -4.2426   -2.6277 C.3     1  LIG1       -0.0053
     16 C           0.6812   -4.5674   -3.0368 C.3     1  LIG1       -0.0572
     17 C          -1.5480   -4.0467   -3.9621 C.3     1  LIG1       -0.0572
     18 C          -0.9486   -1.7230    0.5403 C.3     1  LIG1       -0.0137
     19 H          -1.8809   -2.0188    1.0365 H       1  LIG1        0.0351
     20 C           0.0017   -1.1938    1.6343 C.3     1  LIG1       -0.0455
     21 C          -0.6377   -0.1023    2.5032 C.3     1  LIG1       -0.0460
     22 C          -1.3053    1.0909    1.7569 C.3     1  LIG1       -0.0194
     23 C          -0.2307    2.1714    1.2571 C.3     1  LIG1       -0.0219
     24 C          -0.0334    3.5014    2.0615 C.3     1  LIG1        0.0599
     25 H          -1.0038    4.0183    2.0784 H       1  LIG1        0.0416
     26 C           0.3936    3.3064    3.4988 C.2     1  LIG1        0.3081
     27 O          -0.0943    4.2575    4.3138 O.3     1  LIG1       -0.4804
     28 O           1.1639    2.4614    3.9344 O.2     1  LIG1       -0.2507
     29 C           0.9948    4.4944    1.4377 C.3     1  LIG1       -0.0364
     30 C           2.4454    3.9914    1.4376 C.3     1  LIG1       -0.0338
     31 C           3.3767    4.9895    0.8034 C.2     1  LIG1       -0.0853
     32 C           4.1742    4.7976   -0.2656 C.2     1  LIG1       -0.0796
     33 C           4.2824    3.5172   -1.0485 C.3     1  LIG1       -0.0440
     34 C           5.0543    5.9079   -0.7786 C.3     1  LIG1       -0.0440
     35 H           0.7432    1.6701    1.2078 H       1  LIG1        0.0314
     36 C          -0.6640    2.5072   -0.1923 C.3     1  LIG1       -0.0481
     37 C          -2.0654    1.9500   -0.3562 C.3     1  LIG1       -0.0431
     38 C          -2.3197    1.7080    2.7576 C.3     1  LIG1       -0.0585
     39 H          -3.8968   -0.2449   -0.3347 H       1  LIG1        0.0238
     40 H          -4.1533    0.9476    0.9277 H       1  LIG1        0.0238
     41 H          -3.5649   -0.6595    1.3525 H       1  LIG1        0.0238
     42 H          -1.1610    0.3841   -2.2507 H       1  LIG1        0.0572
     43 H           0.6613   -1.6069   -2.4517 H       1  LIG1        0.0310
     44 H          -0.8092   -1.5710   -3.4119 H       1  LIG1        0.0310
     45 H           1.4891   -4.0435   -0.6322 H       1  LIG1        0.0235
     46 H           1.4041   -3.2876    0.9131 H       1  LIG1        0.0235
     47 H           1.6191   -2.2933   -0.5328 H       1  LIG1        0.0235
     48 H          -2.1828   -4.1198    0.4856 H       1  LIG1        0.0272
     49 H          -0.7250   -4.4350    1.4073 H       1  LIG1        0.0272
     50 H          -1.4626   -6.3733    0.0811 H       1  LIG1        0.0290
     51 H           0.1522   -5.8750   -0.3935 H       1  LIG1        0.0290
     52 H          -3.1714   -6.1642   -1.4881 H       1  LIG1        0.2098
     53 H           1.2263   -5.1281   -2.2764 H       1  LIG1        0.0236
     54 H           1.2512   -3.6671   -3.2827 H       1  LIG1        0.0236
     55 H           0.6992   -5.2079   -3.9278 H       1  LIG1        0.0236
     56 H          -2.5564   -3.6524   -3.7962 H       1  LIG1        0.0236
     57 H          -1.6480   -4.9964   -4.5011 H       1  LIG1        0.0236
     58 H          -1.0278   -3.3557   -4.6348 H       1  LIG1        0.0236
     59 H           0.9201   -0.7919    1.1868 H       1  LIG1        0.0271
     60 H           0.2984   -2.0115    2.3015 H       1  LIG1        0.0271
     61 H           0.1231    0.2734    3.1967 H       1  LIG1        0.0271
     62 H          -1.3856   -0.6025    3.1329 H       1  LIG1        0.0271
     63 H           0.3380    4.0935    5.1763 H       1  LIG1        0.2951
     64 H           0.9520    5.4397    1.9972 H       1  LIG1        0.0276
     65 H           0.7095    4.7605    0.4147 H       1  LIG1        0.0276
     66 H           2.4928    3.0238    0.9388 H       1  LIG1        0.0308
     67 H           2.7923    3.8325    2.4638 H       1  LIG1        0.0308
     68 H           3.3965    5.9628    1.2959 H       1  LIG1        0.0571
     69 H           3.7059    2.6905   -0.6303 H       1  LIG1        0.0274
     70 H           5.3253    3.1860   -1.0878 H       1  LIG1        0.0274
     71 H           3.9282    3.6762   -2.0717 H       1  LIG1        0.0274
     72 H           4.9499    6.8282   -0.1942 H       1  LIG1        0.0274
     73 H           4.7967    6.1424   -1.8166 H       1  LIG1        0.0274
     74 H           6.1069    5.6079   -0.7405 H       1  LIG1        0.0274
     75 H           0.0367    2.0375   -0.8914 H       1  LIG1        0.0269
     76 H          -0.6828    3.5704   -0.4362 H       1  LIG1        0.0269
     77 H          -2.3602    1.8557   -1.4048 H       1  LIG1        0.0274
     78 H          -2.7837    2.6506    0.0883 H       1  LIG1        0.0274
     79 H          -1.8365    2.0474    3.6770 H       1  LIG1        0.0235
     80 H          -3.0609    0.9650    3.0770 H       1  LIG1        0.0235
     81 H          -2.8696    2.5513    2.3309 H       1  LIG1        0.0235
@<TRIPOS>BOND
     1     2     3    1
     2     3     4    2
     3     4     5    1
     4     5     6    1
     5     6     8    1
     6     8    10    1
     7    10    11    1
     8    11    12    1
     9    12    15    1
    10     6    15    1
    11     8    18    1
    12     3    18    1
    13    18    20    1
    14    20    21    1
    15    21    22    1
    16    22    23    1
    17    24    25    1
    18    24    26    1
    19    26    27    1
    20    26    28    2
    21    24    29    1
    22    29    30    1
    23    30    31    1
    24    31    32    2
    25    32    33    1
    26    32    34    1
    27    23    36    1
    28    36    37    1
    29     2    37    1
    30     2    22    1
    31     1     2    1
    32     6     7    1
    33     8     9    1
    34    12    13    1
    35    12    14    1
    36    15    16    1
    37    15    17    1
    38    18    19    1
    39    22    38    1
    40    23    35    1
    41    23    24    1
    42     1    39    1
    43     1    40    1
    44     1    41    1
    45     4    42    1
    46     5    43    1
    47     5    44    1
    48     9    45    1
    49     9    46    1
    50     9    47    1
    51    10    48    1
    52    10    49    1
    53    11    50    1
    54    11    51    1
    55    14    52    1
    56    16    53    1
    57    16    54    1
    58    16    55    1
    59    17    56    1
    60    17    57    1
    61    17    58    1
    62    20    59    1
    63    20    60    1
    64    21    61    1
    65    21    62    1
    66    27    63    1
    67    29    64    1
    68    29    65    1
    69    30    66    1
    70    30    67    1
    71    31    68    1
    72    33    69    1
    73    33    70    1
    74    33    71    1
    75    34    72    1
    76    34    73    1
    77    34    74    1
    78    36    75    1
    79    36    76    1
    80    37    77    1
    81    37    78    1
    82    38    79    1
    83    38    80    1
    84    38    81    1
