@<TRIPOS>MOLECULE
NuBBE_1530
 34 37 0 0 0
SMALL
GASTEIGER

@<TRIPOS>ATOM
      1 C          -0.7978   -0.4401   -2.2257 C.3     1  LIG1       -0.0526
      2 C          -0.3463   -0.4368   -0.7400 C.3     1  LIG1        0.0515
      3 C           0.7221    0.5947   -0.5650 C.3     1  LIG1        0.2034
      4 C           0.3374    2.0216   -0.2601 C.3     1  LIG1        0.1082
      5 O           0.8508    1.1584    0.7606 O.3     1  LIG1       -0.3491
      6 C           1.2535    3.1537   -0.6043 C.3     1  LIG1       -0.0325
      7 C          -1.1023    2.3853    0.0400 C.3     1  LIG1       -0.0206
      8 C          -2.1213    1.2388   -0.0732 C.3     1  LIG1       -0.0496
      9 C          -1.5497   -0.1660    0.1744 C.3     1  LIG1       -0.0405
     10 C           1.9924   -0.0099   -0.9936 C.2     1  LIG1        0.3436
     11 O           2.9873    0.5925   -1.3579 O.2     1  LIG1       -0.2474
     12 O           1.8395   -1.3729   -0.9791 O.3     1  LIG1       -0.4537
     13 C           0.5036   -1.7131   -0.4984 C.3     1  LIG1        0.1396
     14 H           0.1456   -2.5252   -1.1453 H       1  LIG1        0.0793
     15 C           0.5410   -2.2400    0.9024 C.ar    1  LIG1        0.0310
     16 C           1.3738   -1.8323    1.9856 C.ar    1  LIG1       -0.0172
     17 C           1.0298   -2.6135    3.0630 C.ar    1  LIG1        0.0921
     18 O           0.0481   -3.4837    2.7207 O.2     1  LIG1       -0.4706
     19 C          -0.2389   -3.2599    1.4145 C.ar    1  LIG1        0.0984
     20 H          -1.1320    0.5479   -2.5582 H       1  LIG1        0.0237
     21 H          -1.6156   -1.1524   -2.3807 H       1  LIG1        0.0237
     22 H           0.0180   -0.7258   -2.9005 H       1  LIG1        0.0237
     23 H           2.3080    2.8979   -0.4650 H       1  LIG1        0.0258
     24 H           1.0454    4.0232    0.0283 H       1  LIG1        0.0258
     25 H           1.1076    3.4489   -1.6481 H       1  LIG1        0.0258
     26 H          -1.4228    3.1995   -0.6215 H       1  LIG1        0.0294
     27 H          -1.1437    2.7892    1.0600 H       1  LIG1        0.0294
     28 H          -2.5822    1.2733   -1.0674 H       1  LIG1        0.0266
     29 H          -2.9442    1.4241    0.6282 H       1  LIG1        0.0266
     30 H          -2.3322   -0.9157    0.0067 H       1  LIG1        0.0273
     31 H          -1.2714   -0.2346    1.2326 H       1  LIG1        0.0273
     32 H           2.1316   -1.0600    1.9838 H       1  LIG1        0.0653
     33 H           1.3736   -2.6728    4.0863 H       1  LIG1        0.1029
     34 H          -1.0089   -3.8945    0.9969 H       1  LIG1        0.1033
@<TRIPOS>BOND
     1     1     2    1
     2     2     3    1
     3     3     4    1
     4     4     5    1
     5     3     5    1
     6     4     6    1
     7     4     7    1
     8     7     8    1
     9     8     9    1
    10     2     9    1
    11     3    10    1
    12    10    11    2
    13    10    12    1
    14    12    13    1
    15     2    13    1
    16    15    16   ar
    17    16    17   ar
    18    17    18   ar
    19    18    19   ar
    20    15    19   ar
    21    13    15    1
    22    13    14    1
    23     1    20    1
    24     1    21    1
    25     1    22    1
    26     6    23    1
    27     6    24    1
    28     6    25    1
    29     7    26    1
    30     7    27    1
    31     8    28    1
    32     8    29    1
    33     9    30    1
    34     9    31    1
    35    16    32    1
    36    17    33    1
    37    19    34    1
