REMARK  Name = NuBBE_2391
REMARK  10 active torsions:
REMARK  status: ('A' for Active; 'I' for Inactive)
REMARK    1  A    between atoms: C_1  and  C_2
REMARK    2  A    between atoms: C_5  and  C_6
REMARK    3  A    between atoms: C_5  and  C_7
REMARK    4  A    between atoms: C_13  and  C_24
REMARK    5  A    between atoms: C_14  and  C_16
REMARK    6  A    between atoms: C_16  and  C_17
REMARK    7  A    between atoms: C_17  and  C_18
REMARK    8  A    between atoms: C_18  and  C_23
REMARK    9  A    between atoms: C_19  and  C_20
REMARK   10  A    between atoms: C_20  and  O_22
REMARK                            x       y       z     vdW  Elec       q    Type
REMARK                         _______ _______ _______ _____ _____    ______ ____
ROOT
ATOM      1  C   LIG A   1      -0.000   0.508   1.819  0.00  0.00    +0.012 C 
ATOM      2  C   LIG A   1       0.472   0.737   0.363  0.00  0.00    -0.022 C 
ATOM      3  C   LIG A   1       2.007   1.100   0.284  0.00  0.00    +0.005 C 
ATOM      4  C   LIG A   1       2.445   2.495   0.887  0.00  0.00    -0.031 C 
ATOM      5  C   LIG A   1       3.911   2.802   0.479  0.00  0.00    +0.011 C 
ATOM      6  C   LIG A   1       2.402   2.597   2.432  0.00  0.00    +0.011 C 
ATOM      7  C   LIG A   1       1.554   3.601   0.276  0.00  0.00    +0.007 C 
ATOM      8  C   LIG A   1       0.060   3.301   0.364  0.00  0.00    +0.001 C 
ATOM      9  C   LIG A   1      -0.309   1.942  -0.239  0.00  0.00    +0.007 C 
ATOM     10  C   LIG A   1       2.909  -0.047   0.758  0.00  0.00    +0.031 C 
ATOM     11  C   LIG A   1       2.436  -1.398   0.352  0.00  0.00    -0.027 C 
ATOM     12  C   LIG A   1       1.249  -1.687  -0.210  0.00  0.00    -0.073 C 
ATOM     13  C   LIG A   1       0.179  -0.614  -0.501  0.00  0.00    +0.021 C 
ATOM     14  C   LIG A   1       1.045  -3.114  -0.629  0.00  0.00    +0.039 C 
ENDROOT
BRANCH  13  15
ATOM     15  C   LIG A   1      -1.332  -1.074  -0.359  0.00  0.00    +0.013 C 
BRANCH  15  16
ATOM     16  C   LIG A   1      -1.875  -2.206  -1.264  0.00  0.00    +0.031 C 
BRANCH  16  17
ATOM     17  C   LIG A   1      -3.332  -2.581  -0.997  0.00  0.00    -0.066 C 
ATOM     18  C   LIG A   1      -4.414  -2.195  -1.704  0.00  0.00    +0.090 C 
ATOM     19  C   LIG A   1      -3.538  -3.584   0.117  0.00  0.00    +0.039 C 
BRANCH  18  20
ATOM     20  C   LIG A   1      -4.452  -1.301  -2.874  0.00  0.00    +0.330 C 
ATOM     21  O   LIG A   1      -3.583  -0.498  -3.178  0.00  0.00    -0.246 OA
BRANCH  20  22
ATOM     22  O   LIG A   1      -5.582  -1.469  -3.587  0.00  0.00    -0.477 OA
ATOM     23  H   LIG A   1      -6.152  -2.212  -3.296  0.00  0.00    +0.295 HD
ENDBRANCH  20  22
ENDBRANCH  18  20
ENDBRANCH  16  17
ENDBRANCH  15  16
ENDBRANCH  13  15
TORSDOF 5
