REMARK  Name = NuBBE_2462
REMARK  11 active torsions:
REMARK  status: ('A' for Active; 'I' for Inactive)
REMARK    1  A    between atoms: C_1  and  O_2
REMARK    2  A    between atoms: O_2  and  C_3
REMARK    3  A    between atoms: C_4  and  O_5
REMARK    4  A    between atoms: C_8  and  C_10
REMARK    5  A    between atoms: C_13  and  O_14
REMARK    6  A    between atoms: C_15  and  O_16
REMARK    7  A    between atoms: O_16  and  C_17
REMARK    8  A    between atoms: C_19  and  C_21
REMARK    9  A    between atoms: C_21  and  O_22
REMARK   10  A    between atoms: C_23  and  C_25
REMARK   11  A    between atoms: C_25  and  O_26
REMARK                            x       y       z     vdW  Elec       q    Type
REMARK                         _______ _______ _______ _____ _____    ______ ____
ROOT
ATOM      1  C   LIG A   1      -2.266  -2.513   2.039  0.00  0.00    +0.162 A 
ATOM      2  C   LIG A   1      -1.329  -3.030   1.146  0.00  0.00    +0.159 A 
ATOM      3  C   LIG A   1      -0.714  -2.228   0.192  0.00  0.00    +0.053 A 
ATOM      4  C   LIG A   1      -1.038  -0.862   0.088  0.00  0.00    -0.033 A 
ATOM      5  C   LIG A   1      -0.358  -0.017  -0.995  0.00  0.00    +0.055 C 
ATOM      6  C   LIG A   1      -1.038   1.373  -1.218  0.00  0.00    +0.032 C 
ATOM      7  C   LIG A   1      -1.597   2.028   0.077  0.00  0.00    +0.025 C 
ATOM      8  C   LIG A   1      -2.514   1.076   0.846  0.00  0.00    +0.041 C 
ATOM      9  C   LIG A   1      -1.999  -0.334   0.971  0.00  0.00    -0.040 A 
ATOM     10  C   LIG A   1      -2.604  -1.166   1.940  0.00  0.00    +0.053 A 
ENDROOT
BRANCH   5  11
ATOM     11  C   LIG A   1       1.173   0.080  -0.878  0.00  0.00    -0.036 A 
ATOM     12  C   LIG A   1       1.835  -0.089   0.340  0.00  0.00    +0.008 A 
ATOM     13  C   LIG A   1       3.227   0.004   0.428  0.00  0.00    +0.049 A 
ATOM     14  C   LIG A   1       3.983   0.260  -0.717  0.00  0.00    +0.159 A 
ATOM     15  C   LIG A   1       3.369   0.385  -1.959  0.00  0.00    +0.162 A 
ATOM     16  C   LIG A   1       1.962   0.314  -2.032  0.00  0.00    +0.053 A 
BRANCH  14  17
ATOM     17  O   LIG A   1       5.338   0.403  -0.562  0.00  0.00    -0.503 OA
ATOM     18  H   LIG A   1       5.563   0.350   0.375  0.00  0.00    +0.292 HD
ENDBRANCH  14  17
BRANCH  15  19
ATOM     19  O   LIG A   1       3.999   0.608  -3.161  0.00  0.00    -0.491 OA
ATOM     20  C   LIG A   1       5.342   0.137  -3.258  0.00  0.00    +0.277 C 
ENDBRANCH  15  19
ENDBRANCH   5  11
BRANCH   1  22
ATOM     21  C   LIG A   1      -3.274  -2.899   4.147  0.00  0.00    +0.277 C 
ATOM     22  O   LIG A   1      -2.835  -3.418   2.896  0.00  0.00    -0.491 OA
ENDBRANCH   1  22
BRANCH   2  23
ATOM     23  O   LIG A   1      -0.996  -4.357   1.192  0.00  0.00    -0.503 OA
ATOM     24  H   LIG A   1      -1.577  -4.739   1.878  0.00  0.00    +0.292 HD
ENDBRANCH   2  23
BRANCH   6  25
ATOM     25  C   LIG A   1      -2.163   1.205  -2.267  0.00  0.00    +0.160 C 
BRANCH  25  26
ATOM     26  O   LIG A   1      -2.815   2.439  -2.547  0.00  0.00    -0.395 OA
ATOM     27  H   LIG A   1      -2.159   3.028  -2.958  0.00  0.00    +0.209 HD
ENDBRANCH  25  26
ENDBRANCH   6  25
BRANCH   7  28
ATOM     28  C   LIG A   1      -0.533   2.631   0.999  0.00  0.00    +0.160 C 
BRANCH  28  29
ATOM     29  O   LIG A   1       0.166   3.655   0.302  0.00  0.00    -0.395 OA
ATOM     30  H   LIG A   1       0.593   4.220   0.968  0.00  0.00    +0.209 HD
ENDBRANCH  28  29
ENDBRANCH   7  28
TORSDOF 9
