REMARK  Name = NuBBE_2491
REMARK  8 active torsions:
REMARK  status: ('A' for Active; 'I' for Inactive)
REMARK    1  A    between atoms: C_1  and  C_2
REMARK    2  A    between atoms: C_2  and  C_3
REMARK    3  A    between atoms: C_6  and  C_7
REMARK    4  A    between atoms: C_11  and  C_12
REMARK    5  A    between atoms: C_17  and  C_18
REMARK    6  A    between atoms: C_17  and  C_19
REMARK    7  A    between atoms: C_24  and  C_25
REMARK    8  A    between atoms: C_30  and  C_31
REMARK                            x       y       z     vdW  Elec       q    Type
REMARK                         _______ _______ _______ _____ _____    ______ ____
ROOT
ATOM      1  C   LIG A   1      -2.242  -3.944  -0.425  0.00  0.00    +0.011 C 
ATOM      2  C   LIG A   1      -1.270  -2.996  -1.165  0.00  0.00    -0.035 C 
ATOM      3  C   LIG A   1      -1.703  -1.706  -0.486  0.00  0.00    +0.011 C 
ATOM      4  C   LIG A   1      -1.525  -3.349  -2.631  0.00  0.00    +0.007 C 
ATOM      5  C   LIG A   1      -1.591  -2.120  -3.453  0.00  0.00    +0.008 C 
ATOM      6  C   LIG A   1      -0.241  -1.372  -3.539  0.00  0.00    -0.025 C 
ATOM      7  C   LIG A   1       0.456  -1.908  -4.811  0.00  0.00    +0.012 C 
ATOM      8  C   LIG A   1      -0.683   0.052  -3.875  0.00  0.00    +0.034 C 
ATOM      9  C   LIG A   1      -0.469   0.960  -2.740  0.00  0.00    -0.026 C 
ATOM     10  C   LIG A   1      -0.249   0.516  -1.459  0.00  0.00    -0.061 C 
ATOM     11  C   LIG A   1      -1.069   1.372  -0.363  0.00  0.00    -0.007 C 
ATOM     12  C   LIG A   1      -2.259   2.010  -1.221  0.00  0.00    +0.016 C 
ATOM     13  C   LIG A   1      -1.926   0.854   0.890  0.00  0.00    +0.012 C 
ATOM     14  C   LIG A   1      -1.266   0.301   2.175  0.00  0.00    +0.006 C 
ATOM     15  C   LIG A   1      -0.336   1.341   2.815  0.00  0.00    +0.008 C 
ATOM     16  C   LIG A   1       0.681   0.811   4.047  0.00  0.00    +0.027 C 
ATOM     17  C   LIG A   1      -0.116   0.144   5.197  0.00  0.00    +0.019 C 
ATOM     18  C   LIG A   1       1.851  -0.242   3.859  0.00  0.00    +0.019 C 
ATOM     19  C   LIG A   1       1.380   2.050   4.539  0.00  0.00    +0.139 C 
ATOM     20  O   LIG A   1       1.877   2.069   5.734  0.00  0.00    -0.297 OA
ATOM     21  C   LIG A   1       1.679   3.226   3.662  0.00  0.00    +0.075 C 
ATOM     22  C   LIG A   1       1.076   3.332   2.272  0.00  0.00    +0.015 C 
ATOM     23  C   LIG A   1       0.472   2.069   1.679  0.00  0.00    -0.024 C 
ATOM     24  C   LIG A   1       1.454   1.026   1.349  0.00  0.00    +0.012 C 
ATOM     25  C   LIG A   1      -0.073   2.426   0.183  0.00  0.00    +0.005 C 
ATOM     26  C   LIG A   1       1.154   2.624  -0.902  0.00  0.00    +0.006 C 
ATOM     27  C   LIG A   1       1.933   1.304  -1.565  0.00  0.00    +0.012 C 
ATOM     28  C   LIG A   1       1.182  -0.142  -1.379  0.00  0.00    -0.007 C 
ATOM     29  C   LIG A   1       2.401  -0.843  -0.539  0.00  0.00    +0.016 C 
ATOM     30  C   LIG A   1       0.781  -1.520  -2.260  0.00  0.00    +0.006 C 
ATOM     31  C   LIG A   1       0.279  -2.816  -1.197  0.00  0.00    +0.011 C 
ENDROOT
TORSDOF 0
