REMARK  Name = NuBBE_2164
REMARK  7 active torsions:
REMARK  status: ('A' for Active; 'I' for Inactive)
REMARK    1  A    between atoms: C_1  and  O_2
REMARK    2  A    between atoms: O_2  and  C_3
REMARK    3  A    between atoms: C_4  and  O_5
REMARK    4  A    between atoms: O_5  and  C_6
REMARK    5  A    between atoms: C_10  and  C_12
REMARK    6  A    between atoms: C_23  and  C_25
REMARK    7  A    between atoms: C_26  and  C_28
REMARK                            x       y       z     vdW  Elec       q    Type
REMARK                         _______ _______ _______ _____ _____    ______ ____
ROOT
ATOM      1  C   LIG A   1       0.726  -2.686  -0.988  0.00  0.00    +0.162 A 
ATOM      2  C   LIG A   1       1.563  -3.105   0.061  0.00  0.00    +0.162 A 
ATOM      3  C   LIG A   1       2.049  -2.156   0.963  0.00  0.00    +0.061 A 
ATOM      4  C   LIG A   1       0.338  -1.341  -1.071  0.00  0.00    +0.054 A 
ATOM      5  C   LIG A   1       0.786  -0.389  -0.139  0.00  0.00    -0.025 A 
ATOM      6  C   LIG A   1       0.289   1.049  -0.223  0.00  0.00    +0.053 C 
ATOM      7  C   LIG A   1       1.682  -0.811   0.844  0.00  0.00    +0.025 A 
ATOM      8  C   LIG A   1       2.307   0.172   1.755  0.00  0.00    +0.167 C 
ATOM      9  C   LIG A   1       2.283   1.617   1.284  0.00  0.00    +0.061 C 
ATOM     10  C   LIG A   1       2.878   2.519   2.366  0.00  0.00    +0.016 C 
ATOM     11  C   LIG A   1       0.832   1.982   0.907  0.00  0.00    +0.008 C 
ATOM     12  C   LIG A   1       0.713   3.453   0.478  0.00  0.00    +0.009 C 
ATOM     13  O   LIG A   1       2.861  -0.207   2.777  0.00  0.00    -0.292 OA
ENDROOT
BRANCH   6  14
ATOM     14  C   LIG A   1      -1.244   1.106  -0.256  0.00  0.00    -0.036 A 
ATOM     15  C   LIG A   1      -1.909   1.667  -1.361  0.00  0.00    +0.053 A 
ATOM     16  C   LIG A   1      -3.289   1.696  -1.346  0.00  0.00    +0.167 A 
ATOM     17  C   LIG A   1      -4.016   1.193  -0.294  0.00  0.00    +0.166 A 
ATOM     18  O   LIG A   1      -5.357   1.323  -0.478  0.00  0.00    -0.453 OA
ATOM     19  C   LIG A   1      -5.392   1.967  -1.768  0.00  0.00    +0.466 C 
ATOM     20  O   LIG A   1      -4.083   2.206  -2.327  0.00  0.00    -0.453 OA
ATOM     21  C   LIG A   1      -3.407   0.629   0.803  0.00  0.00    +0.050 A 
ATOM     22  C   LIG A   1      -2.010   0.585   0.819  0.00  0.00    +0.008 A 
ENDBRANCH   6  14
BRANCH   1  24
ATOM     23  C   LIG A   1      -0.118  -3.185  -3.152  0.00  0.00    +0.277 C 
ATOM     24  O   LIG A   1       0.297  -3.648  -1.870  0.00  0.00    -0.491 OA
ENDBRANCH   1  24
BRANCH   2  25
ATOM     25  O   LIG A   1       1.877  -4.441   0.114  0.00  0.00    -0.491 OA
ATOM     26  C   LIG A   1       2.691  -4.869   1.202  0.00  0.00    +0.277 C 
ENDBRANCH   2  25
TORSDOF 3
