REMARK  Name = NuBBE_1321
REMARK  3 active torsions:
REMARK  status: ('A' for Active; 'I' for Inactive)
REMARK    1  A    between atoms: C_4  and  C_5
REMARK    2  A    between atoms: C_20  and  C_21
REMARK    3  A    between atoms: C_20  and  C_22
REMARK                            x       y       z     vdW  Elec       q    Type
REMARK                         _______ _______ _______ _____ _____    ______ ____
ROOT
ATOM      1  O   LIG A   1      -4.619  -0.621   0.072  0.00  0.00    -0.287 OA
ATOM      2  C   LIG A   1      -3.397  -0.610   0.018  0.00  0.00    +0.193 A 
ATOM      3  C   LIG A   1      -2.632  -1.865  -0.014  0.00  0.00    +0.098 A 
ATOM      4  C   LIG A   1      -1.295  -1.812  -0.085  0.00  0.00    +0.139 A 
ATOM      5  O   LIG A   1      -0.562  -0.637  -0.114  0.00  0.00    -0.454 OA
ATOM      6  C   LIG A   1      -2.620   0.638  -0.019  0.00  0.00    +0.065 A 
ATOM      7  C   LIG A   1      -1.227   0.568  -0.083  0.00  0.00    +0.150 A 
ATOM      8  C   LIG A   1      -0.465   1.748  -0.116  0.00  0.00    +0.059 A 
ATOM      9  C   LIG A   1       0.992   1.728  -0.191  0.00  0.00    +0.015 C 
ATOM     10  C   LIG A   1       1.644   2.893  -0.171  0.00  0.00    +0.020 C 
ATOM     11  C   LIG A   1       0.952   4.232  -0.078  0.00  0.00    +0.123 C 
ATOM     12  C   LIG A   1       1.340   4.916   1.238  0.00  0.00    +0.060 C 
ATOM     13  C   LIG A   1       1.384   5.107  -1.261  0.00  0.00    +0.060 C 
ATOM     14  O   LIG A   1      -0.489   4.193  -0.115  0.00  0.00    -0.481 OA
ATOM     15  C   LIG A   1      -1.124   2.983  -0.082  0.00  0.00    +0.132 A 
ATOM     16  C   LIG A   1      -2.519   3.045  -0.022  0.00  0.00    +0.047 A 
ATOM     17  C   LIG A   1      -3.272   1.873   0.011  0.00  0.00    +0.019 A 
ENDROOT
BRANCH   4  18
ATOM     18  C   LIG A   1      -0.468  -3.035  -0.110  0.00  0.00    +0.021 A 
ATOM     19  C   LIG A   1       0.712  -3.092   0.650  0.00  0.00    +0.061 A 
ATOM     20  C   LIG A   1       1.473  -4.242   0.597  0.00  0.00    +0.167 A 
ATOM     21  C   LIG A   1       1.109  -5.317  -0.177  0.00  0.00    +0.166 A 
ATOM     22  O   LIG A   1       1.994  -6.345  -0.088  0.00  0.00    -0.453 OA
ATOM     23  C   LIG A   1       2.958  -5.794   0.833  0.00  0.00    +0.466 C 
ATOM     24  O   LIG A   1       2.634  -4.458   1.271  0.00  0.00    -0.453 OA
ATOM     25  C   LIG A   1      -0.034  -5.302  -0.944  0.00  0.00    +0.050 A 
ATOM     26  C   LIG A   1      -0.826  -4.148  -0.911  0.00  0.00    +0.015 A 
ENDBRANCH   4  18
TORSDOF 1
