REMARK  Name = NuBBE_586
REMARK  7 active torsions:
REMARK  status: ('A' for Active; 'I' for Inactive)
REMARK    1  A    between atoms: O_1  and  C_2
REMARK    2  A    between atoms: C_5  and  C_21
REMARK    3  A    between atoms: C_8  and  C_10
REMARK    4  A    between atoms: C_11  and  C_12
REMARK    5  A    between atoms: C_18  and  O_20
REMARK    6  A    between atoms: C_21  and  C_22
REMARK    7  A    between atoms: C_23  and  C_24
REMARK                            x       y       z     vdW  Elec       q    Type
REMARK                         _______ _______ _______ _____ _____    ______ ____
ROOT
ATOM      1  C   LIG A   1       0.049   0.676   2.544  0.00  0.00    +0.148 C 
ATOM      2  C   LIG A   1       0.741  -0.577   2.023  0.00  0.00    +0.066 C 
ATOM      3  C   LIG A   1       0.120  -1.000   0.690  0.00  0.00    +0.125 C 
ATOM      4  O   LIG A   1       0.131   0.077  -0.266  0.00  0.00    -0.366 OA
ATOM      5  C   LIG A   1      -0.552   1.267   0.145  0.00  0.00    +0.172 C 
ATOM      6  C   LIG A   1       0.035   1.776   1.477  0.00  0.00    +0.175 C 
ENDROOT
BRANCH   1   7
ATOM      7  O   LIG A   1       0.742   1.139   3.706  0.00  0.00    -0.389 OA
ATOM      8  H   LIG A   1       1.491   1.676   3.374  0.00  0.00    +0.210 HD
ENDBRANCH   1   7
BRANCH   5   9
ATOM      9  C   LIG A   1      -2.046   1.088   0.125  0.00  0.00    +0.007 C 
ATOM     10  C   LIG A   1      -2.724   0.254  -0.685  0.00  0.00    +0.006 C 
BRANCH  10  11
ATOM     11  C   LIG A   1      -4.186   0.098  -0.645  0.00  0.00    -0.025 A 
ATOM     12  C   LIG A   1      -4.884  -0.269  -1.803  0.00  0.00    +0.008 A 
ATOM     13  C   LIG A   1      -6.269  -0.464  -1.764  0.00  0.00    +0.001 A 
ATOM     14  C   LIG A   1      -6.965  -0.304  -0.567  0.00  0.00    +0.000 A 
ATOM     15  C   LIG A   1      -6.281   0.053   0.590  0.00  0.00    +0.001 A 
ATOM     16  C   LIG A   1      -4.901   0.244   0.552  0.00  0.00    +0.008 A 
ENDBRANCH  10  11
ENDBRANCH   5   9
BRANCH   6  17
ATOM     17  O   LIG A   1       1.399   2.211   1.268  0.00  0.00    -0.386 OA
ATOM     18  H   LIG A   1       1.783   1.597   0.611  0.00  0.00    +0.210 HD
ENDBRANCH   6  17
BRANCH   3  19
ATOM     19  C   LIG A   1       0.843  -2.192   0.042  0.00  0.00    +0.058 C 
BRANCH  19  20
ATOM     20  C   LIG A   1       2.288  -1.902  -0.272  0.00  0.00    -0.025 C 
ATOM     21  C   LIG A   1       2.735  -1.433  -1.450  0.00  0.00    +0.013 C 
BRANCH  21  22
ATOM     22  C   LIG A   1       4.179  -1.111  -1.788  0.00  0.00    +0.203 C 
ATOM     23  O   LIG A   1       5.038  -1.313  -0.651  0.00  0.00    -0.454 OA
ATOM     24  C   LIG A   1       5.147  -0.352   0.308  0.00  0.00    +0.332 C 
ATOM     25  C   LIG A   1       4.705   1.009  -0.056  0.00  0.00    +0.087 C 
ATOM     26  C   LIG A   1       4.387   1.329  -1.314  0.00  0.00    -0.016 C 
ATOM     27  C   LIG A   1       4.387   0.289  -2.388  0.00  0.00    +0.076 C 
ATOM     28  O   LIG A   1       5.602  -0.578   1.413  0.00  0.00    -0.246 OA
ENDBRANCH  21  22
ENDBRANCH  19  20
ENDBRANCH   3  19
TORSDOF 7
