REMARK  Name = NuBBE_1105
REMARK  5 active torsions:
REMARK  status: ('A' for Active; 'I' for Inactive)
REMARK    1  A    between atoms: N_11  and  C_12
REMARK    2  A    between atoms: C_12  and  C_13
REMARK    3  A    between atoms: C_13  and  C_14
REMARK    4  A    between atoms: C_24  and  C_25
REMARK    5  A    between atoms: C_24  and  C_26
REMARK                            x       y       z     vdW  Elec       q    Type
REMARK                         _______ _______ _______ _____ _____    ______ ____
ROOT
ATOM      1  C   LIG A   1      -0.261   0.110   0.574  0.00  0.00    -0.020 A 
ATOM      2  C   LIG A   1      -1.640   0.044   0.716  0.00  0.00    +0.087 A 
ATOM      3  N   LIG A   1      -2.149   1.291   0.534  0.00  0.00    -0.360 N 
ATOM      4  C   LIG A   1      -1.163   2.194   0.807  0.00  0.00    +0.048 A 
ATOM      5  C   LIG A   1       0.064   1.507   0.767  0.00  0.00    +0.013 A 
ATOM      6  C   LIG A   1       1.230   2.277   0.997  0.00  0.00    +0.026 A 
ATOM      7  C   LIG A   1       1.089   3.612   1.412  0.00  0.00    +0.130 A 
ATOM      8  C   LIG A   1      -0.154   4.236   1.455  0.00  0.00    +0.048 A 
ATOM      9  C   LIG A   1      -1.306   3.547   1.105  0.00  0.00    +0.030 A 
ATOM     10  O   LIG A   1       2.152   4.385   1.799  0.00  0.00    -0.482 OA
ATOM     11  C   LIG A   1       3.371   3.697   2.152  0.00  0.00    +0.123 C 
ATOM     12  C   LIG A   1       3.388   3.498   3.673  0.00  0.00    +0.060 C 
ATOM     13  C   LIG A   1       4.499   4.651   1.746  0.00  0.00    +0.060 C 
ATOM     14  C   LIG A   1       3.571   2.378   1.443  0.00  0.00    +0.020 C 
ATOM     15  C   LIG A   1       2.563   1.709   0.875  0.00  0.00    +0.012 C 
ATOM     16  H   LIG A   1      -3.125   1.512   0.394  0.00  0.00    +0.165 HD
ENDROOT
BRANCH   1  17
ATOM     17  C   LIG A   1       0.621  -1.109   0.470  0.00  0.00    +0.059 C 
BRANCH  17  18
ATOM     18  C   LIG A   1       0.642  -1.907  -0.865  0.00  0.00    +0.134 C 
BRANCH  18  29
ATOM     19  O   LIG A   1       0.453  -4.338  -2.263  0.00  0.00    -0.267 OA
ATOM     20  C   LIG A   1      -0.571  -3.755  -1.959  0.00  0.00    +0.264 A 
ATOM     21  C   LIG A   1      -1.888  -4.288  -2.420  0.00  0.00    +0.063 A 
ATOM     22  C   LIG A   1      -3.051  -3.610  -2.058  0.00  0.00    +0.056 A 
ATOM     23  C   LIG A   1      -4.309  -4.033  -2.474  0.00  0.00    +0.026 A 
ATOM     24  C   LIG A   1      -4.401  -5.176  -3.260  0.00  0.00    +0.002 A 
ATOM     25  C   LIG A   1      -3.243  -5.870  -3.627  0.00  0.00    +0.001 A 
ATOM     26  C   LIG A   1      -1.982  -5.428  -3.213  0.00  0.00    +0.015 A 
ATOM     27  N   LIG A   1      -2.928  -2.406  -1.378  0.00  0.00    -0.307 N 
ATOM     28  C   LIG A   1      -1.723  -1.784  -1.474  0.00  0.00    +0.330 A 
ATOM     29  N   LIG A   1      -0.621  -2.555  -1.252  0.00  0.00    -0.260 N 
ATOM     30  O   LIG A   1      -1.715  -0.590  -1.820  0.00  0.00    -0.246 OA
ATOM     31  H   LIG A   1      -3.735  -1.802  -1.313  0.00  0.00    +0.170 HD
ENDBRANCH  18  29
ENDBRANCH  17  18
ENDBRANCH   1  17
TORSDOF 3
