@<TRIPOS>MOLECULE
NuBBE_1653
 80 84 0 0 0
SMALL
GASTEIGER

@<TRIPOS>ATOM
      1 C          -1.9979    0.2991    2.7581 C.3     1  LIG1       -0.0588
      2 C          -1.2284    0.6925    1.4801 C.3     1  LIG1       -0.0231
      3 C          -0.8990   -0.5695    0.5949 C.3     1  LIG1       -0.0289
      4 H          -0.3417   -0.2151   -0.2802 H       1  LIG1        0.0312
      5 C           0.0792   -1.4967    1.3197 C.3     1  LIG1       -0.0194
      6 C           0.0719   -3.0191    1.0137 C.3     1  LIG1       -0.0193
      7 C          -0.4077   -2.4897    2.3517 C.3     1  LIG1       -0.0401
      8 C          -1.0246   -3.5835    0.0795 C.3     1  LIG1       -0.0273
      9 H          -1.8578   -3.8703    0.7385 H       1  LIG1        0.0312
     10 C          -1.5915   -2.4937   -0.8423 C.3     1  LIG1       -0.0488
     11 C          -2.0922   -1.3053   -0.0187 C.3     1  LIG1       -0.0489
     12 C          -0.6083   -4.8927   -0.6710 C.3     1  LIG1       -0.0056
     13 C           0.3268   -4.6424   -1.8751 C.3     1  LIG1       -0.0572
     14 C          -1.8714   -5.5907   -1.2414 C.3     1  LIG1       -0.0572
     15 C           0.0575   -5.8538    0.3466 C.3     1  LIG1        0.0606
     16 H           0.3566   -6.7803   -0.1582 H       1  LIG1        0.0599
     17 C           1.2766   -5.2783    1.0630 C.3     1  LIG1       -0.0258
     18 C           1.3953   -3.7602    1.0243 C.3     1  LIG1       -0.0442
     19 O          -0.8909   -6.2617    1.3433 O.3     1  LIG1       -0.3912
     20 C           1.3993   -0.7849    1.5531 C.3     1  LIG1       -0.0460
     21 C           1.2069    0.5391    2.2887 C.3     1  LIG1       -0.0463
     22 C           0.1115    1.4905    1.7536 C.3     1  LIG1       -0.0233
     23 C          -0.0659    2.5569    2.8863 C.3     1  LIG1       -0.0588
     24 C           0.3382    2.3377    0.4185 C.3     1  LIG1       -0.0325
     25 H           0.5643    3.3600    0.7461 H       1  LIG1        0.0309
     26 C          -1.0725    2.3877   -0.2415 C.3     1  LIG1       -0.0489
     27 C          -2.0559    1.7376    0.7159 C.3     1  LIG1       -0.0466
     28 C           1.4305    2.0391   -0.6617 C.3     1  LIG1       -0.0403
     29 H           1.2454    1.0455   -1.0879 H       1  LIG1        0.0301
     30 C           1.3567    3.0471   -1.8659 C.3     1  LIG1       -0.0467
     31 C           1.6592    4.5169   -1.5217 C.3     1  LIG1       -0.0339
     32 C           1.5928    5.4050   -2.7389 C.2     1  LIG1       -0.0781
     33 C           0.5385    6.1246   -3.1613 C.2     1  LIG1       -0.0152
     34 C           0.7221    6.9328   -4.4042 C.2     1  LIG1        0.1457
     35 O          -0.0408    7.8194   -4.7342 O.2     1  LIG1       -0.2961
     36 C          -0.8246    6.2027   -2.5472 C.3     1  LIG1       -0.0370
     37 C           2.8655    2.0486   -0.1270 C.3     1  LIG1       -0.0621
     38 H          -1.3745   -0.2586    3.4622 H       1  LIG1        0.0235
     39 H          -2.8766   -0.3104    2.5265 H       1  LIG1        0.0235
     40 H          -2.3710    1.1769    3.2972 H       1  LIG1        0.0235
     41 H           0.2024   -2.6596    3.2341 H       1  LIG1        0.0276
     42 H          -1.4675   -2.5407    2.5805 H       1  LIG1        0.0276
     43 H          -2.4308   -2.8830   -1.4270 H       1  LIG1        0.0268
     44 H          -0.8317   -2.1508   -1.5550 H       1  LIG1        0.0268
     45 H          -2.8016   -1.6482    0.7408 H       1  LIG1        0.0268
     46 H          -2.6389   -0.6366   -0.6918 H       1  LIG1        0.0268
     47 H          -0.1971   -4.1294   -2.6892 H       1  LIG1        0.0236
     48 H           0.6959   -5.5914   -2.2818 H       1  LIG1        0.0236
     49 H           1.1987   -4.0351   -1.6328 H       1  LIG1        0.0236
     50 H          -2.3157   -5.0193   -2.0632 H       1  LIG1        0.0236
     51 H          -2.6450   -5.7240   -0.4779 H       1  LIG1        0.0236
     52 H          -1.6221   -6.5815   -1.6393 H       1  LIG1        0.0236
     53 H           2.1888   -5.6926    0.6153 H       1  LIG1        0.0290
     54 H           1.2806   -5.6076    2.1106 H       1  LIG1        0.0290
     55 H           1.9859   -3.4447    0.1588 H       1  LIG1        0.0272
     56 H           2.0027   -3.4769    1.8922 H       1  LIG1        0.0272
     57 H          -1.0463   -5.5055    1.9357 H       1  LIG1        0.2098
     58 H           1.8868   -0.6327    0.5863 H       1  LIG1        0.0271
     59 H           2.0855   -1.3899    2.1548 H       1  LIG1        0.0271
     60 H           2.1617    1.0637    2.3925 H       1  LIG1        0.0271
     61 H           0.9411    0.2667    3.3214 H       1  LIG1        0.0271
     62 H          -0.3274    2.1016    3.8467 H       1  LIG1        0.0235
     63 H          -0.8358    3.2979    2.6494 H       1  LIG1        0.0235
     64 H           0.8714    3.1066    3.0394 H       1  LIG1        0.0235
     65 H          -1.0970    1.8345   -1.1871 H       1  LIG1        0.0268
     66 H          -1.3706    3.4192   -0.4567 H       1  LIG1        0.0268
     67 H          -2.9190    1.3177    0.1928 H       1  LIG1        0.0271
     68 H          -2.4605    2.4994    1.3931 H       1  LIG1        0.0271
     69 H           0.3695    2.9925   -2.3397 H       1  LIG1        0.0271
     70 H           2.0607    2.7148   -2.6420 H       1  LIG1        0.0271
     71 H           2.6725    4.6064   -1.1131 H       1  LIG1        0.0308
     72 H           0.9869    4.8886   -0.7438 H       1  LIG1        0.0308
     73 H           2.5339    5.4656   -3.2878 H       1  LIG1        0.0576
     74 H           1.6034    6.6637   -5.0200 H       1  LIG1        0.1078
     75 H          -0.9268    5.5709   -1.6611 H       1  LIG1        0.0278
     76 H          -1.5773    5.8701   -3.2702 H       1  LIG1        0.0278
     77 H          -1.0627    7.2297   -2.2521 H       1  LIG1        0.0278
     78 H           3.0645    1.2308    0.5604 H       1  LIG1        0.0233
     79 H           3.0963    2.9835    0.3902 H       1  LIG1        0.0233
     80 H           3.5832    1.9227   -0.9466 H       1  LIG1        0.0233
@<TRIPOS>BOND
     1     1     2    1
     2     2     3    1
     3     3     4    1
     4     3     5    1
     5     5     6    1
     6     6     7    1
     7     5     7    1
     8     6     8    1
     9     8     9    1
    10     8    10    1
    11    10    11    1
    12     3    11    1
    13     8    12    1
    14    12    13    1
    15    12    14    1
    16    12    15    1
    17    15    16    1
    18    15    17    1
    19    17    18    1
    20     6    18    1
    21    15    19    1
    22     5    20    1
    23    20    21    1
    24    21    22    1
    25     2    22    1
    26    22    23    1
    27    22    24    1
    28    24    26    1
    29    26    27    1
    30     2    27    1
    31    28    29    1
    32    28    30    1
    33    30    31    1
    34    31    32    1
    35    32    33    2
    36    33    34    1
    37    34    35    2
    38    33    36    1
    39    28    37    1
    40    24    28    1
    41    24    25    1
    42     1    38    1
    43     1    39    1
    44     1    40    1
    45     7    41    1
    46     7    42    1
    47    10    43    1
    48    10    44    1
    49    11    45    1
    50    11    46    1
    51    13    47    1
    52    13    48    1
    53    13    49    1
    54    14    50    1
    55    14    51    1
    56    14    52    1
    57    17    53    1
    58    17    54    1
    59    18    55    1
    60    18    56    1
    61    19    57    1
    62    20    58    1
    63    20    59    1
    64    21    60    1
    65    21    61    1
    66    23    62    1
    67    23    63    1
    68    23    64    1
    69    26    65    1
    70    26    66    1
    71    27    67    1
    72    27    68    1
    73    30    69    1
    74    30    70    1
    75    31    71    1
    76    31    72    1
    77    32    73    1
    78    34    74    1
    79    36    75    1
    80    36    76    1
    81    36    77    1
    82    37    78    1
    83    37    79    1
    84    37    80    1
