@<TRIPOS>MOLECULE
NuBBE_1351
 42 43 0 0 0
SMALL
GASTEIGER

@<TRIPOS>ATOM
      1 C          -1.0277    1.5923    2.2022 C.3     1  LIG1       -0.0616
      2 C          -1.3769    1.7002    0.7094 C.3     1  LIG1       -0.0343
      3 H          -2.4754    1.7338    0.6499 H       1  LIG1        0.0307
      4 C          -0.8928    0.4990   -0.1878 C.3     1  LIG1       -0.0056
      5 C          -1.0708    0.8382   -1.6865 C.2     1  LIG1       -0.0701
      6 C          -0.9785   -0.2735   -2.7068 C.3     1  LIG1       -0.0433
      7 C          -1.2864    2.0964   -2.1175 C.2     1  LIG1       -0.0845
      8 C          -1.3540    3.3038   -1.2383 C.3     1  LIG1       -0.0342
      9 C          -0.8507    3.0412    0.1744 C.3     1  LIG1       -0.0462
     10 C           0.5990    0.1213    0.0694 C.3     1  LIG1       -0.0380
     11 C           0.5771   -1.2053    0.8423 C.3     1  LIG1       -0.0118
     12 H           0.3623   -0.9819    1.8980 H       1  LIG1        0.0329
     13 C          -0.6627   -1.9060    0.2856 C.3     1  LIG1       -0.0468
     14 C          -1.6899   -0.7819    0.2030 C.3     1  LIG1       -0.0431
     15 C           1.8849   -2.0306    0.8092 C.3     1  LIG1        0.0634
     16 O           1.7134   -3.1651    1.6701 O.3     1  LIG1       -0.3888
     17 C           2.2789   -2.5573   -0.5749 C.3     1  LIG1       -0.0361
     18 C           3.0487   -1.2224    1.3948 C.3     1  LIG1       -0.0361
     19 H           0.0493    1.6614    2.3808 H       1  LIG1        0.0233
     20 H          -1.3877    0.6616    2.6470 H       1  LIG1        0.0233
     21 H          -1.4980    2.4122    2.7575 H       1  LIG1        0.0233
     22 H          -0.0415   -0.8279   -2.6044 H       1  LIG1        0.0275
     23 H          -1.0068    0.1098   -3.7331 H       1  LIG1        0.0275
     24 H          -1.8135   -0.9722   -2.6060 H       1  LIG1        0.0275
     25 H          -1.4208    2.2902   -3.1802 H       1  LIG1        0.0572
     26 H          -2.3944    3.6486   -1.2044 H       1  LIG1        0.0307
     27 H          -0.7638    4.1129   -1.6835 H       1  LIG1        0.0307
     28 H          -1.1702    3.8668    0.8222 H       1  LIG1        0.0271
     29 H           0.2466    3.0471    0.1819 H       1  LIG1        0.0271
     30 H           1.1420    0.8891    0.6287 H       1  LIG1        0.0277
     31 H           1.1474    0.0065   -0.8711 H       1  LIG1        0.0277
     32 H          -1.0101   -2.7156    0.9349 H       1  LIG1        0.0269
     33 H          -0.4873   -2.3237   -0.7098 H       1  LIG1        0.0269
     34 H          -2.1703   -0.6794    1.1817 H       1  LIG1        0.0274
     35 H          -2.4987   -1.0264   -0.4929 H       1  LIG1        0.0274
     36 H           1.0537   -3.7543    1.2670 H       1  LIG1        0.2101
     37 H           1.5210   -3.2347   -0.9810 H       1  LIG1        0.0257
     38 H           3.1987   -3.1514   -0.5098 H       1  LIG1        0.0257
     39 H           2.4509   -1.7515   -1.2937 H       1  LIG1        0.0257
     40 H           2.8058   -0.8614    2.4009 H       1  LIG1        0.0257
     41 H           3.3066   -0.3619    0.7695 H       1  LIG1        0.0257
     42 H           3.9429   -1.8478    1.5018 H       1  LIG1        0.0257
@<TRIPOS>BOND
     1     2     4    1
     2     4     5    1
     3     5     6    1
     4     5     7    2
     5     7     8    1
     6     8     9    1
     7     2     9    1
     8     4    10    1
     9    10    11    1
    10    11    12    1
    11    11    13    1
    12    13    14    1
    13     4    14    1
    14    11    15    1
    15    15    16    1
    16    15    17    1
    17    15    18    1
    18     2     3    1
    19     2     1    1
    20     1    19    1
    21     1    20    1
    22     1    21    1
    23     6    22    1
    24     6    23    1
    25     6    24    1
    26     7    25    1
    27     8    26    1
    28     8    27    1
    29     9    28    1
    30     9    29    1
    31    10    30    1
    32    10    31    1
    33    13    32    1
    34    13    33    1
    35    14    34    1
    36    14    35    1
    37    16    36    1
    38    17    37    1
    39    17    38    1
    40    17    39    1
    41    18    40    1
    42    18    41    1
    43    18    42    1
