@<TRIPOS>MOLECULE
NuBBE_2164
 48 51 0 0 0
SMALL
GASTEIGER

@<TRIPOS>ATOM
      1 C          -0.1176   -3.1847   -3.1516 C.3     1  LIG1        0.0790
      2 O           0.2968   -3.6478   -1.8703 O.3     1  LIG1       -0.4914
      3 C           0.7258   -2.6860   -0.9883 C.ar    1  LIG1        0.1618
      4 C           1.5634   -3.1050    0.0614 C.ar    1  LIG1        0.1622
      5 O           1.8775   -4.4407    0.1141 O.3     1  LIG1       -0.4914
      6 C           2.6910   -4.8691    1.2017 C.3     1  LIG1        0.0790
      7 C           2.0491   -2.1563    0.9625 C.ar    1  LIG1       -0.0055
      8 C           0.3380   -1.3414   -1.0715 C.ar    1  LIG1       -0.0119
      9 C           0.7863   -0.3890   -0.1386 C.ar    1  LIG1       -0.0255
     10 C           0.2886    1.0493   -0.2231 C.3     1  LIG1        0.0133
     11 H           0.6763    1.4305   -1.1798 H       1  LIG1        0.0400
     12 C          -1.2444    1.1062   -0.2557 C.ar    1  LIG1       -0.0360
     13 C          -1.9088    1.6672   -1.3611 C.ar    1  LIG1       -0.0124
     14 C          -3.2890    1.6963   -1.3463 C.ar    1  LIG1        0.1665
     15 C          -4.0165    1.1932   -0.2941 C.ar    1  LIG1        0.1662
     16 O          -5.3571    1.3231   -0.4780 O.3     1  LIG1       -0.4526
     17 C          -5.3922    1.9670   -1.7677 C.3     1  LIG1        0.2332
     18 O          -4.0827    2.2059   -2.3267 O.3     1  LIG1       -0.4526
     19 C          -3.4074    0.6289    0.8031 C.ar    1  LIG1       -0.0159
     20 C          -2.0104    0.5850    0.8190 C.ar    1  LIG1       -0.0543
     21 C           1.6822   -0.8109    0.8444 C.ar    1  LIG1        0.0251
     22 C           2.3067    0.1719    1.7549 C.2     1  LIG1        0.1666
     23 C           2.2826    1.6169    1.2835 C.3     1  LIG1        0.0227
     24 H           2.9320    1.6811    0.3996 H       1  LIG1        0.0381
     25 C           2.8784    2.5187    2.3663 C.3     1  LIG1       -0.0551
     26 C           0.8319    1.9824    0.9075 C.3     1  LIG1       -0.0234
     27 H           0.2186    1.8536    1.8105 H       1  LIG1        0.0314
     28 C           0.7126    3.4528    0.4784 C.3     1  LIG1       -0.0609
     29 O           2.8614   -0.2071    2.7770 O.2     1  LIG1       -0.2918
     30 H          -0.2620   -4.0559   -3.7971 H       1  LIG1        0.0660
     31 H           0.6491   -2.5509   -3.6117 H       1  LIG1        0.0660
     32 H          -1.0765   -2.6593   -3.0919 H       1  LIG1        0.0660
     33 H           2.8183   -5.9527    1.1262 H       1  LIG1        0.0660
     34 H           2.2119   -4.6576    2.1643 H       1  LIG1        0.0660
     35 H           3.6863   -4.4143    1.1487 H       1  LIG1        0.0660
     36 H           2.7330   -2.4298    1.7605 H       1  LIG1        0.0662
     37 H          -0.3458   -1.0153   -1.8500 H       1  LIG1        0.0658
     38 H          -1.3674    2.0734   -2.2088 H       1  LIG1        0.0658
     39 H          -5.9114    2.9271   -1.6661 H       1  LIG1        0.1166
     40 H          -5.9585    1.3332   -2.4599 H       1  LIG1        0.1166
     41 H          -3.9916    0.2313    1.6253 H       1  LIG1        0.0655
     42 H          -1.5149    0.1335    1.6773 H       1  LIG1        0.0622
     43 H           3.8645    2.1567    2.6790 H       1  LIG1        0.0237
     44 H           2.2392    2.5448    3.2556 H       1  LIG1        0.0237
     45 H           3.0155    3.5420    2.0054 H       1  LIG1        0.0237
     46 H           0.9608    4.1286    1.3020 H       1  LIG1        0.0233
     47 H          -0.3072    3.7005    0.1692 H       1  LIG1        0.0233
     48 H           1.3836    3.6727   -0.3591 H       1  LIG1        0.0233
@<TRIPOS>BOND
     1     1     2    1
     2     2     3    1
     3     3     4   ar
     4     4     5    1
     5     5     6    1
     6     4     7   ar
     7     3     8   ar
     8     8     9   ar
     9     9    10    1
    10    12    13   ar
    11    13    14   ar
    12    14    15   ar
    13    15    16    1
    14    16    17    1
    15    17    18    1
    16    14    18    1
    17    15    19   ar
    18    19    20   ar
    19    12    20   ar
    20     9    21   ar
    21     7    21   ar
    22    21    22    1
    23    22    23    1
    24    23    24    1
    25    23    25    1
    26    23    26    1
    27    26    27    1
    28    10    26    1
    29    26    28    1
    30    22    29    2
    31    10    12    1
    32    10    11    1
    33     1    30    1
    34     1    31    1
    35     1    32    1
    36     6    33    1
    37     6    34    1
    38     6    35    1
    39     7    36    1
    40     8    37    1
    41    13    38    1
    42    17    39    1
    43    17    40    1
    44    19    41    1
    45    20    42    1
    46    25    43    1
    47    25    44    1
    48    25    45    1
    49    28    46    1
    50    28    47    1
    51    28    48    1
