REMARK  Name = NuBBE_1056
REMARK  12 active torsions:
REMARK  status: ('A' for Active; 'I' for Inactive)
REMARK    1  A    between atoms: C_1  and  C_2
REMARK    2  A    between atoms: C_2  and  C_40
REMARK    3  A    between atoms: C_3  and  C_35
REMARK    4  A    between atoms: C_5  and  C_34
REMARK    5  A    between atoms: C_7  and  C_13
REMARK    6  A    between atoms: C_14  and  O_16
REMARK    7  A    between atoms: C_18  and  C_19
REMARK    8  A    between atoms: C_21  and  O_33
REMARK    9  A    between atoms: C_25  and  C_27
REMARK   10  A    between atoms: C_35  and  C_36
REMARK   11  A    between atoms: C_36  and  O_37
REMARK   12  A    between atoms: O_37  and  C_38
REMARK                            x       y       z     vdW  Elec       q    Type
REMARK                         _______ _______ _______ _____ _____    ______ ____
ROOT
ATOM      1  C   LIG A   1      -1.049  -4.947   0.620  0.00  0.00    +0.019 C 
ATOM      2  C   LIG A   1      -0.368  -3.679   1.182  0.00  0.00    +0.032 C 
ATOM      3  C   LIG A   1      -0.674  -2.322   0.360  0.00  0.00    +0.027 C 
ATOM      4  C   LIG A   1       0.383  -1.172   0.783  0.00  0.00    +0.042 C 
ATOM      5  C   LIG A   1       0.330   0.172   0.010  0.00  0.00    +0.062 C 
ATOM      6  C   LIG A   1       1.549   0.103  -0.900  0.00  0.00    +0.127 C 
ATOM      7  O   LIG A   1       2.469  -0.919  -0.410  0.00  0.00    -0.488 OA
ATOM      8  C   LIG A   1       1.723  -1.762   0.396  0.00  0.00    +0.109 C 
ATOM      9  C   LIG A   1       2.100  -3.025   0.602  0.00  0.00    +0.088 C 
ATOM     10  C   LIG A   1       1.148  -3.989   1.195  0.00  0.00    +0.165 C 
ATOM     11  O   LIG A   1       1.596  -5.046   1.641  0.00  0.00    -0.292 OA
ATOM     12  C   LIG A   1       1.458   0.019  -2.390  0.00  0.00    +0.057 C 
ATOM     13  C   LIG A   1      -0.988   0.884  -0.125  0.00  0.00    +0.127 C 
ATOM     14  C   LIG A   1      -0.750   2.122  -0.997  0.00  0.00    +0.043 C 
ATOM     15  C   LIG A   1       0.670   2.642  -0.635  0.00  0.00    +0.025 C 
ATOM     16  C   LIG A   1       1.432   3.179  -1.870  0.00  0.00    +0.016 C 
ATOM     17  C   LIG A   1       1.391   1.356  -0.057  0.00  0.00    +0.069 C 
ATOM     18  C   LIG A   1       2.303   1.715   1.126  0.00  0.00    +0.234 C 
ATOM     19  C   LIG A   1       2.877   3.139   1.043  0.00  0.00    +0.337 C 
ATOM     20  O   LIG A   1       1.988   4.135   0.805  0.00  0.00    -0.454 OA
ATOM     21  C   LIG A   1       0.631   3.760   0.476  0.00  0.00    +0.216 C 
ATOM     22  O   LIG A   1       4.072   3.369   1.219  0.00  0.00    -0.248 OA
ATOM     23  C   LIG A   1       0.337  -0.875   2.293  0.00  0.00    +0.020 C 
ATOM     24  C   LIG A   1      -0.861  -3.591   2.652  0.00  0.00    +0.019 C 
ENDROOT
BRANCH  21  25
ATOM     25  C   LIG A   1      -0.165   5.009   0.135  0.00  0.00    +0.031 A 
ATOM     26  C   LIG A   1      -1.520   5.198   0.348  0.00  0.00    +0.202 A 
ATOM     27  O   LIG A   1      -1.919   6.436  -0.029  0.00  0.00    -0.471 OA
ATOM     28  C   LIG A   1      -0.815   7.089  -0.462  0.00  0.00    +0.195 A 
ATOM     29  C   LIG A   1       0.288   6.268  -0.379  0.00  0.00    +0.048 A 
ENDBRANCH  21  25
BRANCH  13  30
ATOM     30  O   LIG A   1      -1.360   1.341   1.177  0.00  0.00    -0.391 OA
ATOM     31  H   LIG A   1      -2.295   1.608   1.151  0.00  0.00    +0.210 HD
ENDBRANCH  13  30
BRANCH  18  32
ATOM     32  O   LIG A   1       3.367   0.786   1.296  0.00  0.00    -0.380 OA
ATOM     33  H   LIG A   1       4.199   1.300   1.308  0.00  0.00    +0.210 HD
ENDBRANCH  18  32
BRANCH   3  34
ATOM     34  C   LIG A   1      -0.694  -2.543  -1.197  0.00  0.00    +0.126 C 
BRANCH  34  35
ATOM     35  C   LIG A   1      -1.765  -3.419  -1.843  0.00  0.00    +0.307 C 
ATOM     36  O   LIG A   1      -1.602  -4.005  -2.894  0.00  0.00    -0.251 OA
BRANCH  35  37
ATOM     37  O   LIG A   1      -2.934  -3.376  -1.146  0.00  0.00    -0.468 OA
ATOM     38  C   LIG A   1      -3.985  -4.161  -1.724  0.00  0.00    +0.280 C 
ENDBRANCH  35  37
ENDBRANCH  34  35
ENDBRANCH   3  34
TORSDOF 6
