REMARK  Name = NuBBE_119
REMARK  16 active torsions:
REMARK  status: ('A' for Active; 'I' for Inactive)
REMARK    1  A    between atoms: O_1  and  C_2
REMARK    2  A    between atoms: C_5  and  O_6
REMARK    3  A    between atoms: O_6  and  C_7
REMARK    4  A    between atoms: C_10  and  C_12
REMARK    5  A    between atoms: C_13  and  O_15
REMARK    6  A    between atoms: C_16  and  O_18
REMARK    7  A    between atoms: O_18  and  C_19
REMARK    8  A    between atoms: C_19  and  C_20
REMARK    9  A    between atoms: C_22  and  O_23
REMARK   10  A    between atoms: C_24  and  O_25
REMARK   11  A    between atoms: O_25  and  C_26
REMARK   12  A    between atoms: C_27  and  O_28
REMARK   13  A    between atoms: C_31  and  O_33
REMARK   14  A    between atoms: C_34  and  C_35
REMARK   15  A    between atoms: C_38  and  O_39
REMARK   16  A    between atoms: C_45  and  O_46
REMARK                            x       y       z     vdW  Elec       q    Type
REMARK                         _______ _______ _______ _____ _____    ______ ____
ROOT
ATOM      1  C   LIG A   1       1.289  -0.641  -0.927  0.00  0.00    +0.341 C 
ATOM      2  O   LIG A   1       2.469  -1.062  -0.241  0.00  0.00    -0.334 OA
ATOM      3  C   LIG A   1       2.468  -2.395   0.291  0.00  0.00    +0.151 C 
ATOM      4  C   LIG A   1       1.965  -2.450   1.733  0.00  0.00    +0.040 C 
ATOM      5  C   LIG A   1       1.823  -3.479  -0.611  0.00  0.00    +0.186 C 
ATOM      6  C   LIG A   1       0.553  -3.005  -1.321  0.00  0.00    +0.242 C 
ATOM      7  C   LIG A   1       0.858  -1.661  -2.009  0.00  0.00    +0.226 C 
ENDROOT
BRANCH   5   8
ATOM      8  O   LIG A   1       2.764  -3.857  -1.628  0.00  0.00    -0.386 OA
ATOM      9  H   LIG A   1       3.576  -4.160  -1.186  0.00  0.00    +0.210 HD
ENDBRANCH   5   8
BRANCH   7  10
ATOM     10  O   LIG A   1      -0.296  -1.252  -2.767  0.00  0.00    -0.382 OA
ATOM     11  H   LIG A   1      -0.645  -0.431  -2.377  0.00  0.00    +0.210 HD
ENDBRANCH   7  10
BRANCH   1  12
ATOM     12  O   LIG A   1       1.522   0.627  -1.585  0.00  0.00    -0.453 OA
BRANCH  12  16
ATOM     13  C   LIG A   1      -1.079   3.432   1.652  0.00  0.00    +0.135 A 
ATOM     14  C   LIG A   1      -0.061   3.257   0.700  0.00  0.00    +0.109 A 
ATOM     15  C   LIG A   1       0.222   1.945   0.128  0.00  0.00    +0.238 A 
ATOM     16  C   LIG A   1       1.289   1.825  -0.917  0.00  0.00    +0.214 A 
ATOM     17  C   LIG A   1       1.919   2.977  -1.264  0.00  0.00    +0.181 A 
ATOM     18  O   LIG A   1       1.673   4.223  -0.684  0.00  0.00    -0.451 OA
ATOM     19  C   LIG A   1       0.678   4.345   0.255  0.00  0.00    +0.146 A 
ATOM     20  C   LIG A   1       0.400   5.619   0.765  0.00  0.00    +0.092 A 
ATOM     21  C   LIG A   1      -0.621   5.779   1.707  0.00  0.00    +0.124 A 
ATOM     22  C   LIG A   1      -1.363   4.694   2.153  0.00  0.00    +0.091 A 
ATOM     23  O   LIG A   1      -0.485   1.011   0.501  0.00  0.00    -0.283 OA
BRANCH  17  24
ATOM     24  C   LIG A   1       2.941   3.067  -2.343  0.00  0.00    +0.021 A 
ATOM     25  C   LIG A   1       4.310   2.912  -2.066  0.00  0.00    +0.015 A 
ATOM     26  C   LIG A   1       5.277   3.035  -3.081  0.00  0.00    +0.046 A 
ATOM     27  C   LIG A   1       4.878   3.322  -4.381  0.00  0.00    +0.117 A 
ATOM     28  C   LIG A   1       3.533   3.506  -4.675  0.00  0.00    +0.046 A 
ATOM     29  C   LIG A   1       2.569   3.382  -3.661  0.00  0.00    +0.015 A 
BRANCH  27  30
ATOM     30  O   LIG A   1       5.776   3.431  -5.403  0.00  0.00    -0.507 OA
ATOM     31  H   LIG A   1       6.656   3.171  -5.084  0.00  0.00    +0.292 HD
ENDBRANCH  27  30
ENDBRANCH  17  24
BRANCH  13  32
ATOM     32  O   LIG A   1      -1.849   2.410   2.140  0.00  0.00    -0.506 OA
ATOM     33  H   LIG A   1      -1.568   1.567   1.719  0.00  0.00    +0.292 HD
ENDBRANCH  13  32
BRANCH  21  34
ATOM     34  O   LIG A   1      -0.938   7.000   2.227  0.00  0.00    -0.506 OA
ATOM     35  H   LIG A   1      -0.361   7.677   1.839  0.00  0.00    +0.292 HD
ENDBRANCH  21  34
ENDBRANCH  12  16
ENDBRANCH   1  12
BRANCH   6  36
ATOM     36  O   LIG A   1      -0.508  -2.826  -0.382  0.00  0.00    -0.452 OA
BRANCH  36  37
ATOM     37  C   LIG A   1      -1.211  -3.914   0.022  0.00  0.00    +0.340 C 
ATOM     38  O   LIG A   1      -0.989  -5.048  -0.296  0.00  0.00    -0.245 OA
BRANCH  37  39
ATOM     39  C   LIG A   1      -2.319  -3.492   0.962  0.00  0.00    +0.066 A 
ATOM     40  C   LIG A   1      -3.232  -4.454   1.389  0.00  0.00    +0.064 A 
ATOM     41  C   LIG A   1      -4.313  -4.081   2.218  0.00  0.00    +0.163 A 
ATOM     42  C   LIG A   1      -4.489  -2.743   2.590  0.00  0.00    +0.203 A 
ATOM     43  C   LIG A   1      -3.534  -1.809   2.164  0.00  0.00    +0.163 A 
ATOM     44  C   LIG A   1      -2.450  -2.176   1.379  0.00  0.00    +0.064 A 
BRANCH  41  45
ATOM     45  O   LIG A   1      -5.177  -5.052   2.641  0.00  0.00    -0.503 OA
ATOM     46  H   LIG A   1      -4.908  -5.915   2.286  0.00  0.00    +0.292 HD
ENDBRANCH  41  45
BRANCH  42  47
ATOM     47  O   LIG A   1      -5.495  -2.219   3.362  0.00  0.00    -0.488 OA
ATOM     48  C   LIG A   1      -6.747  -2.897   3.310  0.00  0.00    +0.277 C 
ENDBRANCH  42  47
BRANCH  43  49
ATOM     49  O   LIG A   1      -3.657  -0.475   2.445  0.00  0.00    -0.503 OA
ATOM     50  H   LIG A   1      -4.576  -0.349   2.762  0.00  0.00    +0.292 HD
ENDBRANCH  43  49
ENDBRANCH  37  39
ENDBRANCH  36  37
ENDBRANCH   6  36
TORSDOF 14
