REMARK  Name = NuBBE_1440
REMARK  8 active torsions:
REMARK  status: ('A' for Active; 'I' for Inactive)
REMARK    1  A    between atoms: C_6  and  C_7
REMARK    2  A    between atoms: C_8  and  O_17
REMARK    3  A    between atoms: C_9  and  C_16
REMARK    4  A    between atoms: C_12  and  O_14
REMARK    5  A    between atoms: C_19  and  C_20
REMARK    6  A    between atoms: C_19  and  O_39
REMARK    7  A    between atoms: C_23  and  C_28
REMARK    8  A    between atoms: C_32  and  C_34
REMARK                            x       y       z     vdW  Elec       q    Type
REMARK                         _______ _______ _______ _____ _____    ______ ____
ROOT
ATOM      1  O   LIG A   1       3.880  -0.550   4.136  0.00  0.00    -0.293 OA
ATOM      2  C   LIG A   1       3.356  -0.765   3.041  0.00  0.00    +0.182 C 
ATOM      3  C   LIG A   1       3.274   0.347   2.007  0.00  0.00    +0.111 C 
ATOM      4  C   LIG A   1       1.855   0.308   1.498  0.00  0.00    +0.135 C 
ATOM      5  C   LIG A   1       1.503  -0.986   0.736  0.00  0.00    +0.038 C 
ATOM      6  C   LIG A   1       2.539  -1.229  -0.386  0.00  0.00    +0.017 C 
ATOM      7  C   LIG A   1       1.554  -2.177   1.762  0.00  0.00    +0.156 C 
ATOM      8  C   LIG A   1       2.842  -2.182   2.651  0.00  0.00    +0.200 C 
ATOM      9  O   LIG A   1       2.453  -2.900   3.840  0.00  0.00    -0.446 OA
ATOM     10  C   LIG A   1       1.115  -2.831   4.028  0.00  0.00    +0.340 C 
ATOM     11  C   LIG A   1       0.423  -2.255   2.817  0.00  0.00    +0.259 C 
ATOM     12  O   LIG A   1       0.540  -3.173   5.051  0.00  0.00    -0.248 OA
ATOM     13  C   LIG A   1       4.048  -2.976   2.130  0.00  0.00    +0.067 C 
ATOM     14  C   LIG A   1       0.091  -0.581   0.139  0.00  0.00    +0.064 C 
ATOM     15  C   LIG A   1      -0.396  -0.933  -1.310  0.00  0.00    +0.101 C 
ATOM     16  C   LIG A   1       0.568  -0.565  -2.460  0.00  0.00    +0.044 C 
ATOM     17  C   LIG A   1      -1.750  -0.251  -1.566  0.00  0.00    +0.130 C 
ATOM     18  O   LIG A   1      -2.906  -1.071  -1.803  0.00  0.00    -0.361 OA
ATOM     19  C   LIG A   1      -2.081   1.094  -0.928  0.00  0.00    +0.011 C 
ATOM     20  C   LIG A   1      -0.743   1.799  -0.604  0.00  0.00    +0.042 C 
ATOM     21  C   LIG A   1       0.041   0.953   0.399  0.00  0.00    +0.126 C 
ATOM     22  O   LIG A   1       1.412   1.350   0.620  0.00  0.00    -0.372 OA
ATOM     23  C   LIG A   1      -2.922   0.906   0.363  0.00  0.00    +0.015 C 
ATOM     24  C   LIG A   1      -2.379  -0.356  -2.924  0.00  0.00    +0.155 C 
ATOM     25  C   LIG A   1      -2.915   0.984  -3.292  0.00  0.00    +0.043 C 
ATOM     26  C   LIG A   1      -3.020   1.792  -1.983  0.00  0.00    +0.034 C 
ENDROOT
BRANCH  26  27
ATOM     27  C   LIG A   1      -2.852   3.272  -2.136  0.00  0.00    -0.006 A 
ATOM     28  C   LIG A   1      -3.643   4.242  -1.550  0.00  0.00    +0.198 A 
ATOM     29  O   LIG A   1      -3.220   5.485  -1.885  0.00  0.00    -0.471 OA
ATOM     30  C   LIG A   1      -2.146   5.330  -2.697  0.00  0.00    +0.195 A 
ATOM     31  C   LIG A   1      -1.879   3.994  -2.886  0.00  0.00    +0.045 A 
ENDBRANCH  26  27
BRANCH  11  32
ATOM     32  O   LIG A   1      -0.187  -1.030   3.181  0.00  0.00    -0.378 OA
ATOM     33  H   LIG A   1      -0.772  -1.222   3.943  0.00  0.00    +0.211 HD
ENDBRANCH  11  32
BRANCH   7  34
ATOM     34  O   LIG A   1       1.486  -3.398   0.990  0.00  0.00    -0.380 OA
ATOM     35  H   LIG A   1       1.552  -4.178   1.571  0.00  0.00    +0.210 HD
ENDBRANCH   7  34
BRANCH  15  36
ATOM     36  O   LIG A   1      -0.575  -2.353  -1.368  0.00  0.00    -0.386 OA
ATOM     37  H   LIG A   1      -1.536  -2.521  -1.370  0.00  0.00    +0.210 HD
ENDBRANCH  15  36
TORSDOF 4
