REMARK  Name = NuBBE_2208
REMARK  10 active torsions:
REMARK  status: ('A' for Active; 'I' for Inactive)
REMARK    1  A    between atoms: C_1  and  C_3
REMARK    2  A    between atoms: C_1  and  C_8
REMARK    3  A    between atoms: C_3  and  C_4
REMARK    4  A    between atoms: C_4  and  C_5
REMARK    5  A    between atoms: C_4  and  C_6
REMARK    6  A    between atoms: C_4  and  O_7
REMARK    7  A    between atoms: C_10  and  C_11
REMARK    8  A    between atoms: C_11  and  C_12
REMARK    9  A    between atoms: C_11  and  O_13
REMARK   10  A    between atoms: C_16  and  O_17
REMARK                            x       y       z     vdW  Elec       q    Type
REMARK                         _______ _______ _______ _____ _____    ______ ____
ROOT
ATOM      1  C   LIG A   1       0.573  -0.137   0.173  0.00  0.00    +0.059 A 
ATOM      2  C   LIG A   1       0.839   1.188  -0.223  0.00  0.00    +0.021 A 
ATOM      3  C   LIG A   1       2.138   1.609  -0.550  0.00  0.00    -0.018 A 
ATOM      4  C   LIG A   1       3.179   0.676  -0.454  0.00  0.00    +0.010 A 
ATOM      5  C   LIG A   1       2.930  -0.638  -0.049  0.00  0.00    +0.046 A 
ATOM      6  C   LIG A   1       1.630  -1.043   0.265  0.00  0.00    +0.127 A 
ENDROOT
BRANCH   1   7
ATOM      7  C   LIG A   1      -0.840  -0.453   0.532  0.00  0.00    +0.169 C 
ATOM      8  O   LIG A   1      -1.501   0.438   1.056  0.00  0.00    -0.292 OA
BRANCH   7   9
ATOM      9  C   LIG A   1      -1.432  -1.825   0.203  0.00  0.00    +0.113 C 
BRANCH   9  10
ATOM     10  C   LIG A   1      -2.948  -1.916   0.500  0.00  0.00    +0.068 C 
ATOM     11  C   LIG A   1      -3.765  -0.930  -0.339  0.00  0.00    +0.041 C 
ATOM     12  C   LIG A   1      -3.477  -3.336   0.241  0.00  0.00    +0.041 C 
BRANCH  10  13
ATOM     13  O   LIG A   1      -3.181  -1.650   1.888  0.00  0.00    -0.389 OA
ATOM     14  H   LIG A   1      -2.862  -0.737   2.051  0.00  0.00    +0.210 HD
ENDBRANCH  10  13
ENDBRANCH   9  10
ENDBRANCH   7   9
ENDBRANCH   1   7
BRANCH   3  15
ATOM     15  C   LIG A   1       2.388   3.043  -0.962  0.00  0.00    +0.142 C 
ATOM     16  C   LIG A   1       2.707   3.936   0.231  0.00  0.00    +0.043 C 
BRANCH  15  17
ATOM     17  O   LIG A   1       3.474   3.095  -1.887  0.00  0.00    -0.388 OA
ATOM     18  H   LIG A   1       3.564   4.021  -2.168  0.00  0.00    +0.210 HD
ENDBRANCH  15  17
ENDBRANCH   3  15
BRANCH   6  19
ATOM     19  O   LIG A   1       1.426  -2.322   0.698  0.00  0.00    -0.506 OA
ATOM     20  H   LIG A   1       2.280  -2.784   0.750  0.00  0.00    +0.292 HD
ENDBRANCH   6  19
TORSDOF 7
