@<TRIPOS>MOLECULE
NuBBE_430
 85 89 0 0 0
SMALL
GASTEIGER

@<TRIPOS>ATOM
      1 C          -4.9417   -1.5359    4.9700 C.3     1  LIG1       -0.0598
      2 C          -4.2520   -0.4238    4.1565 C.3     1  LIG1       -0.0146
      3 H          -3.8081    0.2857    4.8693 H       1  LIG1        0.0326
      4 C          -5.3426    0.3321    3.3948 C.3     1  LIG1       -0.0473
      5 C          -4.7517    1.4387    2.5430 C.3     1  LIG1       -0.0467
      6 C          -3.7175    0.9295    1.5139 C.3     1  LIG1       -0.0229
      7 C          -3.1108    2.1872    0.8571 C.3     1  LIG1       -0.0462
      8 C          -2.0850    1.8549   -0.2138 C.3     1  LIG1       -0.0429
      9 C          -0.9427    0.8737    0.2161 C.3     1  LIG1       -0.0050
     10 C          -0.2842    0.1871   -1.1079 C.3     1  LIG1       -0.0194
     11 C           0.1866    1.2314   -2.1723 C.3     1  LIG1       -0.0463
     12 C           1.6779    1.5135   -2.2953 C.3     1  LIG1       -0.0484
     13 C           2.4848    0.2091   -2.3433 C.3     1  LIG1       -0.0230
     14 H           1.9584   -0.4424   -3.0611 H       1  LIG1        0.0314
     15 C           3.9222    0.3529   -2.9756 C.3     1  LIG1        0.0485
     16 C           3.7800    0.7102   -4.4945 C.3     1  LIG1        0.0546
     17 O           5.0439    0.8553   -5.1410 O.3     1  LIG1       -0.3943
     18 C           4.6262   -1.0343   -2.9147 C.3     1  LIG1        0.0911
     19 H           4.1087   -1.7266   -3.5930 H       1  LIG1        0.0626
     20 C           4.6208   -1.6698   -1.5230 C.3     1  LIG1        0.0823
     21 H           5.2369   -1.0914   -0.8288 H       1  LIG1        0.0619
     22 C           3.1906   -1.8496   -1.0147 C.3     1  LIG1       -0.0184
     23 C           2.3633   -0.5281   -0.9576 C.3     1  LIG1       -0.0225
     24 C           0.8215   -0.8962   -0.7769 C.3     1  LIG1       -0.0257
     25 H           0.7064   -1.6302   -1.5919 H       1  LIG1        0.0315
     26 C           0.4802   -1.7483    0.4649 C.3     1  LIG1       -0.0306
     27 C          -0.7418   -1.3834    1.2541 C.2     1  LIG1       -0.0836
     28 C          -1.4191   -0.2143    1.2172 C.2     1  LIG1       -0.0607
     29 C          -2.5590    0.1575    2.2303 C.3     1  LIG1        0.0148
     30 H          -2.0825    0.8946    2.8980 H       1  LIG1        0.0379
     31 C          -3.1036   -0.9565    3.2332 C.3     1  LIG1        0.0728
     32 C          -1.9779   -1.4981    4.1526 C.3     1  LIG1       -0.0352
     33 O          -3.6491   -2.0609    2.4965 O.3     1  LIG1       -0.3880
     34 C           2.9160    0.2792    0.2382 C.3     1  LIG1       -0.0589
     35 O           5.2300   -2.9631   -1.6051 O.3     1  LIG1       -0.3892
     36 O           5.9769   -0.9987   -3.4025 O.3     1  LIG1       -0.3885
     37 C           4.7562    1.4741   -2.3064 C.3     1  LIG1        0.0546
     38 O           6.0791    1.5482   -2.8364 O.3     1  LIG1       -0.3943
     39 C          -1.4151   -0.6357   -1.8564 C.3     1  LIG1       -0.0585
     40 C           0.0719    1.7368    1.0013 C.3     1  LIG1       -0.0553
     41 C          -4.4491    0.0856    0.4443 C.3     1  LIG1       -0.0589
     42 H          -5.4694   -2.2417    4.3190 H       1  LIG1        0.0233
     43 H          -5.6816   -1.1052    5.6541 H       1  LIG1        0.0233
     44 H          -4.2329   -2.1051    5.5770 H       1  LIG1        0.0233
     45 H          -6.0438    0.7808    4.1104 H       1  LIG1        0.0269
     46 H          -5.9389   -0.3536    2.7831 H       1  LIG1        0.0269
     47 H          -4.2826    2.1764    3.2083 H       1  LIG1        0.0271
     48 H          -5.5666    1.9666    2.0307 H       1  LIG1        0.0271
     49 H          -2.6482    2.8276    1.6192 H       1  LIG1        0.0271
     50 H          -3.9035    2.7964    0.4022 H       1  LIG1        0.0271
     51 H          -1.6525    2.8079   -0.5454 H       1  LIG1        0.0274
     52 H          -2.6391    1.4884   -1.0779 H       1  LIG1        0.0274
     53 H          -0.3270    2.1887   -2.0546 H       1  LIG1        0.0271
     54 H          -0.1259    0.8871   -3.1690 H       1  LIG1        0.0271
     55 H           2.0099    2.1781   -1.4954 H       1  LIG1        0.0268
     56 H           1.8130    2.0933   -3.2133 H       1  LIG1        0.0268
     57 H           3.2121   -0.0574   -5.0329 H       1  LIG1        0.0564
     58 H           3.2585    1.6594   -4.6373 H       1  LIG1        0.0564
     59 H           5.5069   -0.0066   -5.0522 H       1  LIG1        0.2094
     60 H           3.2263   -2.3311   -0.0288 H       1  LIG1        0.0296
     61 H           2.6880   -2.5802   -1.6639 H       1  LIG1        0.0296
     62 H           1.3157   -1.7934    1.1695 H       1  LIG1        0.0310
     63 H           0.3407   -2.7857    0.1290 H       1  LIG1        0.0310
     64 H          -1.0103   -2.1664    1.9526 H       1  LIG1        0.0572
     65 H          -1.0230   -0.9915    3.9800 H       1  LIG1        0.0257
     66 H          -1.8310   -2.5760    4.0244 H       1  LIG1        0.0257
     67 H          -2.1852   -1.3280    5.2146 H       1  LIG1        0.0257
     68 H          -3.1597   -2.1452    1.6610 H       1  LIG1        0.2102
     69 H           4.0065    0.2884    0.2721 H       1  LIG1        0.0235
     70 H           2.6192   -0.1551    1.1965 H       1  LIG1        0.0235
     71 H           2.6061    1.3220    0.2412 H       1  LIG1        0.0235
     72 H           6.0034   -2.8529   -2.1943 H       1  LIG1        0.2099
     73 H           6.4155   -0.2266   -2.9764 H       1  LIG1        0.2099
     74 H           4.2898    2.4558   -2.4392 H       1  LIG1        0.0564
     75 H           4.8780    1.3154   -1.2382 H       1  LIG1        0.0564
     76 H           5.9769    1.7688   -3.7909 H       1  LIG1        0.2094
     77 H          -2.1993   -0.0011   -2.2754 H       1  LIG1        0.0235
     78 H          -1.8883   -1.3846   -1.2162 H       1  LIG1        0.0235
     79 H          -1.0000   -1.1784   -2.7160 H       1  LIG1        0.0235
     80 H           0.5894    2.4473    0.3514 H       1  LIG1        0.0238
     81 H           0.8107    1.1285    1.5256 H       1  LIG1        0.0238
     82 H          -0.4182    2.3306    1.7819 H       1  LIG1        0.0238
     83 H          -5.1623    0.7047   -0.1129 H       1  LIG1        0.0235
     84 H          -5.0175   -0.7434    0.8709 H       1  LIG1        0.0235
     85 H          -3.7648   -0.3533   -0.2832 H       1  LIG1        0.0235
@<TRIPOS>BOND
     1     2     4    1
     2     4     5    1
     3     5     6    1
     4     6     7    1
     5     7     8    1
     6     8     9    1
     7     9    10    1
     8    10    11    1
     9    11    12    1
    10    12    13    1
    11    13    15    1
    12    16    17    1
    13    15    18    1
    14    18    20    1
    15    20    22    1
    16    22    23    1
    17    23    24    1
    18    24    26    1
    19    26    27    1
    20    27    28    2
    21    28    29    1
    22    29    31    1
    23     2    31    1
    24    13    23    1
    25    37    38    1
    26    24    10    1
    27    28     9    1
    28    29     6    1
    29     1     2    1
    30     2     3    1
    31     6    41    1
    32     9    40    1
    33    10    39    1
    34    13    14    1
    35    15    16    1
    36    15    37    1
    37    18    19    1
    38    18    36    1
    39    23    34    1
    40    24    25    1
    41    29    30    1
    42    20    35    1
    43    20    21    1
    44    31    33    1
    45    31    32    1
    46     1    42    1
    47     1    43    1
    48     1    44    1
    49     4    45    1
    50     4    46    1
    51     5    47    1
    52     5    48    1
    53     7    49    1
    54     7    50    1
    55     8    51    1
    56     8    52    1
    57    11    53    1
    58    11    54    1
    59    12    55    1
    60    12    56    1
    61    16    57    1
    62    16    58    1
    63    17    59    1
    64    22    60    1
    65    22    61    1
    66    26    62    1
    67    26    63    1
    68    27    64    1
    69    32    65    1
    70    32    66    1
    71    32    67    1
    72    33    68    1
    73    34    69    1
    74    34    70    1
    75    34    71    1
    76    35    72    1
    77    36    73    1
    78    37    74    1
    79    37    75    1
    80    38    76    1
    81    39    77    1
    82    39    78    1
    83    39    79    1
    84    40    80    1
    85    40    81    1
    86    40    82    1
    87    41    83    1
    88    41    84    1
    89    41    85    1
