@<TRIPOS>MOLECULE
NuBBE_2275
 34 36 0 0 0
SMALL
GASTEIGER

@<TRIPOS>ATOM
      1 O          -6.4821   -0.2338    1.3586 O.3     1  LIG1       -0.5068
      2 C          -5.1532   -0.3908    1.1014 C.ar    1  LIG1        0.1169
      3 C          -4.4724   -1.5381    1.4832 C.ar    1  LIG1       -0.0195
      4 C          -3.1072   -1.6556    1.1979 C.ar    1  LIG1       -0.0475
      5 C          -4.4904    0.6362    0.4449 C.ar    1  LIG1       -0.0195
      6 C          -3.1283    0.5083    0.1495 C.ar    1  LIG1       -0.0475
      7 C          -2.4113   -0.6475    0.5074 C.ar    1  LIG1        0.0213
      8 C          -0.9620   -0.7570    0.1836 C.ar    1  LIG1        0.1806
      9 C          -0.3403   -1.9204   -0.0941 C.ar    1  LIG1        0.2082
     10 O          -0.9540   -3.1591   -0.1296 O.3     1  LIG1       -0.5007
     11 C           1.1072   -1.9002   -0.4057 C.ar    1  LIG1        0.2379
     12 C           1.7762   -0.6020   -0.4358 C.ar    1  LIG1        0.1092
     13 C           3.1319   -0.4844   -0.7501 C.ar    1  LIG1        0.1348
     14 O           3.9282   -1.5609   -1.0366 O.3     1  LIG1       -0.5058
     15 C           3.7388    0.7696   -0.7868 C.ar    1  LIG1        0.0225
     16 C           2.9878    1.9135   -0.5089 C.ar    1  LIG1        0.1271
     17 O           3.4594    3.1980   -0.5173 O.3     1  LIG1       -0.4949
     18 C           4.8292    3.3763   -0.8640 C.3     1  LIG1        0.0788
     19 C           1.6297    1.7869   -0.1881 C.ar    1  LIG1        0.0233
     20 C           1.0238    0.5292   -0.1509 C.ar    1  LIG1        0.1465
     21 O          -0.3096    0.4773    0.1704 O.2     1  LIG1       -0.4507
     22 O           1.7074   -2.9456   -0.6382 O.2     1  LIG1       -0.2830
     23 H          -6.8083   -1.0351    1.8002 H       1  LIG1        0.2921
     24 H          -4.9754   -2.3489    2.0004 H       1  LIG1        0.0654
     25 H          -2.5970   -2.5580    1.5263 H       1  LIG1        0.0626
     26 H          -5.0304    1.5343    0.1585 H       1  LIG1        0.0654
     27 H          -2.6371    1.3263   -0.3732 H       1  LIG1        0.0626
     28 H          -0.2436   -3.7936   -0.3640 H       1  LIG1        0.2924
     29 H           3.3827   -2.3766   -0.9771 H       1  LIG1        0.2922
     30 H           4.7937    0.8176   -1.0360 H       1  LIG1        0.0691
     31 H           5.0442    4.4489   -0.8423 H       1  LIG1        0.0660
     32 H           5.0303    3.0174   -1.8791 H       1  LIG1        0.0660
     33 H           5.4864    2.8900   -0.1353 H       1  LIG1        0.0660
     34 H           1.0454    2.6779    0.0308 H       1  LIG1        0.0691
@<TRIPOS>BOND
     1     1     2    1
     2     2     3   ar
     3     3     4   ar
     4     2     5   ar
     5     5     6   ar
     6     6     7   ar
     7     4     7   ar
     8     7     8    1
     9     8     9   ar
    10     9    10    1
    11     9    11   ar
    12    11    12   ar
    13    12    13   ar
    14    13    14    1
    15    13    15   ar
    16    15    16   ar
    17    16    17    1
    18    17    18    1
    19    16    19   ar
    20    19    20   ar
    21    12    20   ar
    22    20    21   ar
    23     8    21   ar
    24    11    22    2
    25     1    23    1
    26     3    24    1
    27     4    25    1
    28     5    26    1
    29     6    27    1
    30    10    28    1
    31    14    29    1
    32    15    30    1
    33    18    31    1
    34    18    32    1
    35    18    33    1
    36    19    34    1
