REMARK  Name = NuBBE_2053
REMARK  6 active torsions:
REMARK  status: ('A' for Active; 'I' for Inactive)
REMARK    1  A    between atoms: O_1  and  C_2
REMARK    2  A    between atoms: O_1  and  C_3
REMARK    3  A    between atoms: C_6  and  O_11
REMARK    4  A    between atoms: C_8  and  O_9
REMARK    5  A    between atoms: O_9  and  C_10
REMARK    6  A    between atoms: C_15  and  C_17
REMARK                            x       y       z     vdW  Elec       q    Type
REMARK                         _______ _______ _______ _____ _____    ______ ____
ROOT
ATOM      1  C   LIG A   1      -0.704   0.661   0.042  0.00  0.00    +0.205 A 
ATOM      2  C   LIG A   1      -0.123  -0.620   0.018  0.00  0.00    +0.187 A 
ATOM      3  C   LIG A   1       1.262  -0.756  -0.068  0.00  0.00    +0.109 A 
ATOM      4  C   LIG A   1       2.076   0.374  -0.117  0.00  0.00    +0.135 A 
ATOM      5  C   LIG A   1       1.511   1.643  -0.104  0.00  0.00    +0.095 A 
ATOM      6  C   LIG A   1       0.118   1.802  -0.047  0.00  0.00    +0.169 A 
ATOM      7  C   LIG A   1       1.834  -2.112  -0.088  0.00  0.00    +0.196 A 
ATOM      8  O   LIG A   1       3.046  -2.290  -0.161  0.00  0.00    -0.287 OA
ATOM      9  C   LIG A   1       0.901  -3.235  -0.016  0.00  0.00    +0.093 A 
ATOM     10  C   LIG A   1      -0.415  -2.982   0.058  0.00  0.00    +0.106 A 
ATOM     11  O   LIG A   1      -0.959  -1.710   0.083  0.00  0.00    -0.456 OA
ATOM     12  C   LIG A   1      -1.440  -4.072   0.145  0.00  0.00    +0.086 C 
ENDROOT
BRANCH   1  13
ATOM     13  O   LIG A   1      -2.080   0.672   0.062  0.00  0.00    -0.488 OA
ATOM     14  C   LIG A   1      -2.695   1.702   0.826  0.00  0.00    +0.277 C 
ENDBRANCH   1  13
BRANCH   6  15
ATOM     15  O   LIG A   1      -0.478   3.036  -0.057  0.00  0.00    -0.491 OA
ATOM     16  C   LIG A   1       0.212   4.066  -0.758  0.00  0.00    +0.277 C 
ENDBRANCH   6  15
BRANCH   4  17
ATOM     17  O   LIG A   1       3.442   0.308  -0.197  0.00  0.00    -0.506 OA
ATOM     18  H   LIG A   1       3.706  -0.639  -0.212  0.00  0.00    +0.292 HD
ENDBRANCH   4  17
TORSDOF 3
