REMARK  Name = NuBBE_1357
REMARK  14 active torsions:
REMARK  status: ('A' for Active; 'I' for Inactive)
REMARK    1  A    between atoms: C_1  and  C_2
REMARK    2  A    between atoms: C_2  and  C_40
REMARK    3  A    between atoms: C_3  and  O_4
REMARK    4  A    between atoms: O_4  and  C_5
REMARK    5  A    between atoms: C_5  and  C_6
REMARK    6  A    between atoms: C_10  and  C_38
REMARK    7  A    between atoms: C_14  and  C_37
REMARK    8  A    between atoms: C_19  and  C_36
REMARK    9  A    between atoms: C_21  and  O_32
REMARK   10  A    between atoms: C_23  and  C_31
REMARK   11  A    between atoms: C_26  and  C_27
REMARK   12  A    between atoms: C_26  and  C_30
REMARK   13  A    between atoms: O_32  and  C_33
REMARK   14  A    between atoms: C_33  and  C_34
REMARK                            x       y       z     vdW  Elec       q    Type
REMARK                         _______ _______ _______ _____ _____    ______ ____
ROOT
ATOM      1  C   LIG A   1      -3.140  -2.768  -3.416  0.00  0.00    +0.015 C 
ATOM      2  C   LIG A   1      -2.730  -2.095  -2.068  0.00  0.00    +0.005 C 
ATOM      3  C   LIG A   1      -3.181  -3.104  -0.935  0.00  0.00    +0.182 C 
ATOM      4  C   LIG A   1      -2.132  -3.533   0.102  0.00  0.00    +0.046 C 
ATOM      5  C   LIG A   1      -0.678  -3.419  -0.342  0.00  0.00    +0.011 C 
ATOM      6  C   LIG A   1      -0.334  -2.004  -0.876  0.00  0.00    -0.025 C 
ATOM      7  C   LIG A   1      -1.167  -1.838  -2.179  0.00  0.00    +0.004 C 
ATOM      8  C   LIG A   1      -0.836  -0.503  -2.873  0.00  0.00    +0.005 C 
ATOM      9  C   LIG A   1       0.632  -0.337  -3.230  0.00  0.00    +0.008 C 
ATOM     10  C   LIG A   1       1.658  -0.613  -2.101  0.00  0.00    -0.019 C 
ATOM     11  C   LIG A   1       1.204  -1.895  -1.273  0.00  0.00    +0.006 C 
ATOM     12  C   LIG A   1       2.210  -2.151  -0.141  0.00  0.00    +0.031 C 
ATOM     13  C   LIG A   1       2.517  -0.949   0.680  0.00  0.00    -0.026 C 
ATOM     14  C   LIG A   1       2.382   0.333   0.301  0.00  0.00    -0.063 C 
ATOM     15  C   LIG A   1       2.051   0.718  -1.163  0.00  0.00    -0.002 C 
ATOM     16  C   LIG A   1       1.050   1.933  -1.199  0.00  0.00    +0.057 C 
ATOM     17  C   LIG A   1       0.486   2.477   0.125  0.00  0.00    +0.184 C 
ATOM     18  C   LIG A   1       1.390   2.423   1.408  0.00  0.00    +0.011 C 
ATOM     19  C   LIG A   1       2.634   1.505   1.257  0.00  0.00    +0.025 C 
ATOM     20  C   LIG A   1       3.319   1.219   2.633  0.00  0.00    +0.014 C 
ATOM     21  C   LIG A   1       2.438   0.969   3.892  0.00  0.00    -0.034 C 
ATOM     22  C   LIG A   1       2.049  -0.514   4.038  0.00  0.00    +0.011 C 
ATOM     23  C   LIG A   1       1.163   1.828   3.908  0.00  0.00    +0.007 C 
ATOM     24  C   LIG A   1       0.477   1.902   2.554  0.00  0.00    +0.011 C 
ATOM     25  C   LIG A   1       3.273   1.337   5.141  0.00  0.00    +0.011 C 
ATOM     26  C   LIG A   1       1.889   3.849   1.791  0.00  0.00    +0.015 C 
ATOM     27  C   LIG A   1       3.359   1.365  -1.752  0.00  0.00    +0.016 C 
ATOM     28  C   LIG A   1       2.932  -1.097  -2.902  0.00  0.00    +0.012 C 
ATOM     29  C   LIG A   1      -0.707  -0.987   0.204  0.00  0.00    +0.012 C 
ATOM     30  C   LIG A   1      -3.512  -0.753  -2.000  0.00  0.00    +0.015 C 
ENDROOT
BRANCH   3  31
ATOM     31  O   LIG A   1      -4.302  -2.567  -0.169  0.00  0.00    -0.461 OA
BRANCH  31  32
ATOM     32  C   LIG A   1      -5.559  -2.738  -0.668  0.00  0.00    +0.304 C 
ATOM     33  C   LIG A   1      -6.544  -1.897   0.091  0.00  0.00    +0.136 C 
ATOM     34  O   LIG A   1      -5.851  -3.394  -1.658  0.00  0.00    -0.251 OA
ENDBRANCH  31  32
ENDBRANCH   3  31
BRANCH  17  35
ATOM     35  O   LIG A   1       0.041   3.853  -0.023  0.00  0.00    -0.461 OA
BRANCH  35  36
ATOM     36  C   LIG A   1      -1.179   4.067  -0.581  0.00  0.00    +0.304 C 
ATOM     37  C   LIG A   1      -1.900   5.120   0.210  0.00  0.00    +0.136 C 
ATOM     38  O   LIG A   1      -1.672   3.417  -1.476  0.00  0.00    -0.251 OA
ENDBRANCH  35  36
ENDBRANCH  17  35
TORSDOF 4
