@<TRIPOS>MOLECULE
NuBBE_139
 34 36 0 0 0
SMALL
GASTEIGER

@<TRIPOS>ATOM
      1 O          -3.4381   -0.7849    0.7955 O.2     1  LIG1       -0.2889
      2 C          -2.2175   -0.7871    0.6535 C.2     1  LIG1        0.2024
      3 C          -1.4196   -2.0198    0.4304 C.ar    1  LIG1        0.1033
      4 C          -0.0520   -1.8764    0.1676 C.ar    1  LIG1        0.1391
      5 O           0.5959   -0.6736    0.0893 O.3     1  LIG1       -0.4802
      6 C          -0.2625    0.4314   -0.2349 C.3     1  LIG1        0.1582
      7 H          -0.6255    0.2903   -1.2636 H       1  LIG1        0.0815
      8 C          -1.4434    0.5184    0.7316 C.3     1  LIG1        0.1585
      9 H          -1.1281    0.6549    1.7724 H       1  LIG1        0.0718
     10 O          -2.3283    1.5870    0.3784 O.3     1  LIG1       -0.3798
     11 C           0.6135    1.6758   -0.2043 C.ar    1  LIG1       -0.0007
     12 C           0.7014    2.5025   -1.3390 C.ar    1  LIG1       -0.0098
     13 C           1.5159    3.6304   -1.3100 C.ar    1  LIG1        0.1586
     14 O           1.6392    4.4604   -2.3906 O.3     1  LIG1       -0.5033
     15 C           2.2407    3.9487   -0.1654 C.ar    1  LIG1        0.1582
     16 C           2.1652    3.1522    0.9655 C.ar    1  LIG1       -0.0162
     17 C           1.3542    2.0152    0.9457 C.ar    1  LIG1       -0.0513
     18 O           3.0387    5.0566   -0.1497 O.3     1  LIG1       -0.5033
     19 C           0.7620   -2.9987   -0.0062 C.ar    1  LIG1        0.0225
     20 C           0.1977   -4.2662    0.0526 C.ar    1  LIG1        0.1238
     21 C          -1.1607   -4.4309    0.2961 C.ar    1  LIG1        0.0222
     22 C          -1.9688   -3.3081    0.4901 C.ar    1  LIG1        0.1344
     23 O          -3.2958   -3.4936    0.7507 O.3     1  LIG1       -0.5058
     24 O           0.9495   -5.3889   -0.1256 O.3     1  LIG1       -0.5065
     25 H          -3.2025    1.3373    0.7448 H       1  LIG1        0.2105
     26 H           0.1332    2.2582   -2.2316 H       1  LIG1        0.0659
     27 H           1.0517    4.1309   -3.0920 H       1  LIG1        0.2923
     28 H           2.7339    3.4113    1.8531 H       1  LIG1        0.0655
     29 H           1.3100    1.3892    1.8345 H       1  LIG1        0.0623
     30 H           2.9255    5.4490   -1.0383 H       1  LIG1        0.2923
     31 H           1.8229   -2.8628   -0.1957 H       1  LIG1        0.0691
     32 H          -1.5694   -5.4362    0.3387 H       1  LIG1        0.0691
     33 H          -3.5123   -4.4401    0.7435 H       1  LIG1        0.2922
     34 H           1.8735   -5.1324   -0.2870 H       1  LIG1        0.2921
@<TRIPOS>BOND
     1     1     2    2
     2     2     3    1
     3     3     4   ar
     4     4     5    1
     5     5     6    1
     6     6     7    1
     7     6     8    1
     8     8     9    1
     9     2     8    1
    10     8    10    1
    11     6    11    1
    12    11    12   ar
    13    12    13   ar
    14    13    14    1
    15    13    15   ar
    16    15    16   ar
    17    16    17   ar
    18    11    17   ar
    19    15    18    1
    20     4    19   ar
    21    19    20   ar
    22    20    21   ar
    23    21    22   ar
    24     3    22   ar
    25    22    23    1
    26    20    24    1
    27    10    25    1
    28    12    26    1
    29    14    27    1
    30    16    28    1
    31    17    29    1
    32    18    30    1
    33    19    31    1
    34    21    32    1
    35    23    33    1
    36    24    34    1
