REMARK  Name = NuBBE_1554
REMARK  13 active torsions:
REMARK  status: ('A' for Active; 'I' for Inactive)
REMARK    1  A    between atoms: C_1  and  C_2
REMARK    2  A    between atoms: C_7  and  C_23
REMARK    3  A    between atoms: C_8  and  C_9
REMARK    4  A    between atoms: C_9  and  C_11
REMARK    5  A    between atoms: C_9  and  C_14
REMARK    6  A    between atoms: C_11  and  O_12
REMARK    7  A    between atoms: C_14  and  C_15
REMARK    8  A    between atoms: C_15  and  C_16
REMARK    9  A    between atoms: C_17  and  C_18
REMARK   10  A    between atoms: C_17  and  C_19
REMARK   11  A    between atoms: C_24  and  C_36
REMARK   12  A    between atoms: C_26  and  C_27
REMARK   13  A    between atoms: C_26  and  C_32
REMARK                            x       y       z     vdW  Elec       q    Type
REMARK                         _______ _______ _______ _____ _____    ______ ____
ROOT
ATOM      1  C   LIG A   1      -1.634   0.479  -0.628  0.00  0.00    +0.016 C 
ATOM      2  C   LIG A   1      -0.101   0.242  -0.567  0.00  0.00    -0.005 C 
ATOM      3  C   LIG A   1       0.210  -1.211  -0.985  0.00  0.00    -0.063 C 
ATOM      4  C   LIG A   1       0.974  -2.050  -0.241  0.00  0.00    -0.064 C 
ATOM      5  C   LIG A   1       1.691  -1.571   1.008  0.00  0.00    +0.032 C 
ATOM      6  C   LIG A   1       1.821  -0.059   1.077  0.00  0.00    +0.012 C 
ATOM      7  C   LIG A   1       0.464   0.652   0.847  0.00  0.00    -0.019 C 
ATOM      8  C   LIG A   1       0.771   2.208   0.732  0.00  0.00    +0.009 C 
ATOM      9  C   LIG A   1       0.577   2.560  -0.755  0.00  0.00    +0.006 C 
ATOM     10  C   LIG A   1       0.612   1.236  -1.504  0.00  0.00    +0.012 C 
ATOM     11  C   LIG A   1      -0.486   0.215   1.989  0.00  0.00    +0.012 C 
ATOM     12  C   LIG A   1       1.205  -3.533  -0.624  0.00  0.00    -0.007 C 
ATOM     13  C   LIG A   1       0.088  -4.002  -1.625  0.00  0.00    +0.012 C 
ATOM     14  C   LIG A   1       0.088  -5.512  -2.027  0.00  0.00    +0.027 C 
ATOM     15  C   LIG A   1      -1.276  -5.864  -2.676  0.00  0.00    +0.019 C 
ATOM     16  C   LIG A   1       0.232  -6.373  -0.759  0.00  0.00    +0.139 C 
ATOM     17  C   LIG A   1       1.204  -5.923   0.306  0.00  0.00    +0.076 C 
ATOM     18  C   LIG A   1       1.074  -4.442   0.623  0.00  0.00    +0.019 C 
ATOM     19  O   LIG A   1      -0.322  -7.470  -0.649  0.00  0.00    -0.297 OA
ATOM     20  C   LIG A   1       1.181  -5.924  -3.023  0.00  0.00    +0.019 C 
ATOM     21  C   LIG A   1       0.012  -3.026  -2.805  0.00  0.00    +0.009 C 
ATOM     22  C   LIG A   1      -0.409  -1.648  -2.303  0.00  0.00    +0.031 C 
ATOM     23  C   LIG A   1       2.640  -3.598  -1.197  0.00  0.00    +0.016 C 
ENDROOT
BRANCH   8  24
ATOM     24  C   LIG A   1       0.041   3.171   1.718  0.00  0.00    +0.102 C 
BRANCH  24  25
ATOM     25  C   LIG A   1       0.470   2.802   3.121  0.00  0.00    +0.308 C 
ATOM     26  O   LIG A   1       1.589   2.517   3.492  0.00  0.00    -0.251 OA
BRANCH  25  27
ATOM     27  O   LIG A   1      -0.556   2.797   3.996  0.00  0.00    -0.480 OA
ATOM     28  H   LIG A   1      -0.130   2.539   4.840  0.00  0.00    +0.295 HD
ENDBRANCH  25  27
ENDBRANCH  24  25
BRANCH  24  29
ATOM     29  C   LIG A   1       0.405   4.658   1.485  0.00  0.00    +0.019 C 
BRANCH  29  30
ATOM     30  C   LIG A   1      -0.301   5.689   2.389  0.00  0.00    +0.028 C 
BRANCH  30  31
ATOM     31  C   LIG A   1      -1.786   5.829   2.150  0.00  0.00    -0.028 C 
ATOM     32  C   LIG A   1      -2.385   6.748   1.362  0.00  0.00    -0.080 C 
ATOM     33  C   LIG A   1      -1.641   7.762   0.538  0.00  0.00    +0.038 C 
ATOM     34  C   LIG A   1      -3.881   6.836   1.204  0.00  0.00    +0.038 C 
ENDBRANCH  30  31
ENDBRANCH  29  30
ENDBRANCH  24  29
ENDBRANCH   8  24
TORSDOF 6
