REMARK  Name = NuBBE_1584
REMARK  5 active torsions:
REMARK  status: ('A' for Active; 'I' for Inactive)
REMARK    1  A    between atoms: O_1  and  C_2
REMARK    2  A    between atoms: O_1  and  C_3
REMARK    3  A    between atoms: C_5  and  C_10
REMARK    4  A    between atoms: C_8  and  O_9
REMARK    5  A    between atoms: C_18  and  C_22
REMARK                            x       y       z     vdW  Elec       q    Type
REMARK                         _______ _______ _______ _____ _____    ______ ____
ROOT
ATOM      1  C   LIG A   1      -0.091  -0.755   1.380  0.00  0.00    +0.154 C 
ATOM      2  C   LIG A   1       0.140  -0.504  -0.117  0.00  0.00    +0.056 C 
ATOM      3  C   LIG A   1      -0.324   0.916  -0.330  0.00  0.00    +0.056 C 
ATOM      4  C   LIG A   1      -0.116   1.555   1.020  0.00  0.00    +0.167 C 
ATOM      5  O   LIG A   1      -0.349   0.530   1.989  0.00  0.00    -0.371 OA
ATOM      6  C   LIG A   1      -1.806   0.787  -0.711  0.00  0.00    +0.154 C 
ATOM      7  O   LIG A   1      -2.034  -0.602  -1.026  0.00  0.00    -0.371 OA
ATOM      8  C   LIG A   1      -0.781  -1.292  -1.017  0.00  0.00    +0.167 C 
ENDROOT
BRANCH   6   9
ATOM      9  C   LIG A   1      -2.182   1.696  -1.872  0.00  0.00    -0.015 A 
ATOM     10  C   LIG A   1      -2.034   3.094  -1.740  0.00  0.00    +0.055 A 
ATOM     11  C   LIG A   1      -2.361   3.896  -2.813  0.00  0.00    +0.167 A 
ATOM     12  C   LIG A   1      -2.838   3.380  -3.990  0.00  0.00    +0.166 A 
ATOM     13  C   LIG A   1      -3.023   2.022  -4.157  0.00  0.00    +0.050 A 
ATOM     14  C   LIG A   1      -2.694   1.183  -3.086  0.00  0.00    +0.010 A 
ATOM     15  O   LIG A   1      -3.096   4.339  -4.915  0.00  0.00    -0.453 OA
ATOM     16  C   LIG A   1      -2.727   5.521  -4.188  0.00  0.00    +0.466 C 
ATOM     17  O   LIG A   1      -2.252   5.255  -2.853  0.00  0.00    -0.453 OA
ENDBRANCH   6   9
BRANCH   1  20
ATOM     18  C   LIG A   1       2.255  -3.466   2.765  0.00  0.00    +0.162 A 
ATOM     19  C   LIG A   1       1.177  -2.824   2.132  0.00  0.00    +0.055 A 
ATOM     20  C   LIG A   1       1.091  -1.422   2.065  0.00  0.00    -0.015 A 
ATOM     21  C   LIG A   1       2.120  -0.672   2.652  0.00  0.00    +0.010 A 
ATOM     22  C   LIG A   1       3.189  -1.297   3.298  0.00  0.00    +0.049 A 
ATOM     23  C   LIG A   1       3.255  -2.690   3.358  0.00  0.00    +0.159 A 
BRANCH  18  24
ATOM     24  O   LIG A   1       2.156  -4.833   2.785  0.00  0.00    -0.491 OA
ATOM     25  C   LIG A   1       3.382  -5.555   2.756  0.00  0.00    +0.277 C 
ENDBRANCH  18  24
BRANCH  23  26
ATOM     26  O   LIG A   1       4.296  -3.263   4.033  0.00  0.00    -0.503 OA
ATOM     27  H   LIG A   1       4.827  -2.564   4.450  0.00  0.00    +0.292 HD
ENDBRANCH  23  26
ENDBRANCH   1  20
TORSDOF 4
