@<TRIPOS>MOLECULE
NuBBE_1161
 39 41 0 0 0
SMALL
GASTEIGER

@<TRIPOS>ATOM
      1 C          -2.9021   -1.4934    1.5243 C.3     1  LIG1       -0.0593
      2 C          -1.8232   -0.8134    0.7064 C.3     1  LIG1       -0.0284
      3 C          -2.3954    0.3635   -0.0472 C.3     1  LIG1       -0.0593
      4 C          -0.3390   -0.7512    1.1198 C.3     1  LIG1       -0.0287
      5 H          -0.1678   -1.0373    2.1589 H       1  LIG1        0.0312
      6 C          -0.8147   -1.8297    0.1711 C.3     1  LIG1       -0.0317
      7 H          -0.7545   -2.8231    0.6167 H       1  LIG1        0.0309
      8 C          -0.6878   -1.9526   -1.3100 C.3     1  LIG1       -0.0457
      9 C           0.7300   -1.9124   -1.8719 C.3     1  LIG1       -0.0314
     10 C           1.5822   -0.6769   -1.6341 C.2     1  LIG1       -0.0732
     11 C           2.7955   -0.6624   -2.1865 C.2     1  LIG1       -0.0992
     12 C           0.9640    0.4626   -0.8226 C.3     1  LIG1       -0.0168
     13 H           0.0016    0.6385   -1.3013 H       1  LIG1        0.0348
     14 C           0.8171    0.1173    0.6764 C.3     1  LIG1       -0.0284
     15 H           1.7111   -0.4727    0.9403 H       1  LIG1        0.0312
     16 C           0.9853    1.4402    1.4540 C.3     1  LIG1       -0.0402
     17 H           1.4362    1.2356    2.4339 H       1  LIG1        0.0301
     18 C          -0.2752    2.2584    1.7109 C.3     1  LIG1       -0.0621
     19 C           1.9813    2.2175    0.5918 C.3     1  LIG1       -0.0496
     20 C           1.6591    1.8441   -0.8505 C.3     1  LIG1       -0.0460
     21 H          -2.5932   -2.4691    1.9120 H       1  LIG1        0.0235
     22 H          -3.7744   -1.6720    0.8805 H       1  LIG1        0.0235
     23 H          -3.2198   -0.8673    2.3611 H       1  LIG1        0.0235
     24 H          -1.6604    1.0317   -0.4823 H       1  LIG1        0.0235
     25 H          -2.9832    0.9841    0.6399 H       1  LIG1        0.0235
     26 H          -3.0609    0.0306   -0.8483 H       1  LIG1        0.0235
     27 H          -1.3204   -1.2352   -1.8377 H       1  LIG1        0.0271
     28 H          -1.1039   -2.9373   -1.5694 H       1  LIG1        0.0271
     29 H           0.6211   -2.0250   -2.9614 H       1  LIG1        0.0310
     30 H           1.2780   -2.7938   -1.5187 H       1  LIG1        0.0310
     31 H           3.1503   -1.5004   -2.7832 H       1  LIG1        0.0534
     32 H           3.4969    0.1644   -2.0866 H       1  LIG1        0.0534
     33 H          -0.7350    2.6142    0.7857 H       1  LIG1        0.0233
     34 H          -0.0304    3.1447    2.3086 H       1  LIG1        0.0233
     35 H          -1.0121    1.6846    2.2802 H       1  LIG1        0.0233
     36 H           3.0045    1.9050    0.8309 H       1  LIG1        0.0268
     37 H           1.9264    3.3014    0.7440 H       1  LIG1        0.0268
     38 H           2.5550    1.9077   -1.4724 H       1  LIG1        0.0271
     39 H           0.9575    2.5791   -1.2633 H       1  LIG1        0.0271
@<TRIPOS>BOND
     1     2     4    1
     2     4     6    1
     3     2     6    1
     4     6     8    1
     5     8     9    1
     6     9    10    1
     7    10    12    1
     8    12    14    1
     9     4    14    1
    10    14    16    1
    11    16    19    1
    12    19    20    1
    13    12    20    1
    14     1     2    1
    15     2     3    1
    16     4     5    1
    17     6     7    1
    18    10    11    2
    19    12    13    1
    20    14    15    1
    21    16    17    1
    22    16    18    1
    23     1    21    1
    24     1    22    1
    25     1    23    1
    26     3    24    1
    27     3    25    1
    28     3    26    1
    29     8    27    1
    30     8    28    1
    31     9    29    1
    32     9    30    1
    33    11    31    1
    34    11    32    1
    35    18    33    1
    36    18    34    1
    37    18    35    1
    38    19    36    1
    39    19    37    1
    40    20    38    1
    41    20    39    1
