@<TRIPOS>MOLECULE
NuBBE_1942
 42 43 0 0 0
SMALL
GASTEIGER

@<TRIPOS>ATOM
      1 C           0.7448   -1.1299   -2.0747 C.3     1  LIG1        0.0639
      2 C           1.8423   -2.0965   -2.5614 C.3     1  LIG1       -0.0361
      3 C          -0.5862   -1.5838   -2.6913 C.3     1  LIG1       -0.0361
      4 O           1.0618    0.1543   -2.6157 O.3     1  LIG1       -0.3888
      5 C           0.7931   -1.0383   -0.5170 C.3     1  LIG1       -0.0065
      6 H           1.8634   -0.9132   -0.2853 H       1  LIG1        0.0334
      7 C           0.1009    0.1350    0.2706 C.3     1  LIG1       -0.0175
      8 C           0.0342   -0.4646    1.7228 C.3     1  LIG1       -0.0376
      9 H          -0.7378    0.0144    2.3331 H       1  LIG1        0.0304
     10 C          -0.3574   -1.9227    1.4799 C.3     1  LIG1       -0.0496
     11 C           0.3641   -2.3365    0.2033 C.3     1  LIG1       -0.0468
     12 C           1.3340   -0.3999    2.5353 C.3     1  LIG1       -0.0619
     13 C          -1.3216    0.4770   -0.2402 C.3     1  LIG1       -0.0428
     14 C          -2.0193    1.5687    0.5878 C.3     1  LIG1       -0.0315
     15 C          -1.1017    2.6832    1.0276 C.2     1  LIG1       -0.0765
     16 C           0.2281    2.6241    0.8381 C.2     1  LIG1       -0.0845
     17 C           0.9221    1.4514    0.1994 C.3     1  LIG1       -0.0282
     18 C          -1.7631    3.8609    1.6815 C.3     1  LIG1       -0.0438
     19 H           1.8872   -2.1199   -3.6567 H       1  LIG1        0.0257
     20 H           1.6756   -3.1176   -2.2041 H       1  LIG1        0.0257
     21 H           2.8321   -1.7661   -2.2257 H       1  LIG1        0.0257
     22 H          -0.5102   -1.5996   -3.7861 H       1  LIG1        0.0257
     23 H          -1.4072   -0.8995   -2.4770 H       1  LIG1        0.0257
     24 H          -0.8790   -2.5884   -2.3764 H       1  LIG1        0.0257
     25 H           1.0561    0.0888   -3.5859 H       1  LIG1        0.2101
     26 H          -1.4408   -1.9973    1.3276 H       1  LIG1        0.0268
     27 H          -0.1103   -2.5827    2.3180 H       1  LIG1        0.0268
     28 H          -0.2877   -2.9817   -0.3891 H       1  LIG1        0.0269
     29 H           1.2542   -2.9290    0.4477 H       1  LIG1        0.0269
     30 H           2.1853   -0.8307    2.0001 H       1  LIG1        0.0233
     31 H           1.2227   -0.9511    3.4758 H       1  LIG1        0.0233
     32 H           1.5807    0.6324    2.8016 H       1  LIG1        0.0233
     33 H          -1.9660   -0.4080   -0.2741 H       1  LIG1        0.0274
     34 H          -1.2490    0.8561   -1.2671 H       1  LIG1        0.0274
     35 H          -2.4821    1.1198    1.4747 H       1  LIG1        0.0310
     36 H          -2.8380    1.9843   -0.0127 H       1  LIG1        0.0310
     37 H           0.8630    3.4542    1.1382 H       1  LIG1        0.0572
     38 H           1.9063    1.3224    0.6620 H       1  LIG1        0.0313
     39 H           1.1231    1.7347   -0.8384 H       1  LIG1        0.0313
     40 H          -2.4759    4.3270    0.9936 H       1  LIG1        0.0274
     41 H          -1.0392    4.6259    1.9812 H       1  LIG1        0.0274
     42 H          -2.3026    3.5422    2.5792 H       1  LIG1        0.0274
@<TRIPOS>BOND
     1     1     2    1
     2     1     3    1
     3     1     4    1
     4     5     7    1
     5     7     8    1
     6     8    10    1
     7    10    11    1
     8     5    11    1
     9     7    13    1
    10    13    14    1
    11    14    15    1
    12    15    16    2
    13    16    17    1
    14     7    17    1
    15    15    18    1
    16     8    12    1
    17     8     9    1
    18     5     6    1
    19     5     1    1
    20     2    19    1
    21     2    20    1
    22     2    21    1
    23     3    22    1
    24     3    23    1
    25     3    24    1
    26     4    25    1
    27    10    26    1
    28    10    27    1
    29    11    28    1
    30    11    29    1
    31    12    30    1
    32    12    31    1
    33    12    32    1
    34    13    33    1
    35    13    34    1
    36    14    35    1
    37    14    36    1
    38    16    37    1
    39    17    38    1
    40    17    39    1
    41    18    40    1
    42    18    41    1
    43    18    42    1
