@<TRIPOS>MOLECULE
NuBBE_614
 43 45 0 0 0
SMALL
GASTEIGER

@<TRIPOS>ATOM
      1 O          -2.5388    3.4464    0.1545 O.3     1  LIG1       -0.3922
      2 C          -2.9443    2.2286   -0.4596 C.3     1  LIG1        0.0732
      3 C          -1.7682    1.2434   -0.6445 C.3     1  LIG1        0.0921
      4 O          -2.3501    0.1018   -1.2855 O.3     1  LIG1       -0.3860
      5 C          -1.1207    0.9046    0.7111 C.3     1  LIG1       -0.0058
      6 C          -1.7932    0.0404    1.7975 C.3     1  LIG1       -0.0462
      7 C          -0.6230   -0.8064    2.4204 C.3     1  LIG1       -0.0366
      8 H          -0.8893    1.8658    1.1946 H       1  LIG1        0.0332
      9 C           0.1924    0.1962    0.5264 C.3     1  LIG1       -0.0164
     10 C           0.1823   -1.1740    1.1778 C.3     1  LIG1        0.0715
     11 C          -0.5793   -2.3157    0.5009 C.2     1  LIG1        0.3112
     12 O          -0.3437   -3.5059    1.0862 O.3     1  LIG1       -0.4802
     13 O          -1.3912   -2.2233   -0.4074 O.2     1  LIG1       -0.2504
     14 C           1.6981   -1.4317    1.0576 C.3     1  LIG1       -0.0315
     15 C           2.0988   -0.7823   -0.3659 C.3     1  LIG1       -0.0307
     16 C           2.4645   -1.8827   -1.3709 C.3     1  LIG1       -0.0595
     17 C           3.3062    0.1523   -0.2032 C.3     1  LIG1       -0.0595
     18 C           0.7981   -0.0371   -0.8233 C.3     1  LIG1       -0.0316
     19 H           0.2052   -0.7290   -1.4301 H       1  LIG1        0.0309
     20 C           0.7612    1.2865   -1.5594 C.3     1  LIG1       -0.0468
     21 C          -0.6922    1.8608   -1.6194 C.3     1  LIG1       -0.0213
     22 H          -3.3206    4.0248    0.1671 H       1  LIG1        0.2095
     23 H          -3.4017    2.4579   -1.4296 H       1  LIG1        0.0586
     24 H          -3.7248    1.7702    0.1590 H       1  LIG1        0.0586
     25 H          -1.9544   -0.7282   -0.9503 H       1  LIG1        0.2103
     26 H          -2.5606   -0.6142    1.3704 H       1  LIG1        0.0269
     27 H          -2.2751    0.6566    2.5631 H       1  LIG1        0.0269
     28 H          -1.0157   -1.6681    2.9694 H       1  LIG1        0.0276
     29 H          -0.0379   -0.1929    3.1151 H       1  LIG1        0.0276
     30 H           0.8925    0.8422    1.0895 H       1  LIG1        0.0318
     31 H          -0.9283   -4.1357    0.6120 H       1  LIG1        0.2951
     32 H           1.9691   -2.4911    1.0994 H       1  LIG1        0.0281
     33 H           2.2342   -0.9271    1.8722 H       1  LIG1        0.0281
     34 H           2.6750   -1.4574   -2.3583 H       1  LIG1        0.0235
     35 H           1.6521   -2.6079   -1.4854 H       1  LIG1        0.0235
     36 H           3.3535   -2.4333   -1.0439 H       1  LIG1        0.0235
     37 H           4.1761   -0.3960    0.1752 H       1  LIG1        0.0235
     38 H           3.1016    0.9659    0.5003 H       1  LIG1        0.0235
     39 H           3.5883    0.6035   -1.1609 H       1  LIG1        0.0235
     40 H           1.1587    1.1769   -2.5749 H       1  LIG1        0.0269
     41 H           1.4002    2.0234   -1.0569 H       1  LIG1        0.0269
     42 H          -1.0520    1.7521   -2.6511 H       1  LIG1        0.0294
     43 H          -0.6032    2.9398   -1.4395 H       1  LIG1        0.0294
@<TRIPOS>BOND
     1     1     2    1
     2     3     5    1
     3     5     6    1
     4     6     7    1
     5     5     8    1
     6     5     9    1
     7     9    10    1
     8     7    10    1
     9    10    11    1
    10    11    12    1
    11    11    13    2
    12    10    14    1
    13    14    15    1
    14    15    16    1
    15    15    17    1
    16    15    18    1
    17    18    19    1
    18     9    18    1
    19    18    20    1
    20    20    21    1
    21     3    21    1
    22     3     4    1
    23     3     2    1
    24     1    22    1
    25     2    23    1
    26     2    24    1
    27     4    25    1
    28     6    26    1
    29     6    27    1
    30     7    28    1
    31     7    29    1
    32     9    30    1
    33    12    31    1
    34    14    32    1
    35    14    33    1
    36    16    34    1
    37    16    35    1
    38    16    36    1
    39    17    37    1
    40    17    38    1
    41    17    39    1
    42    20    40    1
    43    20    41    1
    44    21    42    1
    45    21    43    1
