REMARK  Name = NuBBE_1887
REMARK  16 active torsions:
REMARK  status: ('A' for Active; 'I' for Inactive)
REMARK    1  A    between atoms: C_4  and  O_32
REMARK    2  A    between atoms: C_6  and  O_30
REMARK    3  A    between atoms: C_10  and  C_11
REMARK    4  A    between atoms: C_14  and  O_25
REMARK    5  A    between atoms: C_15  and  O_16
REMARK    6  A    between atoms: O_16  and  C_17
REMARK    7  A    between atoms: C_17  and  C_18
REMARK    8  A    between atoms: C_20  and  O_21
REMARK    9  A    between atoms: O_21  and  C_22
REMARK   10  A    between atoms: C_22  and  C_23
REMARK   11  A    between atoms: O_25  and  C_26
REMARK   12  A    between atoms: C_27  and  O_28
REMARK   13  A    between atoms: O_28  and  C_29
REMARK   14  A    between atoms: O_30  and  C_31
REMARK   15  A    between atoms: O_32  and  C_33
REMARK   16  A    between atoms: C_33  and  C_34
REMARK                            x       y       z     vdW  Elec       q    Type
REMARK                         _______ _______ _______ _____ _____    ______ ____
ROOT
ATOM      1  O   LIG A   1       1.932  -1.464  -2.434  0.00  0.00    -0.283 OA
ATOM      2  C   LIG A   1       1.247  -1.437  -1.388  0.00  0.00    +0.238 A 
ATOM      3  C   LIG A   1       0.897  -2.615  -0.660  0.00  0.00    +0.110 A 
ATOM      4  C   LIG A   1       0.337  -3.717  -1.288  0.00  0.00    +0.149 A 
ATOM      5  C   LIG A   1      -0.163  -4.723  -0.494  0.00  0.00    +0.092 A 
ATOM      6  C   LIG A   1      -0.025  -4.700   0.895  0.00  0.00    +0.127 A 
ATOM      7  C   LIG A   1       0.479  -3.551   1.523  0.00  0.00    +0.092 A 
ATOM      8  C   LIG A   1       0.898  -2.483   0.730  0.00  0.00    +0.147 A 
ATOM      9  O   LIG A   1       1.229  -1.253   1.276  0.00  0.00    -0.451 OA
ATOM     10  C   LIG A   1       0.796  -0.117   0.523  0.00  0.00    +0.184 A 
ATOM     11  C   LIG A   1       0.618  -0.238  -0.823  0.00  0.00    +0.211 A 
ENDROOT
BRANCH  10  12
ATOM     12  C   LIG A   1       0.447   1.080   1.358  0.00  0.00    +0.067 A 
ATOM     13  C   LIG A   1       0.420   0.889   2.760  0.00  0.00    +0.019 A 
ATOM     14  C   LIG A   1      -0.056   1.858   3.654  0.00  0.00    +0.050 A 
ATOM     15  C   LIG A   1      -0.499   3.088   3.191  0.00  0.00    +0.166 A 
ATOM     16  C   LIG A   1      -0.390   3.369   1.815  0.00  0.00    +0.216 A 
ATOM     17  C   LIG A   1       0.126   2.382   0.901  0.00  0.00    +0.188 A 
BRANCH  15  18
ATOM     18  O   LIG A   1      -1.064   4.036   4.024  0.00  0.00    -0.491 OA
ATOM     19  C   LIG A   1      -0.767   3.908   5.422  0.00  0.00    +0.277 C 
ENDBRANCH  15  18
BRANCH  16  20
ATOM     20  O   LIG A   1      -0.827   4.669   1.399  0.00  0.00    -0.418 OA
BRANCH  20  21
ATOM     21  C   LIG A   1      -0.033   5.487   0.501  0.00  0.00    +0.309 C 
ATOM     22  C   LIG A   1      -0.723   6.811   0.401  0.00  0.00    +0.136 C 
ATOM     23  O   LIG A   1       0.893   5.163  -0.204  0.00  0.00    -0.251 OA
ENDBRANCH  20  21
ENDBRANCH  16  20
BRANCH  17  24
ATOM     24  O   LIG A   1       0.222   2.786  -0.469  0.00  0.00    -0.421 OA
BRANCH  24  25
ATOM     25  C   LIG A   1       1.391   2.695  -1.266  0.00  0.00    +0.309 C 
ATOM     26  C   LIG A   1       1.246   3.563  -2.500  0.00  0.00    +0.136 C 
ATOM     27  O   LIG A   1       2.393   2.030  -1.016  0.00  0.00    -0.251 OA
ENDBRANCH  24  25
ENDBRANCH  17  24
ENDBRANCH  10  12
BRANCH  11  28
ATOM     28  O   LIG A   1      -0.191   0.571  -1.586  0.00  0.00    -0.488 OA
ATOM     29  C   LIG A   1      -0.146   0.345  -2.992  0.00  0.00    +0.277 C 
ENDBRANCH  11  28
BRANCH   6  30
ATOM     30  O   LIG A   1      -0.410  -5.761   1.675  0.00  0.00    -0.495 OA
ATOM     31  C   LIG A   1      -0.759  -6.943   0.935  0.00  0.00    +0.277 C 
ENDBRANCH   6  30
BRANCH   4  32
ATOM     32  O   LIG A   1       0.063  -3.666  -2.670  0.00  0.00    -0.425 OA
BRANCH  32  33
ATOM     33  C   LIG A   1      -0.347  -4.821  -3.337  0.00  0.00    +0.309 C 
ATOM     34  C   LIG A   1      -1.239  -4.438  -4.473  0.00  0.00    +0.136 C 
ATOM     35  O   LIG A   1      -0.085  -5.979  -3.040  0.00  0.00    -0.251 OA
ENDBRANCH  32  33
ENDBRANCH   4  32
TORSDOF 10
