@<TRIPOS>MOLECULE
NuBBE_1575
 69 72 0 0 0
SMALL
GASTEIGER

@<TRIPOS>ATOM
      1 C          -1.6518    0.5769    1.6419 C.3     1  LIG1       -0.0589
      2 C          -0.2443    0.8823    1.0660 C.3     1  LIG1       -0.0212
      3 C           0.6280   -0.4312    0.8909 C.3     1  LIG1        0.0208
      4 C          -0.0040   -1.3574   -0.2065 C.3     1  LIG1        0.1444
      5 O           0.8115   -2.5389   -0.3786 O.3     1  LIG1       -0.4575
      6 C           0.1568   -3.7377   -0.3819 C.2     1  LIG1        0.3043
      7 O          -1.0525   -3.8839   -0.4613 O.2     1  LIG1       -0.2512
      8 C           1.1137   -4.8828   -0.2014 C.3     1  LIG1        0.0332
      9 C          -0.1163   -0.5914   -1.5674 C.3     1  LIG1        0.1460
     10 C          -1.0311    0.6659   -1.4085 C.3     1  LIG1        0.0358
     11 C          -0.3807    1.6074   -0.3434 C.3     1  LIG1       -0.0197
     12 C          -1.1004    2.9742   -0.2624 C.3     1  LIG1        0.0212
     13 C          -1.1405    3.6642   -1.6153 C.3     1  LIG1        0.2396
     14 C          -1.8745    2.8064   -2.5650 C.2     1  LIG1        0.0390
     15 C          -2.9104    3.4888   -3.0609 C.2     1  LIG1        0.0307
     16 C          -2.9033    4.8092   -2.4279 C.2     1  LIG1        0.3348
     17 O          -3.7227    5.6835   -2.6322 O.2     1  LIG1       -0.2455
     18 O          -1.8864    4.8683   -1.5325 O.3     1  LIG1       -0.4254
     19 C          -1.4432    1.3740   -2.7656 C.3     1  LIG1        0.0973
     20 C          -2.5781    0.5668   -3.4330 C.3     1  LIG1       -0.0316
     21 O          -0.3487    1.4272   -3.6700 O.3     1  LIG1       -0.3839
     22 O           0.1525    3.9562   -2.0950 O.3     1  LIG1       -0.3518
     23 O           1.2331   -0.1760   -1.9251 O.3     1  LIG1       -0.4574
     24 C           1.7696   -0.6424   -3.0812 C.2     1  LIG1        0.3043
     25 O           1.1624   -1.2985   -3.9139 O.2     1  LIG1       -0.2512
     26 C           3.2049   -0.2310   -3.2195 C.3     1  LIG1        0.0332
     27 C           1.1340   -1.0924    2.2422 C.3     1  LIG1        0.0717
     28 C           0.0774   -1.8892    3.0377 C.2     1  LIG1        0.3132
     29 O          -1.0507   -2.1512    2.6810 O.2     1  LIG1       -0.2502
     30 O           0.6607   -2.3428    4.1904 O.3     1  LIG1       -0.4675
     31 C           0.0409   -3.4066    4.9085 C.3     1  LIG1        0.0817
     32 C           2.3112   -2.0810    2.0019 C.3     1  LIG1       -0.0490
     33 C           1.7615    0.0052    3.1467 C.3     1  LIG1       -0.0371
     34 C           0.9061    1.2349    3.3510 C.3     1  LIG1       -0.0515
     35 C           0.4851    1.8511    2.0307 C.3     1  LIG1       -0.0469
     36 H          -2.3115    1.4467    1.5974 H       1  LIG1        0.0235
     37 H          -1.6180    0.2931    2.6949 H       1  LIG1        0.0235
     38 H          -2.1661   -0.2260    1.1082 H       1  LIG1        0.0235
     39 H           1.5750   -0.0828    0.4474 H       1  LIG1        0.0354
     40 H          -1.0110   -1.6535    0.0968 H       1  LIG1        0.0775
     41 H           0.8401   -5.4374    0.7020 H       1  LIG1        0.0342
     42 H           2.1420   -4.5313   -0.0788 H       1  LIG1        0.0342
     43 H           1.0714   -5.5355   -1.0749 H       1  LIG1        0.0342
     44 H          -0.5230   -1.2680   -2.3257 H       1  LIG1        0.0775
     45 H          -1.9812    0.3181   -0.9864 H       1  LIG1        0.0372
     46 H           0.6410    1.8349   -0.6804 H       1  LIG1        0.0313
     47 H          -0.5844    3.6406    0.4360 H       1  LIG1        0.0335
     48 H          -2.1231    2.8656    0.1168 H       1  LIG1        0.0335
     49 H          -3.6706    3.1963   -3.7604 H       1  LIG1        0.0691
     50 H          -3.4848    0.5630   -2.8137 H       1  LIG1        0.0261
     51 H          -2.2845   -0.4718   -3.6072 H       1  LIG1        0.0261
     52 H          -2.8407    0.9755   -4.4172 H       1  LIG1        0.0261
     53 H          -0.2554    0.5610   -4.1058 H       1  LIG1        0.2106
     54 H           0.6122    4.4180   -1.3772 H       1  LIG1        0.2142
     55 H           3.5192    0.4042   -2.3854 H       1  LIG1        0.0342
     56 H           3.3405    0.3328   -4.1468 H       1  LIG1        0.0342
     57 H           3.8296   -1.1272   -3.2255 H       1  LIG1        0.0342
     58 H          -0.5217   -3.0064    5.7547 H       1  LIG1        0.0661
     59 H           0.8561   -4.0245    5.3026 H       1  LIG1        0.0661
     60 H          -0.5861   -4.0365    4.2743 H       1  LIG1        0.0661
     61 H           1.9852   -3.0402    1.6056 H       1  LIG1        0.0240
     62 H           2.8172   -2.3279    2.9454 H       1  LIG1        0.0240
     63 H           3.0717   -1.6539    1.3409 H       1  LIG1        0.0240
     64 H           2.7160    0.3250    2.7053 H       1  LIG1        0.0276
     65 H           2.0179   -0.3941    4.1357 H       1  LIG1        0.0276
     66 H           1.4921    1.9750    3.9095 H       1  LIG1        0.0266
     67 H           0.0362    1.0010    3.9719 H       1  LIG1        0.0266
     68 H           1.3804    2.2474    1.5328 H       1  LIG1        0.0271
     69 H          -0.1511    2.7105    2.2668 H       1  LIG1        0.0271
@<TRIPOS>BOND
     1     1     2    1
     2     2     3    1
     3     3     4    1
     4     4     5    1
     5     5     6    1
     6     6     7    2
     7     6     8    1
     8     4     9    1
     9     9    10    1
    10    10    11    1
    11     2    11    1
    12    11    12    1
    13    12    13    1
    14    13    14    1
    15    14    15    2
    16    15    16    1
    17    16    17    2
    18    16    18    1
    19    13    18    1
    20    14    19    1
    21    10    19    1
    22    19    20    1
    23    19    21    1
    24    13    22    1
    25     9    23    1
    26    23    24    1
    27    24    25    2
    28    24    26    1
    29     3    27    1
    30    27    28    1
    31    28    29    2
    32    28    30    1
    33    30    31    1
    34    27    32    1
    35    27    33    1
    36    33    34    1
    37    34    35    1
    38     2    35    1
    39     1    36    1
    40     1    37    1
    41     1    38    1
    42     3    39    1
    43     4    40    1
    44     8    41    1
    45     8    42    1
    46     8    43    1
    47     9    44    1
    48    10    45    1
    49    11    46    1
    50    12    47    1
    51    12    48    1
    52    15    49    1
    53    20    50    1
    54    20    51    1
    55    20    52    1
    56    21    53    1
    57    22    54    1
    58    26    55    1
    59    26    56    1
    60    26    57    1
    61    31    58    1
    62    31    59    1
    63    31    60    1
    64    32    61    1
    65    32    62    1
    66    32    63    1
    67    33    64    1
    68    33    65    1
    69    34    66    1
    70    34    67    1
    71    35    68    1
    72    35    69    1
