@<TRIPOS>MOLECULE
NuBBE_2230
 53 56 0 0 0
SMALL
GASTEIGER

@<TRIPOS>ATOM
      1 O           1.3447   -3.1420    1.0967 O.3     1  LIG1       -0.3915
      2 C           0.2394   -2.3001    0.8519 C.3     1  LIG1        0.0596
      3 H          -0.0458   -2.0901    1.8767 H       1  LIG1        0.0596
      4 C           0.2866   -0.8490    0.1430 C.3     1  LIG1       -0.0033
      5 H           0.5435   -1.0570   -0.9008 H       1  LIG1        0.0336
      6 C          -1.4081   -0.4362    0.2672 C.3     1  LIG1       -0.0193
      7 C          -1.9319   -0.6593    1.7342 C.3     1  LIG1       -0.0257
      8 C          -1.9018    0.9497   -0.1198 C.3     1  LIG1       -0.0464
      9 C          -0.9167    1.9216    0.3489 C.3     1  LIG1       -0.0487
     10 C           0.4663    1.5331   -0.1194 C.3     1  LIG1       -0.0301
     11 H           0.8478    2.4356    0.3704 H       1  LIG1        0.0311
     12 C           0.8833    1.4825   -1.7853 C.3     1  LIG1       -0.0315
     13 C           2.2299    0.8831   -2.4831 C.3     1  LIG1       -0.0595
     14 C          -0.0855    0.7582   -2.7371 C.3     1  LIG1       -0.0595
     15 C           1.2826    2.9365   -1.8080 C.3     1  LIG1       -0.0476
     16 C           2.4952    2.8921   -0.7358 C.3     1  LIG1       -0.0521
     17 C           2.6972    1.3104    0.0918 C.3     1  LIG1       -0.0470
     18 C           1.2625    0.4813    0.6005 C.3     1  LIG1       -0.0231
     19 C           1.4010    0.4940    2.1344 C.3     1  LIG1       -0.0589
     20 C          -0.8383   -3.2149    0.1450 C.3     1  LIG1       -0.0200
     21 C          -2.2455   -2.6522    0.3557 C.3     1  LIG1       -0.0173
     22 H          -3.0483   -3.3506    0.0911 H       1  LIG1        0.0346
     23 C          -2.2981   -1.4113   -0.5158 C.3     1  LIG1       -0.0401
     24 C          -2.3538   -2.0777    1.7292 C.2     1  LIG1       -0.0729
     25 C          -2.5474   -2.7787    2.9178 C.2     1  LIG1       -0.0992
     26 H           0.9562   -3.8202    1.7038 H       1  LIG1        0.2098
     27 H          -2.7847   -0.0190    1.9853 H       1  LIG1        0.0315
     28 H          -1.1624   -0.4522    2.4799 H       1  LIG1        0.0315
     29 H          -2.8757    1.1750    0.3304 H       1  LIG1        0.0271
     30 H          -2.1220    1.1003   -1.1675 H       1  LIG1        0.0271
     31 H          -0.9392    1.9640    1.4489 H       1  LIG1        0.0268
     32 H          -1.1854    2.9296    0.0180 H       1  LIG1        0.0268
     33 H           3.1555    1.4619   -2.3661 H       1  LIG1        0.0235
     34 H           2.1233    0.9422   -3.5798 H       1  LIG1        0.0235
     35 H           2.4376   -0.1555   -2.2221 H       1  LIG1        0.0235
     36 H          -1.0916    0.5587   -2.4318 H       1  LIG1        0.0235
     37 H           0.2837   -0.2743   -2.8997 H       1  LIG1        0.0235
     38 H          -0.1191    1.2129   -3.7287 H       1  LIG1        0.0235
     39 H           0.4588    3.5876   -1.4769 H       1  LIG1        0.0271
     40 H           1.5842    3.3131   -2.7899 H       1  LIG1        0.0271
     41 H           2.3093    3.6715    0.0221 H       1  LIG1        0.0266
     42 H           3.4317    3.1881   -1.2194 H       1  LIG1        0.0266
     43 H           3.2769    1.6283    0.9698 H       1  LIG1        0.0271
     44 H           3.3857    0.6559   -0.4454 H       1  LIG1        0.0271
     45 H           2.0406    1.3061    2.5005 H       1  LIG1        0.0235
     46 H           1.8787   -0.4341    2.4737 H       1  LIG1        0.0235
     47 H           0.4634    0.6247    2.6632 H       1  LIG1        0.0235
     48 H          -0.6168   -3.2785   -0.9334 H       1  LIG1        0.0296
     49 H          -0.8154   -4.2567    0.4876 H       1  LIG1        0.0296
     50 H          -3.3297   -1.0431   -0.5928 H       1  LIG1        0.0277
     51 H          -1.9396   -1.5711   -1.5403 H       1  LIG1        0.0277
     52 H          -2.7323   -3.8217    2.9186 H       1  LIG1        0.0534
     53 H          -2.4304   -2.2524    3.8430 H       1  LIG1        0.0534
@<TRIPOS>BOND
     1     2     4    1
     2     4     6    1
     3     6     7    1
     4     6     8    1
     5     8     9    1
     6     9    10    1
     7    10    12    1
     8    12    15    1
     9    15    16    1
    10    16    17    1
    11    17    18    1
    12    10    18    1
    13     4    18    1
    14     2    20    1
    15    20    21    1
    16    21    23    1
    17     6    23    1
    18    21    24    1
    19     7    24    1
    20     4     5    1
    21    10    11    1
    22    12    13    1
    23    12    14    1
    24    18    19    1
    25    21    22    1
    26    24    25    2
    27     2     3    1
    28     2     1    1
    29     1    26    1
    30     7    27    1
    31     7    28    1
    32     8    29    1
    33     8    30    1
    34     9    31    1
    35     9    32    1
    36    13    33    1
    37    13    34    1
    38    13    35    1
    39    14    36    1
    40    14    37    1
    41    14    38    1
    42    15    39    1
    43    15    40    1
    44    16    41    1
    45    16    42    1
    46    17    43    1
    47    17    44    1
    48    19    45    1
    49    19    46    1
    50    19    47    1
    51    20    48    1
    52    20    49    1
    53    23    50    1
    54    23    51    1
    55    25    52    1
    56    25    53    1
