@<TRIPOS>MOLECULE
NuBBE_1708
 25 27 0 0 0
SMALL
GASTEIGER

@<TRIPOS>ATOM
      1 O          -2.6324   -0.0172   -0.0020 O.2     1  LIG1       -0.2863
      2 C          -1.4065   -0.0246   -0.0012 C.ar    1  LIG1        0.2038
      3 C          -0.6513    1.2340   -0.0007 C.ar    1  LIG1        0.1058
      4 C          -1.2977    2.4742   -0.0007 C.ar    1  LIG1        0.1312
      5 O          -2.6598    2.6039   -0.0016 O.3     1  LIG1       -0.5059
      6 C          -0.5536    3.6501    0.0002 C.ar    1  LIG1       -0.0192
      7 C           0.8408    3.5889    0.0011 C.ar    1  LIG1       -0.0548
      8 C           1.4883    2.3505    0.0010 C.ar    1  LIG1       -0.0184
      9 C           0.7416    1.1694    0.0001 C.ar    1  LIG1        0.1430
     10 O           1.4558   -0.0054    0.0001 O.2     1  LIG1       -0.4508
     11 C           0.7576   -1.1894   -0.0001 C.ar    1  LIG1        0.1804
     12 C           1.5005   -2.3711    0.0004 C.ar    1  LIG1        0.1598
     13 O           2.8674   -2.3531    0.0008 O.3     1  LIG1       -0.5033
     14 C           0.8715   -3.6135    0.0005 C.ar    1  LIG1       -0.0165
     15 C          -0.5224   -3.6845    0.0001 C.ar    1  LIG1       -0.0574
     16 C          -1.2791   -2.5120   -0.0004 C.ar    1  LIG1       -0.0471
     17 C          -0.6323   -1.2712   -0.0006 C.ar    1  LIG1        0.0683
     18 H          -3.0491    1.6996   -0.0022 H       1  LIG1        0.2922
     19 H          -1.0609    4.6117    0.0003 H       1  LIG1        0.0654
     20 H           1.4216    4.5085    0.0020 H       1  LIG1        0.0620
     21 H           2.5748    2.3125    0.0017 H       1  LIG1        0.0654
     22 H           3.1436   -1.4187    0.0007 H       1  LIG1        0.2923
     23 H           1.4657   -4.5237    0.0009 H       1  LIG1        0.0655
     24 H          -1.0180   -4.6525    0.0003 H       1  LIG1        0.0619
     25 H          -2.3659   -2.5664   -0.0007 H       1  LIG1        0.0626
@<TRIPOS>BOND
     1     1     2    2
     2     2     3   ar
     3     3     4   ar
     4     4     5    1
     5     4     6   ar
     6     6     7   ar
     7     7     8   ar
     8     8     9   ar
     9     3     9   ar
    10     9    10   ar
    11    10    11   ar
    12    11    12   ar
    13    12    13    1
    14    12    14   ar
    15    14    15   ar
    16    15    16   ar
    17    16    17   ar
    18    11    17   ar
    19     2    17   ar
    20     5    18    1
    21     6    19    1
    22     7    20    1
    23     8    21    1
    24    13    22    1
    25    14    23    1
    26    15    24    1
    27    16    25    1
