@<TRIPOS>MOLECULE
NuBBE_1669
 44 48 0 0 0
SMALL
GASTEIGER

@<TRIPOS>ATOM
      1 C          -2.7764    1.7052   -0.0420 C.3     1  LIG1       -0.0650
      2 C          -1.8883    1.5870   -1.2727 C.3     1  LIG1       -0.0514
      3 C          -0.7713    0.5578   -1.0820 C.3     1  LIG1       -0.0218
      4 C           0.2240    0.4472   -2.2391 C.3     1  LIG1       -0.0339
      5 C           1.1391    1.7715   -2.2575 C.3     1  LIG1       -0.0370
      6 C           1.0946    2.7401   -0.9570 C.3     1  LIG1       -0.0005
      7 N           0.7464    2.1165    0.3802 N.3     1  LIG1       -0.2982
      8 C           1.9484    1.7570    1.1987 C.3     1  LIG1        0.0001
      9 C           1.7073    0.3222    1.7732 C.3     1  LIG1       -0.0273
     10 C           1.0278   -0.9251   -1.9283 C.3     1  LIG1       -0.0305
     11 C           0.2175    0.7933    0.0585 C.3     1  LIG1        0.0249
     12 C           0.7712   -0.3981    0.7784 C.3     1  LIG1        0.0327
     13 C           1.4572   -1.2837   -0.3893 C.3     1  LIG1        0.0320
     14 N           1.1398   -2.6945   -0.0857 N.pl3   1  LIG1       -0.3398
     15 C           0.0479   -2.6389    0.8086 C.ar    1  LIG1        0.0312
     16 C          -0.6957   -3.7309    1.2204 C.ar    1  LIG1       -0.0406
     17 C          -1.7139   -3.5359    2.1581 C.ar    1  LIG1       -0.0600
     18 C          -1.9625   -2.2607    2.6863 C.ar    1  LIG1       -0.0614
     19 C          -1.1893   -1.1686    2.2913 C.ar    1  LIG1       -0.0562
     20 C          -0.1800   -1.3777    1.3634 C.ar    1  LIG1       -0.0171
     21 H          -3.6002    2.3990   -0.2377 H       1  LIG1        0.0230
     22 H          -2.2185    2.0824    0.8201 H       1  LIG1        0.0230
     23 H          -3.2087    0.7354    0.2246 H       1  LIG1        0.0230
     24 H          -1.5129    2.5765   -1.5393 H       1  LIG1        0.0266
     25 H          -2.5097    1.2703   -2.1201 H       1  LIG1        0.0266
     26 H          -1.2783   -0.4078   -0.9553 H       1  LIG1        0.0319
     27 H          -0.2694    0.3395   -3.2115 H       1  LIG1        0.0305
     28 H           0.8353    2.3797   -3.1185 H       1  LIG1        0.0280
     29 H           2.1804    1.4734   -2.4318 H       1  LIG1        0.0280
     30 H           0.3377    3.5092   -1.1477 H       1  LIG1        0.0427
     31 H           2.0411    3.2913   -0.8920 H       1  LIG1        0.0427
     32 H           2.0963    2.4851    2.0021 H       1  LIG1        0.0427
     33 H           2.8591    1.7355    0.5859 H       1  LIG1        0.0427
     34 H           1.2244    0.4238    2.7532 H       1  LIG1        0.0287
     35 H           2.6512   -0.2126    1.9200 H       1  LIG1        0.0287
     36 H           0.3889   -1.7396   -2.2959 H       1  LIG1        0.0286
     37 H           1.9321   -0.9503   -2.5486 H       1  LIG1        0.0286
     38 H           1.1377    0.7016   -0.4970 H       1  LIG1        0.0475
     39 H           2.5472   -1.1623   -0.3334 H       1  LIG1        0.0507
     40 H           0.9593   -3.3037   -0.8781 H       1  LIG1        0.1464
     41 H          -0.4923   -4.7218    0.8294 H       1  LIG1        0.0636
     42 H          -2.3125   -4.3814    2.4873 H       1  LIG1        0.0618
     43 H          -2.7570   -2.1249    3.4160 H       1  LIG1        0.0618
     44 H          -1.3749   -0.1820    2.7049 H       1  LIG1        0.0621
@<TRIPOS>BOND
     1     1     2    1
     2     2     3    1
     3     3     4    1
     4     4     5    1
     5     5     6    1
     6     6     7    1
     7     7     8    1
     8     8     9    1
     9     4    10    1
    10     3    11    1
    11     7    11    1
    12    11    12    1
    13     9    12    1
    14    12    13    1
    15    10    13    1
    16    13    14    1
    17    14    15    1
    18    15    16   ar
    19    16    17   ar
    20    17    18   ar
    21    18    19   ar
    22    19    20   ar
    23    12    20    1
    24    15    20   ar
    25     1    21    1
    26     1    22    1
    27     1    23    1
    28     2    24    1
    29     2    25    1
    30     3    26    1
    31     4    27    1
    32     5    28    1
    33     5    29    1
    34     6    30    1
    35     6    31    1
    36     8    32    1
    37     8    33    1
    38     9    34    1
    39     9    35    1
    40    10    36    1
    41    10    37    1
    42    11    38    1
    43    13    39    1
    44    14    40    1
    45    16    41    1
    46    17    42    1
    47    18    43    1
    48    19    44    1
