@<TRIPOS>MOLECULE
NuBBE_1487
 80 84 0 0 0
SMALL
GASTEIGER

@<TRIPOS>ATOM
      1 C          -2.9082    1.0993   -1.1735 C.3     1  LIG1       -0.0524
      2 C          -1.4528    0.8376   -1.7456 C.3     1  LIG1        0.0508
      3 C          -1.0703   -0.6525   -1.5884 C.3     1  LIG1        0.1265
      4 C          -0.2982   -1.1606   -0.4103 C.2     1  LIG1       -0.0346
      5 C           0.2346   -0.1704    0.6417 C.3     1  LIG1        0.0324
      6 C          -0.4826   -0.0782    2.0660 C.3     1  LIG1        0.0006
      7 C           0.2227    1.0426    2.8729 C.3     1  LIG1       -0.0551
      8 C          -0.4470   -1.4251    2.9514 C.3     1  LIG1       -0.0093
      9 C          -1.6157   -2.4853    2.6127 C.3     1  LIG1        0.0315
     10 C          -1.2369   -3.7003    1.7369 C.3     1  LIG1       -0.0525
     11 C          -2.8387   -1.8344    1.9474 C.2     1  LIG1        0.1617
     12 C          -2.9838   -0.3753    1.9817 C.2     1  LIG1       -0.0220
     13 C          -1.9051    0.4069    2.0048 C.2     1  LIG1       -0.0738
     14 O          -3.7555   -2.4832    1.4428 O.2     1  LIG1       -0.2921
     15 C          -2.1864   -3.0515    3.9415 C.3     1  LIG1       -0.0525
     16 C           0.9750   -2.0501    3.1680 C.3     1  LIG1        0.0494
     17 C           1.9949   -1.2991    4.0508 C.2     1  LIG1        0.3071
     18 O           2.9975   -2.1477    4.4268 O.3     1  LIG1       -0.4679
     19 C           4.1538   -1.4335    4.8828 C.3     1  LIG1        0.0817
     20 O           2.0198   -0.1274    4.3319 O.2     1  LIG1       -0.2509
     21 C           0.5905    1.1751   -0.0796 C.3     1  LIG1        0.1476
     22 O           1.7479    0.9142   -0.9191 O.3     1  LIG1       -0.4571
     23 C           2.9676    1.0397   -0.3207 C.2     1  LIG1        0.3043
     24 C           3.9954    0.2868   -1.1050 C.3     1  LIG1        0.0332
     25 O           3.1869    1.6068    0.7386 O.2     1  LIG1       -0.2512
     26 C          -0.5598    1.7968   -0.9124 C.3     1  LIG1        0.1492
     27 O          -0.0630    2.9318   -1.6469 O.3     1  LIG1       -0.4571
     28 C          -0.2280    4.1335   -1.0105 C.2     1  LIG1        0.3043
     29 C           0.9048    5.0493   -1.3467 C.3     1  LIG1        0.0332
     30 O          -1.1181    4.4038   -0.2162 O.2     1  LIG1       -0.2512
     31 C           0.3298   -2.3580   -0.4956 C.2     1  LIG1       -0.0962
     32 C          -1.9340   -1.3422   -2.6169 C.3     1  LIG1        0.0939
     33 C          -2.5323   -0.3470   -3.5965 C.3     1  LIG1       -0.0157
     34 C          -1.6718    0.9664   -3.3298 C.3     1  LIG1        0.0052
     35 C          -0.4868    1.0142   -4.2701 C.2     1  LIG1        0.0424
     36 C           0.8319    1.0055   -4.0848 C.2     1  LIG1       -0.0063
     37 C           1.5738    1.0303   -5.3520 C.3     1  LIG1        0.2232
     38 O           2.4016    2.1752   -5.3982 O.3     1  LIG1       -0.3545
     39 O           0.5693    1.0753   -6.3455 O.3     1  LIG1       -0.4283
     40 C          -0.6479    1.0192   -5.7400 C.2     1  LIG1        0.3377
     41 O          -1.7150    0.9864   -6.3267 O.2     1  LIG1       -0.2452
     42 O          -0.5515   -1.3273   -2.8045 O.3     1  LIG1       -0.3594
     43 H          -2.9289    1.2394   -0.0986 H       1  LIG1        0.0237
     44 H          -3.6190    0.2907   -1.3577 H       1  LIG1        0.0237
     45 H          -3.3172    2.0283   -1.5910 H       1  LIG1        0.0237
     46 H           1.2290   -0.5583    0.9079 H       1  LIG1        0.0392
     47 H           1.3005    0.9828    2.7202 H       1  LIG1        0.0238
     48 H          -0.0298    0.9916    3.9407 H       1  LIG1        0.0238
     49 H          -0.0293    2.0591    2.5581 H       1  LIG1        0.0238
     50 H          -0.7172   -1.0847    3.9641 H       1  LIG1        0.0324
     51 H          -1.4860   -3.5365    0.6843 H       1  LIG1        0.0239
     52 H          -1.8218   -4.5904    2.0052 H       1  LIG1        0.0239
     53 H          -0.1872   -3.9868    1.8140 H       1  LIG1        0.0239
     54 H          -3.9871    0.0253    1.9054 H       1  LIG1        0.0649
     55 H          -2.0748    1.4843    2.0007 H       1  LIG1        0.0579
     56 H          -1.4368   -3.6209    4.4978 H       1  LIG1        0.0239
     57 H          -3.0422   -3.7167    3.7579 H       1  LIG1        0.0239
     58 H          -2.5642   -2.2471    4.5831 H       1  LIG1        0.0239
     59 H           1.4660   -2.2281    2.2109 H       1  LIG1        0.0381
     60 H           0.8546   -3.0254    3.6523 H       1  LIG1        0.0381
     61 H           4.9503   -2.1649    5.0199 H       1  LIG1        0.0661
     62 H           3.9756   -0.9134    5.8322 H       1  LIG1        0.0661
     63 H           4.4778   -0.7155    4.1189 H       1  LIG1        0.0661
     64 H           0.8931    1.9448    0.6363 H       1  LIG1        0.0778
     65 H           3.7102   -0.7688   -1.1449 H       1  LIG1        0.0342
     66 H           4.9650    0.3599   -0.6039 H       1  LIG1        0.0342
     67 H           4.0791    0.7045   -2.1093 H       1  LIG1        0.0342
     68 H          -1.1958    2.1895   -0.1138 H       1  LIG1        0.0778
     69 H           1.8311    4.4675   -1.3689 H       1  LIG1        0.0342
     70 H           1.0112    5.7951   -0.5524 H       1  LIG1        0.0342
     71 H           0.7333    5.5427   -2.3032 H       1  LIG1        0.0342
     72 H           0.1316   -3.0488   -1.3129 H       1  LIG1        0.0535
     73 H           1.0941   -2.6892    0.1938 H       1  LIG1        0.0535
     74 H          -2.4942   -2.2359   -2.3977 H       1  LIG1        0.0629
     75 H          -3.5956   -0.1743   -3.3980 H       1  LIG1        0.0297
     76 H          -2.4560   -0.7287   -4.6184 H       1  LIG1        0.0297
     77 H          -2.2797    1.8493   -3.5614 H       1  LIG1        0.0359
     78 H           1.3375    0.9574   -3.1418 H       1  LIG1        0.0638
     79 H           2.1940    0.1395   -5.4954 H       1  LIG1        0.1105
     80 H           2.0205    2.8350   -4.7975 H       1  LIG1        0.2139
@<TRIPOS>BOND
     1     1     2    1
     2     2     3    1
     3     3     4    1
     4     4     5    1
     5     5     6    1
     6     6     7    1
     7     6     8    1
     8     8     9    1
     9     9    10    1
    10     9    11    1
    11    11    12    1
    12    12    13    2
    13     6    13    1
    14    11    14    2
    15     9    15    1
    16     8    16    1
    17    16    17    1
    18    17    18    1
    19    18    19    1
    20    17    20    2
    21     5    21    1
    22    21    22    1
    23    22    23    1
    24    23    24    1
    25    23    25    2
    26    21    26    1
    27     2    26    1
    28    26    27    1
    29    27    28    1
    30    28    29    1
    31    28    30    2
    32     4    31    2
    33     3    32    1
    34    32    33    1
    35    33    34    1
    36     2    34    1
    37    34    35    1
    38    35    36    2
    39    36    37    1
    40    37    38    1
    41    37    39    1
    42    39    40    1
    43    35    40    1
    44    40    41    2
    45    32    42    1
    46     3    42    1
    47     1    43    1
    48     1    44    1
    49     1    45    1
    50     5    46    1
    51     7    47    1
    52     7    48    1
    53     7    49    1
    54     8    50    1
    55    10    51    1
    56    10    52    1
    57    10    53    1
    58    12    54    1
    59    13    55    1
    60    15    56    1
    61    15    57    1
    62    15    58    1
    63    16    59    1
    64    16    60    1
    65    19    61    1
    66    19    62    1
    67    19    63    1
    68    21    64    1
    69    24    65    1
    70    24    66    1
    71    24    67    1
    72    26    68    1
    73    29    69    1
    74    29    70    1
    75    29    71    1
    76    31    72    1
    77    31    73    1
    78    32    74    1
    79    33    75    1
    80    33    76    1
    81    34    77    1
    82    36    78    1
    83    37    79    1
    84    38    80    1
