@<TRIPOS>MOLECULE
NuBBE_2281
 54 57 0 0 0
SMALL
GASTEIGER

@<TRIPOS>ATOM
      1 O          -1.8084    3.6596    0.6397 O.3     1  LIG1       -0.5052
      2 C          -0.4351    3.7156    0.5904 C.ar    1  LIG1        0.1418
      3 C           0.3475    2.5523    0.5301 C.ar    1  LIG1        0.1066
      4 C           1.7342    2.6494    0.4686 C.ar    1  LIG1        0.1454
      5 O           2.5576    1.5537    0.3903 O.2     1  LIG1       -0.4618
      6 C           1.9705    0.3100    0.3531 C.ar    1  LIG1        0.1038
      7 C           0.6584    0.0434    0.4213 C.ar    1  LIG1        0.0644
      8 C           0.1675   -1.3408    0.3619 C.ar    1  LIG1       -0.0110
      9 C          -0.1500   -1.9247   -0.8702 C.ar    1  LIG1       -0.0504
     10 C          -0.6490   -3.2331   -0.9370 C.ar    1  LIG1       -0.0193
     11 C          -0.8261   -3.9822    0.2269 C.ar    1  LIG1        0.1210
     12 O          -1.3267   -5.2555    0.2976 O.3     1  LIG1       -0.4880
     13 C          -1.7730   -5.8339   -0.9293 C.3     1  LIG1        0.1080
     14 C          -2.2837   -7.2166   -0.6402 C.2     1  LIG1       -0.0484
     15 C          -1.8412   -8.3823   -1.1545 C.2     1  LIG1       -0.0765
     16 C          -0.7053   -8.5169   -2.1319 C.3     1  LIG1       -0.0439
     17 C          -2.4746   -9.6918   -0.7603 C.3     1  LIG1       -0.0439
     18 C          -0.4736   -3.4159    1.4538 C.ar    1  LIG1       -0.0193
     19 C           0.0157   -2.1046    1.5251 C.ar    1  LIG1       -0.0504
     20 C          -0.2627    1.2052    0.5320 C.ar    1  LIG1        0.2037
     21 O          -1.4769    1.0873    0.6162 O.2     1  LIG1       -0.2863
     22 C           2.3488    3.9010    0.4808 C.ar    1  LIG1        0.0239
     23 C           1.5729    5.0612    0.5421 C.ar    1  LIG1        0.1359
     24 C           0.1773    4.9823    0.5958 C.ar    1  LIG1        0.0588
     25 C          -0.5978    6.2147    0.6670 C.2     1  LIG1       -0.0478
     26 C           0.0543    7.3796    0.6236 C.2     1  LIG1       -0.0408
     27 C           1.5558    7.4834    0.5070 C.3     1  LIG1        0.1235
     28 C           1.9171    8.1405   -0.8300 C.3     1  LIG1       -0.0215
     29 C           2.0937    8.3275    1.6681 C.3     1  LIG1       -0.0215
     30 O           2.2751    6.2336    0.5574 O.3     1  LIG1       -0.4814
     31 H          -2.0815    2.7138    0.6477 H       1  LIG1        0.2922
     32 H           2.7382   -0.4494    0.2567 H       1  LIG1        0.1037
     33 H          -0.0247   -1.3649   -1.7945 H       1  LIG1        0.0625
     34 H          -0.8932   -3.6300   -1.9167 H       1  LIG1        0.0654
     35 H          -0.9490   -5.8520   -1.6446 H       1  LIG1        0.0742
     36 H          -2.5975   -5.2433   -1.3466 H       1  LIG1        0.0742
     37 H          -3.1172   -7.2379    0.0616 H       1  LIG1        0.0605
     38 H          -0.2255   -7.5700   -2.3842 H       1  LIG1        0.0274
     39 H          -1.0651   -8.9550   -3.0682 H       1  LIG1        0.0274
     40 H           0.0731   -9.1655   -1.7175 H       1  LIG1        0.0274
     41 H          -3.2773   -9.5636   -0.0266 H       1  LIG1        0.0274
     42 H          -1.7253  -10.3570   -0.3181 H       1  LIG1        0.0274
     43 H          -2.9017  -10.1862   -1.6392 H       1  LIG1        0.0274
     44 H          -0.5924   -3.9978    2.3654 H       1  LIG1        0.0654
     45 H           0.2624   -1.6887    2.4991 H       1  LIG1        0.0625
     46 H           3.4322    3.9807    0.4411 H       1  LIG1        0.0691
     47 H          -1.6784    6.1634    0.7450 H       1  LIG1        0.0624
     48 H          -0.5151    8.3048    0.6641 H       1  LIG1        0.0611
     49 H           1.4740    9.1370   -0.9324 H       1  LIG1        0.0271
     50 H           1.5753    7.5246   -1.6709 H       1  LIG1        0.0271
     51 H           3.0041    8.2321   -0.9390 H       1  LIG1        0.0271
     52 H           1.6607    9.3338    1.6818 H       1  LIG1        0.0271
     53 H           3.1844    8.4220    1.6102 H       1  LIG1        0.0271
     54 H           1.8777    7.8471    2.6303 H       1  LIG1        0.0271
@<TRIPOS>BOND
     1     1     2    1
     2     2     3   ar
     3     3     4   ar
     4     4     5   ar
     5     5     6   ar
     6     6     7   ar
     7     7     8    1
     8     8     9   ar
     9     9    10   ar
    10    10    11   ar
    11    11    12    1
    12    12    13    1
    13    13    14    1
    14    14    15    2
    15    15    16    1
    16    15    17    1
    17    11    18   ar
    18    18    19   ar
    19     8    19   ar
    20     7    20   ar
    21     3    20   ar
    22    20    21    2
    23     4    22   ar
    24    22    23   ar
    25    23    24   ar
    26     2    24   ar
    27    24    25    1
    28    25    26    2
    29    26    27    1
    30    27    28    1
    31    27    29    1
    32    27    30    1
    33    23    30    1
    34     1    31    1
    35     6    32    1
    36     9    33    1
    37    10    34    1
    38    13    35    1
    39    13    36    1
    40    14    37    1
    41    16    38    1
    42    16    39    1
    43    16    40    1
    44    17    41    1
    45    17    42    1
    46    17    43    1
    47    18    44    1
    48    19    45    1
    49    22    46    1
    50    25    47    1
    51    26    48    1
    52    28    49    1
    53    28    50    1
    54    28    51    1
    55    29    52    1
    56    29    53    1
    57    29    54    1
