REMARK  Name = NuBBE_2320
REMARK  8 active torsions:
REMARK  status: ('A' for Active; 'I' for Inactive)
REMARK    1  A    between atoms: C_1  and  O_28
REMARK    2  A    between atoms: C_3  and  C_25
REMARK    3  A    between atoms: C_5  and  O_8
REMARK    4  A    between atoms: O_8  and  C_9
REMARK    5  A    between atoms: C_10  and  C_24
REMARK    6  A    between atoms: C_12  and  C_15
REMARK    7  A    between atoms: C_25  and  C_26
REMARK    8  A    between atoms: O_28  and  C_29
REMARK                            x       y       z     vdW  Elec       q    Type
REMARK                         _______ _______ _______ _____ _____    ______ ____
ROOT
ATOM      1  C   LIG A   1       1.044   1.750   1.405  0.00  0.00    +0.203 C 
ATOM      2  C   LIG A   1       0.291   0.654   1.224  0.00  0.00    +0.150 C 
ATOM      3  C   LIG A   1       0.783  -0.761   1.011  0.00  0.00    +0.044 C 
ATOM      4  C   LIG A   1       2.297  -0.851   0.691  0.00  0.00    +0.055 C 
ATOM      5  C   LIG A   1       2.979   0.470   0.323  0.00  0.00    +0.193 C 
ATOM      6  C   LIG A   1       2.523   1.525   1.352  0.00  0.00    +0.229 C 
ATOM      7  O   LIG A   1       3.292   2.176   2.046  0.00  0.00    -0.286 OA
ATOM      8  C   LIG A   1      -0.199  -1.142  -0.128  0.00  0.00    +0.045 C 
ATOM      9  C   LIG A   1      -1.504  -0.443   0.349  0.00  0.00    +0.207 C 
ATOM     10  O   LIG A   1      -1.081   0.758   1.036  0.00  0.00    -0.484 OA
ATOM     11  C   LIG A   1       0.252  -0.681  -1.525  0.00  0.00    +0.012 C 
ENDROOT
BRANCH   9  12
ATOM     12  C   LIG A   1      -2.560  -0.136  -0.697  0.00  0.00    -0.003 A 
ATOM     13  C   LIG A   1      -2.987   1.194  -0.933  0.00  0.00    +0.011 A 
ATOM     14  C   LIG A   1      -3.946   1.491  -1.906  0.00  0.00    +0.050 A 
ATOM     15  C   LIG A   1      -4.467   0.444  -2.628  0.00  0.00    +0.166 A 
ATOM     16  C   LIG A   1      -4.083  -0.856  -2.397  0.00  0.00    +0.167 A 
ATOM     17  C   LIG A   1      -3.147  -1.181  -1.435  0.00  0.00    +0.056 A 
ATOM     18  O   LIG A   1      -4.717  -1.735  -3.220  0.00  0.00    -0.453 OA
ATOM     19  C   LIG A   1      -5.510  -0.833  -4.021  0.00  0.00    +0.466 C 
ATOM     20  O   LIG A   1      -5.385   0.548  -3.625  0.00  0.00    -0.453 OA
ENDBRANCH   9  12
BRANCH   5  21
ATOM     21  O   LIG A   1       4.376   0.190   0.259  0.00  0.00    -0.372 OA
ATOM     22  C   LIG A   1       5.179   1.307  -0.100  0.00  0.00    +0.195 C 
ENDBRANCH   5  21
BRANCH   1  23
ATOM     23  O   LIG A   1       0.458   2.998   1.533  0.00  0.00    -0.489 OA
ATOM     24  C   LIG A   1       1.337   4.103   1.713  0.00  0.00    +0.277 C 
ENDBRANCH   1  23
BRANCH   3  25
ATOM     25  C   LIG A   1       0.503  -1.595   2.312  0.00  0.00    +0.041 C 
BRANCH  25  26
ATOM     26  C   LIG A   1       0.936  -3.038   2.235  0.00  0.00    -0.034 C 
ATOM     27  C   LIG A   1       1.836  -3.584   3.065  0.00  0.00    +0.004 C 
ENDBRANCH  25  26
ENDBRANCH   3  25
TORSDOF 5
