@<TRIPOS>MOLECULE
NuBBE_159
 36 37 0 0 0
SMALL
GASTEIGER

@<TRIPOS>ATOM
      1 C          -3.0374    1.2261   -2.4275 C.3     1  LIG1       -0.0215
      2 C          -1.5142    1.3653   -2.3293 C.3     1  LIG1        0.1237
      3 C          -0.8954    1.2618   -3.7290 C.3     1  LIG1       -0.0215
      4 O          -1.0701    0.2079   -1.5995 O.3     1  LIG1       -0.4779
      5 C          -0.2836    0.3698   -0.4949 C.ar    1  LIG1        0.1710
      6 C           0.1640   -0.8001    0.1284 C.ar    1  LIG1        0.1744
      7 O          -0.2054   -2.0219   -0.4734 O.3     1  LIG1       -0.4222
      8 C          -0.4052   -3.1805    0.2712 C.2     1  LIG1        0.3093
      9 C          -0.7554   -4.2871   -0.6747 C.3     1  LIG1        0.0336
     10 O          -0.3454   -3.2997    1.4859 O.2     1  LIG1       -0.2507
     11 C           1.0117   -0.7460    1.2281 C.ar    1  LIG1       -0.0016
     12 C           1.3848    0.4968    1.7468 C.ar    1  LIG1        0.0632
     13 C           2.3099    0.5721    2.9031 C.2     1  LIG1        0.3391
     14 O           2.1776   -0.5476    3.6503 O.3     1  LIG1       -0.4644
     15 C           3.0840   -0.6680    4.7449 C.3     1  LIG1        0.0820
     16 O           3.0605    1.5147    3.1205 O.2     1  LIG1       -0.2450
     17 C           0.9225    1.6777    1.1454 C.ar    1  LIG1       -0.0369
     18 C           0.0849    1.6151    0.0214 C.ar    1  LIG1        0.0210
     19 C          -0.4076    2.8279   -0.6153 C.2     1  LIG1       -0.0512
     20 C          -1.1596    2.6998   -1.7134 C.2     1  LIG1       -0.0409
     21 H          -3.3104    0.2577   -2.8647 H       1  LIG1        0.0271
     22 H          -3.4874    2.0176   -3.0355 H       1  LIG1        0.0271
     23 H          -3.4949    1.2504   -1.4311 H       1  LIG1        0.0271
     24 H          -1.1395    0.2986   -4.1931 H       1  LIG1        0.0271
     25 H           0.1992    1.3074   -3.6778 H       1  LIG1        0.0271
     26 H          -1.2424    2.0610   -4.3930 H       1  LIG1        0.0271
     27 H          -0.1005   -4.2445   -1.5495 H       1  LIG1        0.0342
     28 H          -1.8007   -4.1904   -0.9755 H       1  LIG1        0.0342
     29 H          -0.5978   -5.2496   -0.1817 H       1  LIG1        0.0342
     30 H           1.3971   -1.6583    1.6717 H       1  LIG1        0.0664
     31 H           3.0027   -1.6878    5.1318 H       1  LIG1        0.0661
     32 H           2.8131    0.0310    5.5410 H       1  LIG1        0.0661
     33 H           4.1155   -0.5084    4.4161 H       1  LIG1        0.0661
     34 H           1.2240    2.6398    1.5563 H       1  LIG1        0.0633
     35 H          -0.1621    3.7981   -0.1983 H       1  LIG1        0.0623
     36 H          -1.5364    3.5932   -2.2055 H       1  LIG1        0.0611
@<TRIPOS>BOND
     1     1     2    1
     2     2     3    1
     3     2     4    1
     4     4     5    1
     5     5     6   ar
     6     6     7    1
     7     7     8    1
     8     8     9    1
     9     8    10    2
    10     6    11   ar
    11    11    12   ar
    12    12    13    1
    13    13    14    1
    14    14    15    1
    15    13    16    2
    16    12    17   ar
    17    17    18   ar
    18     5    18   ar
    19    18    19    1
    20    19    20    2
    21     2    20    1
    22     1    21    1
    23     1    22    1
    24     1    23    1
    25     3    24    1
    26     3    25    1
    27     3    26    1
    28     9    27    1
    29     9    28    1
    30     9    29    1
    31    11    30    1
    32    15    31    1
    33    15    32    1
    34    15    33    1
    35    17    34    1
    36    19    35    1
    37    20    36    1
