REMARK  Name = NuBBE_256
REMARK  7 active torsions:
REMARK  status: ('A' for Active; 'I' for Inactive)
REMARK    1  A    between atoms: C_3  and  O_4
REMARK    2  A    between atoms: C_5  and  C_6
REMARK    3  A    between atoms: C_11  and  C_25
REMARK    4  A    between atoms: C_14  and  C_16
REMARK    5  A    between atoms: C_20  and  C_21
REMARK    6  A    between atoms: C_26  and  C_27
REMARK    7  A    between atoms: C_30  and  C_31
REMARK                            x       y       z     vdW  Elec       q    Type
REMARK                         _______ _______ _______ _____ _____    ______ ____
ROOT
ATOM      1  O   LIG A   1      -5.122  -1.872  -0.744  0.00  0.00    -0.284 OA
ATOM      2  C   LIG A   1      -4.359  -1.727   0.174  0.00  0.00    +0.221 C 
ATOM      3  C   LIG A   1      -3.558  -2.871   0.694  0.00  0.00    +0.167 C 
ATOM      4  C   LIG A   1      -2.605  -2.698   1.637  0.00  0.00    +0.002 C 
ATOM      5  C   LIG A   1      -1.917  -3.915   2.178  0.00  0.00    +0.048 C 
ATOM      6  C   LIG A   1      -2.167  -1.308   2.019  0.00  0.00    -0.014 C 
ATOM      7  C   LIG A   1      -1.038  -0.978   2.704  0.00  0.00    +0.008 C 
ATOM      8  C   LIG A   1      -0.269   0.325   2.570  0.00  0.00    +0.001 C 
ATOM      9  C   LIG A   1      -0.659   1.266   1.672  0.00  0.00    -0.053 C 
ATOM     10  C   LIG A   1       0.284   2.146   0.490  0.00  0.00    -0.004 C 
ATOM     11  C   LIG A   1       1.790   2.797   0.201  0.00  0.00    +0.012 C 
ATOM     12  C   LIG A   1       3.050   2.140  -0.467  0.00  0.00    +0.008 C 
ATOM     13  C   LIG A   1       2.828   0.869  -1.319  0.00  0.00    -0.022 C 
ATOM     14  C   LIG A   1       4.142   0.025  -1.342  0.00  0.00    +0.081 C 
ATOM     15  C   LIG A   1       2.602   1.164  -2.824  0.00  0.00    +0.012 C 
ATOM     16  C   LIG A   1       1.603   0.215  -0.594  0.00  0.00    +0.003 C 
ATOM     17  C   LIG A   1       1.536  -1.317  -0.657  0.00  0.00    +0.015 C 
ATOM     18  C   LIG A   1       2.905  -1.988  -0.458  0.00  0.00    +0.052 C 
ATOM     19  C   LIG A   1       2.779  -3.504  -0.464  0.00  0.00    +0.015 C 
ATOM     20  C   LIG A   1       3.836  -1.442  -1.511  0.00  0.00    +0.137 C 
ATOM     21  O   LIG A   1       4.340  -2.122  -2.400  0.00  0.00    -0.297 OA
ATOM     22  C   LIG A   1      -0.437   3.548   0.509  0.00  0.00    +0.016 C 
ATOM     23  C   LIG A   1       0.220   1.081  -0.756  0.00  0.00    -0.020 C 
ATOM     24  C   LIG A   1      -0.082   1.644  -2.171  0.00  0.00    +0.012 C 
ATOM     25  C   LIG A   1      -1.035   0.223  -0.644  0.00  0.00    +0.009 C 
ATOM     26  C   LIG A   1      -2.170   1.214  -0.248  0.00  0.00    +0.016 C 
ATOM     27  C   LIG A   1      -2.232   1.160   1.281  0.00  0.00    +0.015 C 
ATOM     28  C   LIG A   1      -3.143   2.153   2.034  0.00  0.00    +0.021 C 
ATOM     29  C   LIG A   1      -2.929  -0.203   1.442  0.00  0.00    -0.026 C 
ATOM     30  C   LIG A   1      -4.090  -0.409   0.776  0.00  0.00    +0.059 C 
ENDROOT
BRANCH   3  31
ATOM     31  O   LIG A   1      -3.846  -4.088   0.096  0.00  0.00    -0.503 OA
ATOM     32  H   LIG A   1      -4.453  -3.870  -0.650  0.00  0.00    +0.292 HD
ENDBRANCH   3  31
TORSDOF 1
