@<TRIPOS>MOLECULE
NuBBE_436
 35 38 0 0 0
SMALL
GASTEIGER

@<TRIPOS>ATOM
      1 H          -2.8984   -0.8184    0.2052 H       1  LIG1        0.0401
      2 C          -1.8755   -0.4900   -0.0208 C.3     1  LIG1        0.0246
      3 C          -1.2389   -1.4944   -0.9469 C.2     1  LIG1       -0.0758
      4 C          -0.1011   -2.0003   -0.4625 C.2     1  LIG1       -0.0409
      5 C           0.2268   -1.4149    0.8676 C.3     1  LIG1        0.1716
      6 C           1.3591   -0.4218    0.9353 C.3     1  LIG1        0.1377
      7 H           1.5729    0.0751   -0.0162 H       1  LIG1        0.0694
      8 C           2.4576   -1.2559    1.4636 C.2     1  LIG1        0.0652
      9 C           3.7862   -1.0933    1.3706 C.2     1  LIG1       -0.0745
     10 C           4.4741    0.0587    0.7134 C.3     1  LIG1       -0.0460
     11 O           0.9740    0.5456    1.9097 O.3     1  LIG1       -0.3286
     12 O           0.5074   -2.4416    1.8154 O.3     1  LIG1       -0.4470
     13 C           1.8410   -2.4395    2.1064 C.2     1  LIG1        0.3384
     14 O           2.4140   -3.2743    2.7786 O.2     1  LIG1       -0.2452
     15 C          -1.0196   -0.6239    1.2517 C.3     1  LIG1        0.0784
     16 H          -1.5940   -1.1701    2.0136 H       1  LIG1        0.0414
     17 C          -0.4603    0.6543    1.8745 C.3     1  LIG1        0.2093
     18 H          -0.7841    0.7167    2.9194 H       1  LIG1        0.1060
     19 O          -0.7953    1.9046    1.2863 O.2     1  LIG1       -0.4701
     20 C          -1.4208    1.9359    0.0839 C.2     1  LIG1        0.0984
     21 C          -1.9255    0.8916   -0.5812 C.2     1  LIG1        0.0781
     22 C          -2.6715    1.1098   -1.8505 C.2     1  LIG1        0.3384
     23 O          -2.3783    2.3211   -2.3876 O.3     1  LIG1       -0.4646
     24 C          -3.0706    2.6233   -3.5995 C.3     1  LIG1        0.0820
     25 O          -3.4279    0.2816   -2.3346 O.2     1  LIG1       -0.2452
     26 H          -1.6787   -1.7863   -1.8942 H       1  LIG1        0.0576
     27 H           0.5059   -2.7429   -0.9634 H       1  LIG1        0.0609
     28 H           4.4406   -1.8438    1.8143 H       1  LIG1        0.0575
     29 H           3.7766    0.8144    0.3415 H       1  LIG1        0.0272
     30 H           5.0702   -0.2988   -0.1319 H       1  LIG1        0.0272
     31 H           5.1467    0.5456    1.4260 H       1  LIG1        0.0272
     32 H          -1.4930    2.9653   -0.2516 H       1  LIG1        0.1029
     33 H          -4.1479    2.4645   -3.4893 H       1  LIG1        0.0661
     34 H          -2.6694    2.0220   -4.4203 H       1  LIG1        0.0661
     35 H          -2.9022    3.6800   -3.8264 H       1  LIG1        0.0661
@<TRIPOS>BOND
     1     2     3    1
     2     3     4    2
     3     4     5    1
     4     5     6    1
     5     6     8    1
     6     9    10    1
     7     6    11    1
     8     5    12    1
     9    12    13    1
    10     8    13    1
    11     2    15    1
    12     5    15    1
    13    15    17    1
    14    11    17    1
    15    17    19    1
    16    19    20    1
    17    20    21    2
    18     2    21    1
    19    22    23    1
    20    23    24    1
    21    22    25    2
    22     1     2    1
    23     6     7    1
    24     8     9    2
    25    13    14    2
    26    15    16    1
    27    17    18    1
    28    21    22    1
    29     3    26    1
    30     4    27    1
    31     9    28    1
    32    10    29    1
    33    10    30    1
    34    10    31    1
    35    20    32    1
    36    24    33    1
    37    24    34    1
    38    24    35    1
