@<TRIPOS>MOLECULE
NuBBE_1052
 91 96 0 0 0
SMALL
GASTEIGER

@<TRIPOS>ATOM
      1 C          -2.9614   -1.4744    1.8067 C.3     1  LIG1       -0.0553
      2 C          -1.9441   -0.5151    1.1404 C.3     1  LIG1       -0.0051
      3 C          -1.3944   -1.1906   -0.1216 C.2     1  LIG1       -0.0634
      4 C          -1.4774   -0.7125   -1.3822 C.2     1  LIG1       -0.0836
      5 C          -0.8626   -1.4358   -2.5310 C.3     1  LIG1       -0.0306
      6 C          -1.0467   -2.9587   -2.4173 C.3     1  LIG1       -0.0242
      7 H          -0.4138   -3.3746   -3.2171 H       1  LIG1        0.0315
      8 C          -2.4947   -3.4869   -2.7806 C.3     1  LIG1       -0.0053
      9 C          -3.6149   -2.9768   -1.8438 C.3     1  LIG1       -0.0572
     10 C          -2.8977   -3.0013   -4.2008 C.3     1  LIG1       -0.0572
     11 C          -2.4966   -5.0512   -2.7591 C.3     1  LIG1        0.0606
     12 H          -3.5196   -5.4034   -2.5748 H       1  LIG1        0.0599
     13 O          -2.1306   -5.5767   -4.0406 O.3     1  LIG1       -0.3912
     14 C          -1.5568   -5.6960   -1.7372 C.3     1  LIG1       -0.0258
     15 C          -1.1812   -4.7783   -0.5886 C.3     1  LIG1       -0.0444
     16 C          -0.4483   -3.4756   -1.0450 C.3     1  LIG1       -0.0218
     17 C           1.0330   -3.8643   -1.3046 C.3     1  LIG1       -0.0587
     18 C          -0.5524   -2.4247    0.1502 C.3     1  LIG1       -0.0137
     19 H          -1.0106   -2.9824    0.9723 H       1  LIG1        0.0351
     20 C           0.7445   -1.8424    0.7458 C.3     1  LIG1       -0.0455
     21 C           0.4600   -1.0737    2.0533 C.3     1  LIG1       -0.0460
     22 C          -0.7293   -0.0572    2.0536 C.3     1  LIG1       -0.0198
     23 C          -1.1797    0.0550    3.5269 C.3     1  LIG1       -0.0585
     24 C          -0.3190    1.3301    1.3838 C.3     1  LIG1       -0.0298
     25 H           0.2800    1.0559    0.5059 H       1  LIG1        0.0310
     26 C           0.5354    2.4198    2.1359 C.3     1  LIG1       -0.0116
     27 H           1.5210    1.9885    2.3557 H       1  LIG1        0.0327
     28 C          -0.0625    2.8418    3.4970 C.3     1  LIG1       -0.0597
     29 C           0.7789    3.7161    1.2782 C.3     1  LIG1        0.0910
     30 C           1.5637    3.6178   -0.0344 C.3     1  LIG1        0.1170
     31 H           0.9010    3.8609   -0.8741 H       1  LIG1        0.0650
     32 O           2.1799    2.3707   -0.3215 O.3     1  LIG1       -0.3407
     33 C           3.4797    2.6817   -0.8251 C.3     1  LIG1        0.1656
     34 C           4.4368    1.5909   -0.3726 C.3     1  LIG1       -0.0108
     35 C           3.4740    2.7900   -2.3516 C.3     1  LIG1       -0.0108
     36 O           3.8918    3.9404   -0.2943 O.3     1  LIG1       -0.3405
     37 C           2.6898    4.6208    0.0672 C.3     1  LIG1        0.1188
     38 H           2.5364    5.4405   -0.6446 H       1  LIG1        0.0653
     39 C           2.6809    5.1227    1.5101 C.3     1  LIG1        0.0930
     40 C           3.7892    4.5489    2.3947 C.3     1  LIG1       -0.0335
     41 C           2.7484    6.6532    1.5580 C.3     1  LIG1       -0.0335
     42 O           1.4271    4.7294    2.0829 O.3     1  LIG1       -0.3651
     43 C          -1.6336    1.9096    0.8188 C.3     1  LIG1       -0.0486
     44 C          -2.6876    0.8162    0.8951 C.3     1  LIG1       -0.0431
     45 H          -2.4898   -2.3559    2.2500 H       1  LIG1        0.0238
     46 H          -3.7071   -1.8189    1.0817 H       1  LIG1        0.0238
     47 H          -3.5210   -0.9852    2.6126 H       1  LIG1        0.0238
     48 H          -1.9824    0.2140   -1.6150 H       1  LIG1        0.0572
     49 H           0.2065   -1.1877   -2.5687 H       1  LIG1        0.0310
     50 H          -1.2796   -1.0546   -3.4676 H       1  LIG1        0.0310
     51 H          -3.4414   -3.2122   -0.7952 H       1  LIG1        0.0236
     52 H          -4.5789   -3.4267   -2.1121 H       1  LIG1        0.0236
     53 H          -3.7586   -1.8952   -1.9277 H       1  LIG1        0.0236
     54 H          -2.1076   -3.1955   -4.9343 H       1  LIG1        0.0236
     55 H          -3.1100   -1.9270   -4.2215 H       1  LIG1        0.0236
     56 H          -3.8087   -3.5064   -4.5436 H       1  LIG1        0.0236
     57 H          -2.2713   -6.5387   -4.0105 H       1  LIG1        0.2098
     58 H          -0.6489   -6.0660   -2.2285 H       1  LIG1        0.0290
     59 H          -2.0452   -6.5928   -1.3338 H       1  LIG1        0.0290
     60 H          -0.5495   -5.3325    0.1184 H       1  LIG1        0.0272
     61 H          -2.0913   -4.5482   -0.0249 H       1  LIG1        0.0272
     62 H           1.1216   -4.5982   -2.1136 H       1  LIG1        0.0235
     63 H           1.4909   -4.3222   -0.4210 H       1  LIG1        0.0235
     64 H           1.6324   -2.9953   -1.5934 H       1  LIG1        0.0235
     65 H           1.2480   -1.1815    0.0294 H       1  LIG1        0.0271
     66 H           1.4504   -2.6423    0.9939 H       1  LIG1        0.0271
     67 H           1.3790   -0.5675    2.3747 H       1  LIG1        0.0271
     68 H           0.2651   -1.8413    2.8163 H       1  LIG1        0.0271
     69 H          -1.5747   -0.8979    3.8985 H       1  LIG1        0.0235
     70 H          -1.9638    0.8015    3.6733 H       1  LIG1        0.0235
     71 H          -0.3368    0.2715    4.1864 H       1  LIG1        0.0235
     72 H          -1.1553    2.8460    3.4862 H       1  LIG1        0.0233
     73 H           0.2434    3.8396    3.8222 H       1  LIG1        0.0233
     74 H           0.2857    2.1780    4.2916 H       1  LIG1        0.0233
     75 H          -0.1961    4.1621    1.0492 H       1  LIG1        0.0626
     76 H           4.4711    1.5430    0.7212 H       1  LIG1        0.0281
     77 H           5.4560    1.7800   -0.7238 H       1  LIG1        0.0281
     78 H           4.1092    0.6080   -0.7292 H       1  LIG1        0.0281
     79 H           2.8093    3.5922   -2.6918 H       1  LIG1        0.0281
     80 H           3.1346    1.8621   -2.8216 H       1  LIG1        0.0281
     81 H           4.4755    3.0346   -2.7261 H       1  LIG1        0.0281
     82 H           3.7794    3.4544    2.3845 H       1  LIG1        0.0258
     83 H           3.6391    4.8461    3.4397 H       1  LIG1        0.0258
     84 H           4.7789    4.8959    2.0799 H       1  LIG1        0.0258
     85 H           1.9262    7.1019    0.9883 H       1  LIG1        0.0258
     86 H           3.6945    7.0258    1.1507 H       1  LIG1        0.0258
     87 H           2.6440    7.0201    2.5856 H       1  LIG1        0.0258
     88 H          -1.4828    2.2288   -0.2190 H       1  LIG1        0.0268
     89 H          -1.9896    2.7850    1.3702 H       1  LIG1        0.0268
     90 H          -3.3342    0.8018    0.0112 H       1  LIG1        0.0274
     91 H          -3.3523    1.0489    1.7370 H       1  LIG1        0.0274
@<TRIPOS>BOND
     1     2     3    1
     2     3     4    2
     3     4     5    1
     4     5     6    1
     5     6     8    1
     6     8    11    1
     7    11    14    1
     8    14    15    1
     9    15    16    1
    10     6    16    1
    11    16    18    1
    12     3    18    1
    13    18    20    1
    14    20    21    1
    15    21    22    1
    16     2    22    1
    17    22    24    1
    18    29    30    1
    19    30    32    1
    20    32    33    1
    21    33    36    1
    22    30    37    1
    23    36    37    1
    24    37    39    1
    25    39    42    1
    26    29    42    1
    27    24    43    1
    28    43    44    1
    29     2    44    1
    30     1     2    1
    31     6     7    1
    32     8     9    1
    33     8    10    1
    34    16    17    1
    35    18    19    1
    36    22    23    1
    37    24    25    1
    38    24    26    1
    39    26    29    1
    40    30    31    1
    41    33    34    1
    42    33    35    1
    43    37    38    1
    44    39    40    1
    45    39    41    1
    46    11    13    1
    47    11    12    1
    48    26    28    1
    49    26    27    1
    50     1    45    1
    51     1    46    1
    52     1    47    1
    53     4    48    1
    54     5    49    1
    55     5    50    1
    56     9    51    1
    57     9    52    1
    58     9    53    1
    59    10    54    1
    60    10    55    1
    61    10    56    1
    62    13    57    1
    63    14    58    1
    64    14    59    1
    65    15    60    1
    66    15    61    1
    67    17    62    1
    68    17    63    1
    69    17    64    1
    70    20    65    1
    71    20    66    1
    72    21    67    1
    73    21    68    1
    74    23    69    1
    75    23    70    1
    76    23    71    1
    77    28    72    1
    78    28    73    1
    79    28    74    1
    80    29    75    1
    81    34    76    1
    82    34    77    1
    83    34    78    1
    84    35    79    1
    85    35    80    1
    86    35    81    1
    87    40    82    1
    88    40    83    1
    89    40    84    1
    90    41    85    1
    91    41    86    1
    92    41    87    1
    93    43    88    1
    94    43    89    1
    95    44    90    1
    96    44    91    1
