@<TRIPOS>MOLECULE
NuBBE_1051
 79 82 0 0 0
SMALL
GASTEIGER

@<TRIPOS>ATOM
      1 C          -2.9122   -0.2286    1.3955 C.3     1  LIG1       -0.0553
      2 C          -1.5667    0.4067    0.9694 C.3     1  LIG1       -0.0051
      3 C          -1.0222   -0.4031   -0.2347 C.2     1  LIG1       -0.0634
      4 C          -1.0205    0.0246   -1.5093 C.2     1  LIG1       -0.0836
      5 C          -0.5587   -0.8119   -2.6491 C.3     1  LIG1       -0.0302
      6 C          -0.8243   -2.3127   -2.4453 C.3     1  LIG1       -0.0198
      7 H          -0.2318   -2.7864   -3.2464 H       1  LIG1        0.0318
      8 C          -2.2851   -2.8165   -2.7337 C.3     1  LIG1        0.0270
      9 C          -3.3664   -2.4726   -1.6987 C.3     1  LIG1       -0.0528
     10 C          -2.7718   -2.2820   -4.0995 C.3     1  LIG1       -0.0528
     11 C          -2.1968   -4.3525   -2.8062 C.2     1  LIG1        0.1392
     12 C          -1.1762   -5.0473   -1.9204 C.3     1  LIG1        0.0069
     13 C          -0.7942   -4.2029   -0.7090 C.3     1  LIG1       -0.0401
     14 C          -0.2082   -2.8021   -1.0853 C.3     1  LIG1       -0.0212
     15 C           1.3143   -3.0169   -1.3347 C.3     1  LIG1       -0.0587
     16 C          -0.4773   -1.7837    0.1187 C.3     1  LIG1       -0.0136
     17 H          -1.2387   -2.2583    0.7475 H       1  LIG1        0.0351
     18 C           0.7429   -1.5187    1.0162 C.3     1  LIG1       -0.0455
     19 C           0.3952   -0.7400    2.2850 C.3     1  LIG1       -0.0460
     20 C          -0.4947    0.5302    2.1321 C.3     1  LIG1       -0.0198
     21 C          -1.1882    0.6689    3.5051 C.3     1  LIG1       -0.0585
     22 C           0.3678    1.8218    1.7242 C.3     1  LIG1       -0.0295
     23 H           1.2457    1.4368    1.1878 H       1  LIG1        0.0310
     24 C           0.9452    2.7973    2.8274 C.3     1  LIG1       -0.0072
     25 H           1.5725    2.1960    3.4996 H       1  LIG1        0.0330
     26 C          -0.1390    3.4683    3.7077 C.3     1  LIG1       -0.0594
     27 C           1.8581    3.9367    2.2551 C.3     1  LIG1        0.1198
     28 O           2.3049    4.7574    3.3536 O.3     1  LIG1       -0.3837
     29 C           3.1148    3.4574    1.5000 C.2     1  LIG1        0.1845
     30 C           3.0060    3.3426    0.0139 C.2     1  LIG1       -0.0179
     31 C           3.8347    2.7045   -0.8354 C.2     1  LIG1       -0.0723
     32 C           5.0735    1.9286   -0.4828 C.3     1  LIG1       -0.0437
     33 C           3.5141    2.7281   -2.3080 C.3     1  LIG1       -0.0437
     34 O           4.1989    3.3169    2.0795 O.2     1  LIG1       -0.2899
     35 C          -0.4821    2.5681    0.6716 C.3     1  LIG1       -0.0486
     36 C          -1.8436    1.8970    0.6687 C.3     1  LIG1       -0.0431
     37 O          -2.9050   -5.0177   -3.5644 O.2     1  LIG1       -0.2968
     38 H          -2.7874   -1.2332    1.8109 H       1  LIG1        0.0238
     39 H          -3.6041   -0.2955    0.5496 H       1  LIG1        0.0238
     40 H          -3.4288    0.3700    2.1544 H       1  LIG1        0.0238
     41 H          -1.3810    1.0095   -1.7849 H       1  LIG1        0.0572
     42 H           0.5163   -0.6351   -2.7826 H       1  LIG1        0.0311
     43 H          -1.0171   -0.4526   -3.5746 H       1  LIG1        0.0311
     44 H          -3.3746   -3.1442   -0.8370 H       1  LIG1        0.0239
     45 H          -4.3679   -2.5596   -2.1395 H       1  LIG1        0.0239
     46 H          -3.2822   -1.4486   -1.3422 H       1  LIG1        0.0239
     47 H          -2.0218   -2.4415   -4.8817 H       1  LIG1        0.0239
     48 H          -2.9987   -1.2111   -4.0497 H       1  LIG1        0.0239
     49 H          -3.6914   -2.7801   -4.4280 H       1  LIG1        0.0239
     50 H          -0.2967   -5.2830   -2.5274 H       1  LIG1        0.0342
     51 H          -1.6166   -5.9899   -1.5757 H       1  LIG1        0.0342
     52 H          -0.0822   -4.7607   -0.0878 H       1  LIG1        0.0275
     53 H          -1.6859   -4.0997   -0.0821 H       1  LIG1        0.0275
     54 H           1.4892   -3.6809   -2.1893 H       1  LIG1        0.0235
     55 H           1.8063   -3.4930   -0.4800 H       1  LIG1        0.0235
     56 H           1.8308   -2.0757   -1.5434 H       1  LIG1        0.0235
     57 H           1.5172   -0.9720    0.4651 H       1  LIG1        0.0271
     58 H           1.1799   -2.4723    1.3358 H       1  LIG1        0.0271
     59 H           1.3270   -0.4754    2.8016 H       1  LIG1        0.0271
     60 H          -0.1110   -1.4585    2.9447 H       1  LIG1        0.0271
     61 H          -1.7788   -0.2221    3.7502 H       1  LIG1        0.0235
     62 H          -1.8805    1.5131    3.5392 H       1  LIG1        0.0235
     63 H          -0.4514    0.7540    4.3099 H       1  LIG1        0.0235
     64 H          -1.0185    3.7595    3.1272 H       1  LIG1        0.0233
     65 H           0.2152    4.3665    4.2218 H       1  LIG1        0.0233
     66 H          -0.4570    2.8174    4.5229 H       1  LIG1        0.0233
     67 H           1.2887    4.6104    1.6070 H       1  LIG1        0.0679
     68 H           3.1803    5.1191    3.1188 H       1  LIG1        0.2104
     69 H           2.1447    3.8641   -0.3964 H       1  LIG1        0.0653
     70 H           5.2834    1.8755    0.5854 H       1  LIG1        0.0274
     71 H           5.9469    2.3734   -0.9728 H       1  LIG1        0.0274
     72 H           4.9750    0.8971   -0.8398 H       1  LIG1        0.0274
     73 H           2.4667    2.4571   -2.4794 H       1  LIG1        0.0274
     74 H           4.1283    2.0117   -2.8634 H       1  LIG1        0.0274
     75 H           3.6995    3.7231   -2.7256 H       1  LIG1        0.0274
     76 H          -0.0096    2.4701   -0.3128 H       1  LIG1        0.0268
     77 H          -0.5897    3.6399    0.8569 H       1  LIG1        0.0268
     78 H          -2.3919    2.0728   -0.2617 H       1  LIG1        0.0274
     79 H          -2.4561    2.3463    1.4607 H       1  LIG1        0.0274
@<TRIPOS>BOND
     1     2     3    1
     2     3     4    2
     3     4     5    1
     4     5     6    1
     5     6     8    1
     6     8    11    1
     7    11    12    1
     8    12    13    1
     9    13    14    1
    10     6    14    1
    11    14    16    1
    12     3    16    1
    13    16    18    1
    14    18    19    1
    15    19    20    1
    16     2    20    1
    17    20    22    1
    18    24    27    1
    19    27    28    1
    20    27    29    1
    21    29    30    1
    22    30    31    2
    23    31    32    1
    24    31    33    1
    25    29    34    2
    26    22    35    1
    27    35    36    1
    28     2    36    1
    29     1     2    1
    30     6     7    1
    31     8     9    1
    32     8    10    1
    33    11    37    2
    34    14    15    1
    35    16    17    1
    36    20    21    1
    37    22    23    1
    38    22    24    1
    39    24    26    1
    40    24    25    1
    41     1    38    1
    42     1    39    1
    43     1    40    1
    44     4    41    1
    45     5    42    1
    46     5    43    1
    47     9    44    1
    48     9    45    1
    49     9    46    1
    50    10    47    1
    51    10    48    1
    52    10    49    1
    53    12    50    1
    54    12    51    1
    55    13    52    1
    56    13    53    1
    57    15    54    1
    58    15    55    1
    59    15    56    1
    60    18    57    1
    61    18    58    1
    62    19    59    1
    63    19    60    1
    64    21    61    1
    65    21    62    1
    66    21    63    1
    67    26    64    1
    68    26    65    1
    69    26    66    1
    70    27    67    1
    71    28    68    1
    72    30    69    1
    73    32    70    1
    74    32    71    1
    75    32    72    1
    76    33    73    1
    77    33    74    1
    78    33    75    1
    79    35    76    1
    80    35    77    1
    81    36    78    1
    82    36    79    1
