@<TRIPOS>MOLECULE
NuBBE_2295
 54 57 0 0 0
SMALL
GASTEIGER

@<TRIPOS>ATOM
      1 O          -2.1915   -3.0621   -2.4403 O.2     1  LIG1       -0.2502
      2 C          -2.6361   -2.1982   -1.7000 C.2     1  LIG1        0.3131
      3 O          -3.6405   -1.3396   -2.0402 O.3     1  LIG1       -0.4675
      4 C          -4.1510   -1.4953   -3.3648 C.3     1  LIG1        0.0817
      5 C          -2.0618   -1.8536   -0.3090 C.3     1  LIG1        0.0683
      6 C          -3.2359   -1.5036    0.6468 C.3     1  LIG1       -0.0491
      7 C          -1.0093   -0.6705   -0.5348 C.3     1  LIG1       -0.0199
      8 H          -0.8972   -0.5282   -1.6209 H       1  LIG1        0.0317
      9 C          -1.5767    0.6680   -0.0176 C.3     1  LIG1       -0.0484
     10 C          -0.6610    1.8465   -0.2647 C.3     1  LIG1       -0.0491
     11 C           0.6551    1.6829    0.4931 C.3     1  LIG1       -0.0306
     12 H           0.4446    1.5982    1.5689 H       1  LIG1        0.0309
     13 C           1.5538    2.9640    0.2579 C.3     1  LIG1       -0.0123
     14 H           1.5421    3.1985   -0.8160 H       1  LIG1        0.0350
     15 C           1.0089    4.1830    1.0114 C.3     1  LIG1       -0.0580
     16 C           2.9800    2.6912    0.6189 C.ar    1  LIG1       -0.0034
     17 C           3.4499    1.4213    0.8442 C.ar    1  LIG1        0.1086
     18 O           4.7702    1.4178    1.1367 O.2     1  LIG1       -0.4675
     19 C           5.1681    2.7180    1.0798 C.ar    1  LIG1        0.0923
     20 C           4.1082    3.5381    0.7556 C.ar    1  LIG1       -0.0202
     21 C           2.6930    0.1545    0.8235 C.3     1  LIG1        0.0094
     22 C           1.3584    0.3605    0.0351 C.3     1  LIG1       -0.0251
     23 H           1.6454    0.5604   -1.0103 H       1  LIG1        0.0313
     24 C           0.4475   -0.9510   -0.0001 C.3     1  LIG1       -0.0247
     25 C           1.1922   -1.9158   -0.9723 C.3     1  LIG1       -0.0590
     26 C           0.3147   -1.6081    1.3935 C.3     1  LIG1       -0.0470
     27 C          -0.4853   -2.9112    1.4349 C.3     1  LIG1       -0.0515
     28 C          -1.4314   -3.1424    0.2660 C.3     1  LIG1       -0.0372
     29 H          -5.1774   -1.1182   -3.3764 H       1  LIG1        0.0661
     30 H          -4.1690   -2.5391   -3.6929 H       1  LIG1        0.0661
     31 H          -3.5478   -0.8902   -4.0473 H       1  LIG1        0.0661
     32 H          -2.8767   -1.2476    1.6490 H       1  LIG1        0.0240
     33 H          -3.9220   -2.3530    0.7528 H       1  LIG1        0.0240
     34 H          -3.8506   -0.6720    0.2873 H       1  LIG1        0.0240
     35 H          -1.7788    0.6169    1.0584 H       1  LIG1        0.0268
     36 H          -2.5269    0.8832   -0.5203 H       1  LIG1        0.0268
     37 H          -1.1830    2.7528    0.0585 H       1  LIG1        0.0268
     38 H          -0.4753    1.9548   -1.3405 H       1  LIG1        0.0268
     39 H           1.6381    5.0646    0.8451 H       1  LIG1        0.0236
     40 H           0.9754    3.9995    2.0910 H       1  LIG1        0.0236
     41 H           0.0017    4.4484    0.6791 H       1  LIG1        0.0236
     42 H           6.2147    2.8933    1.2854 H       1  LIG1        0.1029
     43 H           4.1526    4.6113    0.6359 H       1  LIG1        0.0652
     44 H           2.4949   -0.1182    1.8647 H       1  LIG1        0.0346
     45 H           3.3000   -0.6340    0.3694 H       1  LIG1        0.0346
     46 H           1.4717   -1.4004   -1.8990 H       1  LIG1        0.0235
     47 H           0.6064   -2.7733   -1.2926 H       1  LIG1        0.0235
     48 H           2.1096   -2.3075   -0.5208 H       1  LIG1        0.0235
     49 H          -0.1497   -0.8930    2.0843 H       1  LIG1        0.0271
     50 H           1.2975   -1.8373    1.8188 H       1  LIG1        0.0271
     51 H          -1.0477   -2.9478    2.3759 H       1  LIG1        0.0266
     52 H           0.2106   -3.7594    1.4790 H       1  LIG1        0.0266
     53 H          -2.2163   -3.8435    0.5841 H       1  LIG1        0.0276
     54 H          -0.9062   -3.7134   -0.5048 H       1  LIG1        0.0276
@<TRIPOS>BOND
     1     1     2    2
     2     2     3    1
     3     3     4    1
     4     5     7    1
     5     7     9    1
     6     9    10    1
     7    10    11    1
     8    11    13    1
     9    13    16    1
    10    16    17   ar
    11    17    18   ar
    12    18    19   ar
    13    19    20   ar
    14    16    20   ar
    15    17    21    1
    16    21    22    1
    17    11    22    1
    18    22    24    1
    19     7    24    1
    20    24    26    1
    21    26    27    1
    22    27    28    1
    23     5    28    1
    24     7     8    1
    25    11    12    1
    26    22    23    1
    27    24    25    1
    28    13    15    1
    29    13    14    1
    30     5     6    1
    31     5     2    1
    32     4    29    1
    33     4    30    1
    34     4    31    1
    35     6    32    1
    36     6    33    1
    37     6    34    1
    38     9    35    1
    39     9    36    1
    40    10    37    1
    41    10    38    1
    42    15    39    1
    43    15    40    1
    44    15    41    1
    45    19    42    1
    46    20    43    1
    47    21    44    1
    48    21    45    1
    49    25    46    1
    50    25    47    1
    51    25    48    1
    52    26    49    1
    53    26    50    1
    54    27    51    1
    55    27    52    1
    56    28    53    1
    57    28    54    1
