@<TRIPOS>MOLECULE
NuBBE_1046
 31 33 0 0 0
SMALL
GASTEIGER

@<TRIPOS>ATOM
      1 O          -3.8507   -0.2380   -0.1293 O.2     1  LIG1       -0.2870
      2 C          -2.6291   -0.1567   -0.0943 C.ar    1  LIG1        0.1931
      3 C          -1.7612   -1.3394   -0.0433 C.ar    1  LIG1        0.0642
      4 C          -2.2995   -2.6263   -0.0200 C.ar    1  LIG1       -0.0439
      5 C          -1.4409   -3.7256    0.0413 C.ar    1  LIG1       -0.0190
      6 C          -0.0530   -3.5464    0.0788 C.ar    1  LIG1        0.1236
      7 C           0.4743   -2.2539    0.0466 C.ar    1  LIG1        0.0231
      8 C          -0.3830   -1.1530   -0.0123 C.ar    1  LIG1        0.1427
      9 O           0.2023    0.0882   -0.0342 O.2     1  LIG1       -0.4545
     10 C          -0.6159    1.2081   -0.0772 C.ar    1  LIG1        0.1392
     11 C           0.1159    2.4954   -0.0724 C.ar    1  LIG1        0.0174
     12 C          -0.3875    3.6331   -0.7241 C.ar    1  LIG1       -0.0511
     13 C           0.3129    4.8423   -0.7056 C.ar    1  LIG1       -0.0611
     14 C           1.5359    4.9305   -0.0472 C.ar    1  LIG1       -0.0617
     15 C           2.0618    3.8095    0.5890 C.ar    1  LIG1       -0.0611
     16 C           1.3583    2.6013    0.5747 C.ar    1  LIG1       -0.0511
     17 C          -1.9568    1.1515   -0.0978 C.ar    1  LIG1        0.0287
     18 O           0.6725   -4.7037    0.1485 O.3     1  LIG1       -0.4950
     19 C           2.0874   -4.5692    0.2171 C.3     1  LIG1        0.0788
     20 H          -3.3768   -2.7747   -0.0460 H       1  LIG1        0.0627
     21 H          -1.8558   -4.7311    0.0631 H       1  LIG1        0.0654
     22 H           1.5429   -2.0701    0.0676 H       1  LIG1        0.0691
     23 H          -1.3295    3.5963   -1.2660 H       1  LIG1        0.0625
     24 H          -0.0984    5.7132   -1.2096 H       1  LIG1        0.0618
     25 H           2.0801    5.8711   -0.0338 H       1  LIG1        0.0618
     26 H           3.0196    3.8736    1.0991 H       1  LIG1        0.0618
     27 H           1.7911    1.7432    1.0850 H       1  LIG1        0.0625
     28 H          -2.6045    2.0175   -0.1084 H       1  LIG1        0.0693
     29 H           2.5160   -5.5710    0.3150 H       1  LIG1        0.0660
     30 H           2.3893   -3.9920    1.0976 H       1  LIG1        0.0660
     31 H           2.4824   -4.1237   -0.7019 H       1  LIG1        0.0660
@<TRIPOS>BOND
     1     1     2    2
     2     2     3   ar
     3     3     4   ar
     4     4     5   ar
     5     5     6   ar
     6     6     7   ar
     7     7     8   ar
     8     3     8   ar
     9     8     9   ar
    10     9    10   ar
    11    10    11    1
    12    11    12   ar
    13    12    13   ar
    14    13    14   ar
    15    14    15   ar
    16    15    16   ar
    17    11    16   ar
    18    10    17   ar
    19     2    17   ar
    20     6    18    1
    21    18    19    1
    22     4    20    1
    23     5    21    1
    24     7    22    1
    25    12    23    1
    26    13    24    1
    27    14    25    1
    28    15    26    1
    29    16    27    1
    30    17    28    1
    31    19    29    1
    32    19    30    1
    33    19    31    1
