@<TRIPOS>MOLECULE
NuBBE_61
 81 84 0 0 0
SMALL
GASTEIGER

@<TRIPOS>ATOM
      1 O          -2.4398   -0.2097   -4.2625 O.3     1  LIG1       -0.3877
      2 C          -2.1035   -0.7777   -2.9954 C.3     1  LIG1        0.0741
      3 H          -2.0804   -1.8543   -3.1511 H       1  LIG1        0.0638
      4 C          -3.1885   -0.4035   -2.0410 C.2     1  LIG1       -0.0499
      5 C          -2.9286    0.2376   -0.8882 C.2     1  LIG1        0.0124
      6 C          -3.7674    1.4388   -0.4669 C.3     1  LIG1        0.2315
      7 H          -4.5367    1.1795    0.2657 H       1  LIG1        0.1111
      8 O          -2.8174    2.3278    0.1413 O.3     1  LIG1       -0.2971
      9 C          -1.5146    1.9040   -0.3048 C.3     1  LIG1        0.2214
     10 H          -1.4492    2.2002   -1.3563 H       1  LIG1        0.1068
     11 O          -0.5018    2.5957    0.4269 O.3     1  LIG1       -0.4341
     12 C          -0.0887    3.7402   -0.1997 C.2     1  LIG1        0.3061
     13 C          -0.1725    4.9381    0.7132 C.3     1  LIG1        0.0333
     14 O           0.2216    3.8170   -1.3674 O.2     1  LIG1       -0.2511
     15 O          -4.2685    2.0852   -1.6488 O.3     1  LIG1       -0.4311
     16 C          -5.6105    2.1106   -1.8108 C.2     1  LIG1        0.3063
     17 C          -5.9712    2.6646   -3.1616 C.3     1  LIG1        0.0333
     18 O          -6.4341    1.7223   -1.0000 O.2     1  LIG1       -0.2511
     19 C          -1.5574    0.3350   -0.2019 C.3     1  LIG1        0.1001
     20 C          -1.7188   -0.2436    1.2594 C.3     1  LIG1        0.1191
     21 H          -2.7505   -0.1070    1.6267 H       1  LIG1        0.0745
     22 O          -0.8145    0.3171    2.2385 O.3     1  LIG1       -0.4572
     23 C          -1.0984    1.5071    2.8628 C.2     1  LIG1        0.3322
     24 C           0.1417    2.0253    3.5211 C.2     1  LIG1        0.0231
     25 C           1.3505    1.4492    3.3976 C.2     1  LIG1       -0.0478
     26 C           2.6277    2.0194    3.8669 C.ar    1  LIG1       -0.0248
     27 C           3.7184    1.2019    4.2105 C.ar    1  LIG1       -0.0546
     28 C           4.9734    1.7647    4.4939 C.ar    1  LIG1       -0.0612
     29 C           5.1546    3.1441    4.4211 C.ar    1  LIG1       -0.0617
     30 C           4.0719    3.9636    4.1229 C.ar    1  LIG1       -0.0612
     31 C           2.8211    3.4053    3.8551 C.ar    1  LIG1       -0.0546
     32 O          -2.1312    2.1276    2.8337 O.2     1  LIG1       -0.2456
     33 C          -1.4953   -1.7721    1.2492 C.3     1  LIG1       -0.0115
     34 C          -0.1206   -2.2685    0.7432 C.3     1  LIG1       -0.0345
     35 H          -0.2590   -3.3609    0.7147 H       1  LIG1        0.0305
     36 C           1.0033   -2.1367    1.7696 C.3     1  LIG1       -0.0618
     37 C           0.1932   -1.8105   -0.7263 C.3     1  LIG1       -0.0219
     38 C          -0.4226   -2.9317   -1.6107 C.3     1  LIG1       -0.0587
     39 C           1.7465   -1.7702   -1.1210 C.3     1  LIG1       -0.0283
     40 C           2.5700   -3.0415   -1.0572 C.2     1  LIG1       -0.0806
     41 C           2.9121   -3.8988   -2.0456 C.2     1  LIG1       -0.0549
     42 C           2.5414   -3.8033   -3.5026 C.3     1  LIG1       -0.0400
     43 C           3.7127   -5.0786   -1.7391 C.2     1  LIG1       -0.0662
     44 C           3.3351   -6.0127   -0.8569 C.2     1  LIG1       -0.0985
     45 C          -0.3948   -0.3365   -1.0634 C.3     1  LIG1       -0.0137
     46 H           0.4634    0.3321   -0.9000 H       1  LIG1        0.0319
     47 C          -0.7434   -0.1835   -2.5814 C.3     1  LIG1       -0.0188
     48 H          -3.3570   -0.4555   -4.4680 H       1  LIG1        0.2102
     49 H          -4.1967   -0.3779   -2.4457 H       1  LIG1        0.0599
     50 H           0.3356    5.7770    0.2266 H       1  LIG1        0.0342
     51 H           0.3165    4.7580    1.6710 H       1  LIG1        0.0342
     52 H          -1.2218    5.2075    0.8567 H       1  LIG1        0.0342
     53 H          -5.2131    2.3921   -3.9019 H       1  LIG1        0.0342
     54 H          -6.0764    3.7501   -3.1141 H       1  LIG1        0.0342
     55 H          -6.9150    2.2163   -3.4866 H       1  LIG1        0.0342
     56 H           0.0011    2.9714    4.0340 H       1  LIG1        0.0689
     57 H           1.4460    0.5260    2.8375 H       1  LIG1        0.0626
     58 H           3.6167    0.1194    4.2655 H       1  LIG1        0.0623
     59 H           5.8164    1.1303    4.7611 H       1  LIG1        0.0618
     60 H           6.1341    3.5830    4.5961 H       1  LIG1        0.0618
     61 H           4.1946    5.0418    4.0810 H       1  LIG1        0.0618
     62 H           2.0037    4.0761    3.6108 H       1  LIG1        0.0623
     63 H          -2.2721   -2.2307    0.6227 H       1  LIG1        0.0304
     64 H          -1.6577   -2.1821    2.2568 H       1  LIG1        0.0304
     65 H           1.6123   -1.2457    1.6288 H       1  LIG1        0.0233
     66 H           1.6681   -3.0072    1.6979 H       1  LIG1        0.0233
     67 H           0.6167   -2.1487    2.7933 H       1  LIG1        0.0233
     68 H          -1.5099   -2.9574   -1.5169 H       1  LIG1        0.0235
     69 H          -0.0764   -3.9275   -1.3048 H       1  LIG1        0.0235
     70 H          -0.1404   -2.8329   -2.6631 H       1  LIG1        0.0235
     71 H           1.8430   -1.3590   -2.1331 H       1  LIG1        0.0313
     72 H           2.2537   -1.0259   -0.4903 H       1  LIG1        0.0313
     73 H           2.9837   -3.2479   -0.0704 H       1  LIG1        0.0575
     74 H           2.1760   -2.8152   -3.7907 H       1  LIG1        0.0277
     75 H           1.7594   -4.5364   -3.7334 H       1  LIG1        0.0277
     76 H           3.3998   -4.0269   -4.1496 H       1  LIG1        0.0277
     77 H           4.6367   -5.2122   -2.2999 H       1  LIG1        0.0614
     78 H           2.4025   -5.9300   -0.3075 H       1  LIG1        0.0535
     79 H           3.9465   -6.8908   -0.6788 H       1  LIG1        0.0535
     80 H           0.0472   -0.5789   -3.2273 H       1  LIG1        0.0296
     81 H          -0.7524    0.8868   -2.8312 H       1  LIG1        0.0296
@<TRIPOS>BOND
     1     2     4    1
     2     4     5    2
     3     5     6    1
     4     6     8    1
     5     8     9    1
     6    11    12    1
     7    12    13    1
     8    12    14    2
     9    15    16    1
    10    16    17    1
    11    16    18    2
    12     5    19    1
    13    19    20    1
    14    22    23    1
    15    23    24    1
    16    24    25    2
    17    25    26    1
    18    26    27   ar
    19    27    28   ar
    20    28    29   ar
    21    29    30   ar
    22    30    31   ar
    23    26    31   ar
    24    23    32    2
    25    20    33    1
    26    33    34    1
    27    34    37    1
    28    39    40    1
    29    40    41    2
    30    41    42    1
    31    41    43    1
    32    43    44    2
    33     9    19    1
    34    19    45    1
    35    37    45    1
    36    45    47    1
    37     2    47    1
    38     1     2    1
    39     2     3    1
    40    45    46    1
    41     9    11    1
    42     9    10    1
    43     6    15    1
    44     6     7    1
    45    34    36    1
    46    34    35    1
    47    20    22    1
    48    20    21    1
    49    37    39    1
    50    37    38    1
    51     1    48    1
    52     4    49    1
    53    13    50    1
    54    13    51    1
    55    13    52    1
    56    17    53    1
    57    17    54    1
    58    17    55    1
    59    24    56    1
    60    25    57    1
    61    27    58    1
    62    28    59    1
    63    29    60    1
    64    30    61    1
    65    31    62    1
    66    33    63    1
    67    33    64    1
    68    36    65    1
    69    36    66    1
    70    36    67    1
    71    38    68    1
    72    38    69    1
    73    38    70    1
    74    39    71    1
    75    39    72    1
    76    40    73    1
    77    42    74    1
    78    42    75    1
    79    42    76    1
    80    43    77    1
    81    44    78    1
    82    44    79    1
    83    47    80    1
    84    47    81    1
