@<TRIPOS>MOLECULE
NuBBE_1245
 69 73 0 0 0
SMALL
GASTEIGER

@<TRIPOS>ATOM
      1 O          -0.5690   -2.1007   -1.0880 O.3     1  LIG1       -0.5058
      2 C           0.0020   -1.2398   -0.1797 C.ar    1  LIG1        0.1353
      3 C          -0.1293    0.1483   -0.4489 C.ar    1  LIG1        0.0685
      4 C           0.5208    1.0438    0.4283 C.ar    1  LIG1        0.1520
      5 C           1.2285    0.5634    1.5352 C.ar    1  LIG1        0.1062
      6 C           1.3165   -0.8152    1.7885 C.ar    1  LIG1        0.1404
      7 C           0.7024   -1.7490    0.9401 C.ar    1  LIG1        0.0677
      8 C           0.7989   -3.2396    1.2617 C.3     1  LIG1        0.1193
      9 H           1.4615   -3.3917    2.1228 H       1  LIG1        0.0676
     10 O           1.4066   -3.8897    0.1200 O.3     1  LIG1       -0.3609
     11 C           1.6929   -5.2771    0.3769 C.3     1  LIG1        0.1108
     12 H           2.3282   -5.3785    1.2687 H       1  LIG1        0.0646
     13 C           2.4771   -5.8460   -0.8147 C.3     1  LIG1        0.0729
     14 O           2.7504   -7.2353   -0.6437 O.3     1  LIG1       -0.3924
     15 C           0.3757   -6.0403    0.5931 C.3     1  LIG1        0.1117
     16 H          -0.2420   -5.9926   -0.3124 H       1  LIG1        0.0647
     17 C          -0.3910   -5.4079    1.7563 C.3     1  LIG1        0.1121
     18 H           0.1135   -5.6181    2.7080 H       1  LIG1        0.0647
     19 C          -0.5679   -3.8957    1.5699 C.3     1  LIG1        0.1139
     20 H          -1.2786   -3.7310    0.7531 H       1  LIG1        0.0649
     21 O          -1.1703   -3.3606    2.7513 O.3     1  LIG1       -0.3862
     22 O          -1.6890   -6.0166    1.8636 O.3     1  LIG1       -0.3865
     23 O           0.5676   -7.4250    0.8998 O.3     1  LIG1       -0.3865
     24 O           2.0265   -1.2898    2.8662 O.3     1  LIG1       -0.5054
     25 C           1.8792    1.5388    2.4158 C.ar    1  LIG1        0.1966
     26 O           2.4550    1.1781    3.4490 O.2     1  LIG1       -0.2869
     27 C           1.8511    2.9504    2.0280 C.ar    1  LIG1        0.0288
     28 C           1.1831    3.2933    0.9208 C.ar    1  LIG1        0.1394
     29 O           0.4480    2.3950    0.1720 O.2     1  LIG1       -0.4540
     30 C           1.1535    4.6932    0.4343 C.ar    1  LIG1        0.0211
     31 C           0.0524    5.1742   -0.2985 C.ar    1  LIG1       -0.0059
     32 C           0.0408    6.4875   -0.7645 C.ar    1  LIG1        0.1589
     33 O          -1.0158    6.9918   -1.4737 O.3     1  LIG1       -0.5033
     34 C           1.1165    7.3341   -0.5156 C.ar    1  LIG1        0.1583
     35 C           2.2160    6.8866    0.1953 C.ar    1  LIG1       -0.0159
     36 C           2.2359    5.5691    0.6601 C.ar    1  LIG1       -0.0474
     37 O           1.1010    8.6190   -0.9750 O.3     1  LIG1       -0.5033
     38 C          -0.9195    0.6034   -1.6890 C.3     1  LIG1        0.1189
     39 H          -0.4558    0.1067   -2.5518 H       1  LIG1        0.0675
     40 C          -2.4332    0.2283   -1.6287 C.3     1  LIG1        0.1139
     41 H          -2.6242   -0.5999   -0.9390 H       1  LIG1        0.0649
     42 O          -2.8772   -0.2071   -2.9290 O.3     1  LIG1       -0.3862
     43 C          -3.2867    1.4335   -1.2181 C.3     1  LIG1        0.1117
     44 H          -4.3489    1.1611   -1.2381 H       1  LIG1        0.0647
     45 O          -3.0012    1.8474    0.1297 O.3     1  LIG1       -0.3865
     46 C          -3.0814    2.6239   -2.1726 C.3     1  LIG1        0.1068
     47 H          -3.8226    2.6083   -2.9795 H       1  LIG1        0.0643
     48 C          -1.6851    2.6107   -2.8004 C.3     1  LIG1        0.0770
     49 O          -0.7344    2.0122   -1.9233 O.3     1  LIG1       -0.3664
     50 O          -3.2744    3.8578   -1.4490 O.3     1  LIG1       -0.3869
     51 H          -0.1286   -2.9663   -0.9878 H       1  LIG1        0.2922
     52 H           3.4206   -5.3077   -0.9584 H       1  LIG1        0.0584
     53 H           1.9011   -5.7245   -1.7381 H       1  LIG1        0.0584
     54 H           3.5856   -7.3079   -0.1436 H       1  LIG1        0.2095
     55 H          -1.9359   -3.9424    2.9336 H       1  LIG1        0.2100
     56 H          -1.5188   -6.9804    1.8195 H       1  LIG1        0.2100
     57 H           1.1805   -7.7826    0.2194 H       1  LIG1        0.2100
     58 H           2.3375   -0.5259    3.4040 H       1  LIG1        0.2922
     59 H           2.4034    3.6357    2.6553 H       1  LIG1        0.0693
     60 H          -0.7938    4.5252   -0.5001 H       1  LIG1        0.0662
     61 H          -1.6872    6.2891   -1.5640 H       1  LIG1        0.2923
     62 H           3.0535    7.5511    0.3852 H       1  LIG1        0.0655
     63 H           3.1225    5.2384    1.1958 H       1  LIG1        0.0626
     64 H           0.2472    8.6986   -1.4452 H       1  LIG1        0.2923
     65 H          -2.4302   -1.0566   -3.1039 H       1  LIG1        0.2100
     66 H          -2.0670    2.1360    0.1471 H       1  LIG1        0.2100
     67 H          -1.3487    3.6370   -2.9851 H       1  LIG1        0.0587
     68 H          -1.6726    2.0779   -3.7564 H       1  LIG1        0.0587
     69 H          -3.5730    3.5927   -0.5528 H       1  LIG1        0.2100
@<TRIPOS>BOND
     1     1     2    1
     2     2     3   ar
     3     3     4   ar
     4     4     5   ar
     5     5     6   ar
     6     6     7   ar
     7     2     7   ar
     8     7     8    1
     9     8     9    1
    10     8    10    1
    11    10    11    1
    12    11    12    1
    13    11    13    1
    14    13    14    1
    15    11    15    1
    16    15    17    1
    17    17    18    1
    18    17    19    1
    19     8    19    1
    20    17    22    1
    21     6    24    1
    22     5    25   ar
    23    25    26    2
    24    25    27   ar
    25    27    28   ar
    26    28    29   ar
    27     4    29   ar
    28    28    30    1
    29    30    31   ar
    30    31    32   ar
    31    32    33    1
    32    32    34   ar
    33    34    35   ar
    34    35    36   ar
    35    30    36   ar
    36    34    37    1
    37    38    40    1
    38    40    43    1
    39    43    46    1
    40    46    48    1
    41    48    49    1
    42    38    49    1
    43    15    23    1
    44    15    16    1
    45    19    21    1
    46    19    20    1
    47    38    39    1
    48    38     3    1
    49    40    42    1
    50    40    41    1
    51    43    45    1
    52    43    44    1
    53    46    50    1
    54    46    47    1
    55     1    51    1
    56    13    52    1
    57    13    53    1
    58    14    54    1
    59    21    55    1
    60    22    56    1
    61    23    57    1
    62    24    58    1
    63    27    59    1
    64    31    60    1
    65    33    61    1
    66    35    62    1
    67    36    63    1
    68    37    64    1
    69    42    65    1
    70    45    66    1
    71    48    67    1
    72    48    68    1
    73    50    69    1
