REMARK  Name = NuBBE_1530
REMARK  3 active torsions:
REMARK  status: ('A' for Active; 'I' for Inactive)
REMARK    1  A    between atoms: C_1  and  C_2
REMARK    2  A    between atoms: C_4  and  C_6
REMARK    3  A    between atoms: C_13  and  C_15
REMARK                            x       y       z     vdW  Elec       q    Type
REMARK                         _______ _______ _______ _____ _____    ______ ____
ROOT
ATOM      1  C   LIG A   1      -0.798  -0.440  -2.226  0.00  0.00    +0.018 C 
ATOM      2  C   LIG A   1      -0.346  -0.437  -0.740  0.00  0.00    +0.051 C 
ATOM      3  C   LIG A   1       0.722   0.595  -0.565  0.00  0.00    +0.203 C 
ATOM      4  C   LIG A   1       0.337   2.022  -0.260  0.00  0.00    +0.108 C 
ATOM      5  O   LIG A   1       0.851   1.158   0.761  0.00  0.00    -0.349 OA
ATOM      6  C   LIG A   1       1.254   3.154  -0.604  0.00  0.00    +0.045 C 
ATOM      7  C   LIG A   1      -1.102   2.385   0.040  0.00  0.00    +0.038 C 
ATOM      8  C   LIG A   1      -2.121   1.239  -0.073  0.00  0.00    +0.004 C 
ATOM      9  C   LIG A   1      -1.550  -0.166   0.174  0.00  0.00    +0.014 C 
ATOM     10  C   LIG A   1       1.992  -0.010  -0.994  0.00  0.00    +0.344 C 
ATOM     11  O   LIG A   1       2.987   0.593  -1.358  0.00  0.00    -0.247 OA
ATOM     12  O   LIG A   1       1.839  -1.373  -0.979  0.00  0.00    -0.454 OA
ATOM     13  C   LIG A   1       0.504  -1.713  -0.498  0.00  0.00    +0.219 C 
ENDROOT
BRANCH  13  14
ATOM     14  C   LIG A   1       0.541  -2.240   0.902  0.00  0.00    +0.031 A 
ATOM     15  C   LIG A   1       1.374  -1.832   1.986  0.00  0.00    +0.048 A 
ATOM     16  C   LIG A   1       1.030  -2.614   3.063  0.00  0.00    +0.195 A 
ATOM     17  O   LIG A   1       0.048  -3.484   2.721  0.00  0.00    -0.471 OA
ATOM     18  C   LIG A   1      -0.239  -3.260   1.415  0.00  0.00    +0.202 A 
ENDBRANCH  13  14
TORSDOF 1
