REMARK  Name = NuBBE_417
REMARK  17 active torsions:
REMARK  status: ('A' for Active; 'I' for Inactive)
REMARK    1  A    between atoms: C_4  and  O_12
REMARK    2  A    between atoms: C_8  and  C_9
REMARK    3  A    between atoms: C_9  and  O_10
REMARK    4  A    between atoms: O_12  and  C_13
REMARK    5  A    between atoms: C_16  and  C_24
REMARK    6  A    between atoms: C_18  and  O_23
REMARK    7  A    between atoms: C_20  and  O_22
REMARK    8  A    between atoms: C_24  and  O_25
REMARK    9  A    between atoms: C_26  and  O_28
REMARK   10  A    between atoms: O_28  and  C_29
REMARK   11  A    between atoms: C_29  and  C_30
REMARK   12  A    between atoms: C_31  and  C_32
REMARK   13  A    between atoms: C_34  and  O_35
REMARK   14  A    between atoms: O_35  and  C_36
REMARK   15  A    between atoms: C_37  and  O_40
REMARK   16  A    between atoms: C_44  and  O_49
REMARK   17  A    between atoms: C_46  and  C_48
REMARK                            x       y       z     vdW  Elec       q    Type
REMARK                         _______ _______ _______ _____ _____    ______ ____
ROOT
ATOM      1  C   LIG A   1      -0.658  -0.063   1.823  0.00  0.00    +0.298 C 
ATOM      2  O   LIG A   1      -0.184  -0.299   3.148  0.00  0.00    -0.339 OA
ATOM      3  C   LIG A   1      -1.193  -0.478   4.151  0.00  0.00    +0.178 C 
ATOM      4  C   LIG A   1      -2.063   0.785   4.231  0.00  0.00    +0.178 C 
ATOM      5  C   LIG A   1      -2.698   1.127   2.878  0.00  0.00    +0.191 C 
ATOM      6  C   LIG A   1      -1.690   1.083   1.720  0.00  0.00    +0.263 C 
ENDROOT
BRANCH   5   7
ATOM      7  O   LIG A   1      -3.789   0.227   2.640  0.00  0.00    -0.385 OA
ATOM      8  H   LIG A   1      -4.285   0.568   1.872  0.00  0.00    +0.210 HD
ENDBRANCH   5   7
BRANCH   4   9
ATOM      9  O   LIG A   1      -1.262   1.891   4.671  0.00  0.00    -0.386 OA
ATOM     10  H   LIG A   1      -0.410   1.838   4.199  0.00  0.00    +0.210 HD
ENDBRANCH   4   9
BRANCH   1  11
ATOM     11  O   LIG A   1      -1.162  -1.235   1.198  0.00  0.00    -0.308 OA
BRANCH  11  14
ATOM     12  C   LIG A   1      -1.160  -3.127  -1.075  0.00  0.00    +0.041 C 
ATOM     13  C   LIG A   1      -0.821  -3.450   0.394  0.00  0.00    +0.071 C 
ATOM     14  C   LIG A   1      -0.162  -2.255   1.077  0.00  0.00    +0.313 C 
ATOM     15  O   LIG A   1       1.011  -1.808   0.381  0.00  0.00    -0.470 OA
ATOM     16  C   LIG A   1       0.895  -1.726  -0.980  0.00  0.00    +0.201 C 
ATOM     17  C   LIG A   1      -0.080  -2.284  -1.712  0.00  0.00    +0.074 C 
ATOM     18  C   LIG A   1      -1.345  -4.526  -1.692  0.00  0.00    +0.040 C 
ATOM     19  C   LIG A   1      -0.574  -5.517  -0.808  0.00  0.00    +0.118 C 
ATOM     20  C   LIG A   1       0.090  -4.685   0.294  0.00  0.00    +0.024 C 
ATOM     21  C   LIG A   1       0.276  -5.396   1.629  0.00  0.00    +0.010 C 
BRANCH  17  22
ATOM     22  C   LIG A   1      -0.137  -2.016  -3.160  0.00  0.00    +0.336 C 
ATOM     23  O   LIG A   1      -1.116  -2.183  -3.871  0.00  0.00    -0.245 OA
BRANCH  22  24
ATOM     24  O   LIG A   1       1.024  -1.581  -3.674  0.00  0.00    -0.477 OA
ATOM     25  H   LIG A   1       0.838  -1.465  -4.627  0.00  0.00    +0.295 HD
ENDBRANCH  22  24
ENDBRANCH  17  22
BRANCH  19  26
ATOM     26  O   LIG A   1      -1.483  -6.460  -0.256  0.00  0.00    -0.392 OA
ATOM     27  H   LIG A   1      -1.830  -6.996  -0.991  0.00  0.00    +0.210 HD
ENDBRANCH  19  26
ENDBRANCH  11  14
ENDBRANCH   1  11
BRANCH   3  28
ATOM     28  C   LIG A   1      -1.985  -1.791   4.013  0.00  0.00    +0.190 C 
BRANCH  28  29
ATOM     29  O   LIG A   1      -2.935  -1.941   5.062  0.00  0.00    -0.392 OA
ATOM     30  H   LIG A   1      -3.677  -1.341   4.858  0.00  0.00    +0.209 HD
ENDBRANCH  28  29
ENDBRANCH   3  28
BRANCH   6  31
ATOM     31  O   LIG A   1      -0.916   2.305   1.670  0.00  0.00    -0.450 OA
BRANCH  31  32
ATOM     32  C   LIG A   1      -1.112   3.036   0.547  0.00  0.00    +0.332 C 
ATOM     33  O   LIG A   1      -2.128   3.046  -0.138  0.00  0.00    -0.246 OA
BRANCH  32  34
ATOM     34  C   LIG A   1       0.162   3.669   0.179  0.00  0.00    +0.092 C 
ATOM     35  C   LIG A   1       0.428   3.927  -1.114  0.00  0.00    +0.015 C 
BRANCH  35  36
ATOM     36  C   LIG A   1       1.680   4.548  -1.575  0.00  0.00    -0.021 A 
ATOM     37  C   LIG A   1       2.154   4.274  -2.870  0.00  0.00    +0.057 A 
ATOM     38  C   LIG A   1       3.306   4.903  -3.352  0.00  0.00    +0.162 A 
ATOM     39  C   LIG A   1       3.980   5.806  -2.524  0.00  0.00    +0.159 A 
ATOM     40  C   LIG A   1       3.532   6.088  -1.244  0.00  0.00    +0.050 A 
ATOM     41  C   LIG A   1       2.378   5.465  -0.774  0.00  0.00    +0.012 A 
BRANCH  38  42
ATOM     42  O   LIG A   1       3.862   4.729  -4.595  0.00  0.00    -0.491 OA
ATOM     43  C   LIG A   1       3.174   3.847  -5.476  0.00  0.00    +0.277 C 
ENDBRANCH  38  42
BRANCH  39  44
ATOM     44  O   LIG A   1       5.102   6.451  -2.969  0.00  0.00    -0.503 OA
ATOM     45  H   LIG A   1       5.227   6.139  -3.885  0.00  0.00    +0.292 HD
ENDBRANCH  39  44
ENDBRANCH  35  36
ENDBRANCH  32  34
ENDBRANCH  31  32
ENDBRANCH   6  31
TORSDOF 15
