@<TRIPOS>MOLECULE
NuBBE_2204
 32 32 0 0 0
SMALL
GASTEIGER

@<TRIPOS>ATOM
      1 C          -1.3922   -0.2352   -0.4145 C.2     1  LIG1        0.1895
      2 O          -2.1472    0.5429   -0.9893 O.2     1  LIG1       -0.2872
      3 C          -1.8726   -1.2842    0.5434 C.2     1  LIG1       -0.0155
      4 C          -3.1067   -1.8043    0.6993 C.2     1  LIG1       -0.0721
      5 C          -4.3480   -1.4335   -0.0565 C.3     1  LIG1       -0.0436
      6 C          -3.3131   -2.9044    1.7116 C.3     1  LIG1       -0.0436
      7 C           0.0882   -0.0947   -0.5582 C.ar    1  LIG1        0.0633
      8 C           0.6201    1.2051   -0.6388 C.ar    1  LIG1       -0.0418
      9 C           2.0108    1.4190   -0.6909 C.ar    1  LIG1       -0.0185
     10 C           2.5773    2.8257   -0.6882 C.3     1  LIG1        0.0774
     11 C           2.8305    3.3258    0.7300 C.3     1  LIG1       -0.0348
     12 O           3.8051    2.8575   -1.4117 O.3     1  LIG1       -0.3875
     13 C           2.8605    0.3018   -0.6959 C.ar    1  LIG1       -0.0526
     14 C           2.3421   -0.9920   -0.6621 C.ar    1  LIG1       -0.0191
     15 C           0.9626   -1.1900   -0.5938 C.ar    1  LIG1        0.1277
     16 O           0.4833   -2.4706   -0.5741 O.3     1  LIG1       -0.5061
     17 H          -1.0802   -1.6723    1.1800 H       1  LIG1        0.0655
     18 H          -4.2385   -0.5569   -0.6952 H       1  LIG1        0.0274
     19 H          -5.1610   -1.2166    0.6473 H       1  LIG1        0.0274
     20 H          -4.6687   -2.2716   -0.6858 H       1  LIG1        0.0274
     21 H          -2.4165   -3.0908    2.3144 H       1  LIG1        0.0274
     22 H          -3.5704   -3.8402    1.2028 H       1  LIG1        0.0274
     23 H          -4.1213   -2.6468    2.4009 H       1  LIG1        0.0274
     24 H          -0.0596    2.0566   -0.6410 H       1  LIG1        0.0629
     25 H           1.8821    3.4990   -1.2071 H       1  LIG1        0.0641
     26 H           3.5603    2.6932    1.2488 H       1  LIG1        0.0258
     27 H           1.9111    3.3472    1.3229 H       1  LIG1        0.0258
     28 H           3.2543    4.3358    0.7086 H       1  LIG1        0.0258
     29 H           4.1122    3.7791   -1.4139 H       1  LIG1        0.2102
     30 H           3.9395    0.4410   -0.7379 H       1  LIG1        0.0622
     31 H           3.0326   -1.8318   -0.6862 H       1  LIG1        0.0654
     32 H           1.2232   -3.0937   -0.6689 H       1  LIG1        0.2922
@<TRIPOS>BOND
     1     1     2    2
     2     1     3    1
     3     3     4    2
     4     4     5    1
     5     4     6    1
     6     1     7    1
     7     7     8   ar
     8     8     9   ar
     9     9    10    1
    10    10    11    1
    11    10    12    1
    12     9    13   ar
    13    13    14   ar
    14    14    15   ar
    15     7    15   ar
    16    15    16    1
    17     3    17    1
    18     5    18    1
    19     5    19    1
    20     5    20    1
    21     6    21    1
    22     6    22    1
    23     6    23    1
    24     8    24    1
    25    10    25    1
    26    11    26    1
    27    11    27    1
    28    11    28    1
    29    12    29    1
    30    13    30    1
    31    14    31    1
    32    16    32    1
