@<TRIPOS>MOLECULE
NuBBE_546
 80 83 0 0 0
SMALL
GASTEIGER

@<TRIPOS>ATOM
      1 O           7.2205   -2.7766    4.5336 O.3     1  LIG1       -0.5033
      2 C           5.9059   -2.4508    4.3802 C.ar    1  LIG1        0.1582
      3 C           5.5513   -1.1355    4.0908 C.ar    1  LIG1        0.1588
      4 C           4.2237   -0.7970    3.9036 C.ar    1  LIG1       -0.0094
      5 C           3.2538   -1.7987    4.0187 C.ar    1  LIG1       -0.0211
      6 C           3.6140   -3.1189    4.3130 C.ar    1  LIG1       -0.0509
      7 C           4.9490   -3.4462    4.5009 C.ar    1  LIG1       -0.0160
      8 C           1.8443   -1.5393    3.8108 C.2     1  LIG1       -0.0477
      9 C           1.2683   -0.3728    4.1141 C.2     1  LIG1        0.0231
     10 C          -0.1716   -0.1454    3.8701 C.2     1  LIG1        0.3324
     11 O          -0.5690   -1.1511    3.0340 O.3     1  LIG1       -0.4528
     12 C          -1.2291   -0.8667    1.7804 C.3     1  LIG1        0.1602
     13 H          -2.2288   -1.2304    1.9829 H       1  LIG1        0.0788
     14 C          -0.5137   -1.7868    0.6895 C.3     1  LIG1        0.1240
     15 H           0.1971   -2.4414    1.2013 H       1  LIG1        0.0658
     16 O           0.1923   -1.0096   -0.2787 O.3     1  LIG1       -0.3394
     17 C           1.0657   -0.0893    0.3305 C.3     1  LIG1        0.1880
     18 H           1.6276   -0.6187    1.1089 H       1  LIG1        0.0937
     19 C           0.2267    1.0791    0.9344 C.3     1  LIG1        0.1355
     20 H           0.0551    1.8559    0.1993 H       1  LIG1        0.0671
     21 C          -1.2101    0.6372    1.4087 C.3     1  LIG1        0.1316
     22 H          -1.4657    1.2891    2.2417 H       1  LIG1        0.0663
     23 O          -2.2246    0.9100    0.4092 O.3     1  LIG1       -0.3389
     24 C          -3.5917    0.9520    0.9161 C.3     1  LIG1        0.1884
     25 H          -3.6499    1.5513    1.8323 H       1  LIG1        0.0938
     26 C          -4.5577    1.5028   -0.1518 C.3     1  LIG1        0.1341
     27 H          -4.4220    2.5714   -0.3239 H       1  LIG1        0.0671
     28 C          -4.3032    0.7292   -1.4498 C.3     1  LIG1        0.1140
     29 H          -3.2757    0.9062   -1.7943 H       1  LIG1        0.0648
     30 C          -4.5427   -0.7650   -1.2495 C.3     1  LIG1        0.1095
     31 H          -5.6103   -0.9780   -1.2858 H       1  LIG1        0.0646
     32 C          -4.0530   -1.2531    0.1390 C.3     1  LIG1        0.0873
     33 H          -3.0086   -1.3505    0.1750 H       1  LIG1        0.0621
     34 O          -4.1789   -0.3412    1.2344 O.3     1  LIG1       -0.3431
     35 C          -4.5596   -2.6382    0.4888 C.3     1  LIG1       -0.0361
     36 O          -4.0536   -1.4339   -2.4281 O.3     1  LIG1       -0.3866
     37 O          -5.1360    1.1789   -2.5230 O.3     1  LIG1       -0.3864
     38 O          -5.9120    1.2923    0.3087 O.3     1  LIG1       -0.3841
     39 O           0.9722    1.7831    1.9440 O.3     1  LIG1       -0.3841
     40 O           2.0696    0.3160   -0.6103 O.3     1  LIG1       -0.3484
     41 C           1.4955    1.0063   -1.7143 C.3     1  LIG1        0.0547
     42 C           2.5109    1.4174   -2.7667 C.3     1  LIG1       -0.0039
     43 C           1.8635    2.2002   -3.8938 C.ar    1  LIG1       -0.0415
     44 C           2.4435    2.1645   -5.1690 C.ar    1  LIG1       -0.0133
     45 C           1.9130    2.9537   -6.1850 C.ar    1  LIG1        0.1585
     46 O           2.4623    2.9763   -7.4370 O.3     1  LIG1       -0.5033
     47 C           0.8076    3.7680   -5.9506 C.ar    1  LIG1        0.1582
     48 C           0.1968    3.7924   -4.7131 C.ar    1  LIG1       -0.0163
     49 C           0.7304    3.0182   -3.6871 C.ar    1  LIG1       -0.0548
     50 O           0.3256    4.5745   -6.9389 O.3     1  LIG1       -0.5033
     51 C          -1.3470   -2.7402   -0.1886 C.3     1  LIG1        0.0741
     52 O          -1.9291   -2.0522   -1.3075 O.3     1  LIG1       -0.3923
     53 O          -0.7317    0.8428    4.1798 O.2     1  LIG1       -0.2456
     54 O           6.5469   -0.2060    3.9870 O.3     1  LIG1       -0.5033
     55 H           7.6956   -1.9362    4.3790 H       1  LIG1        0.2923
     56 H           3.9499    0.2251    3.6655 H       1  LIG1        0.0661
     57 H           2.8554   -3.8945    4.4061 H       1  LIG1        0.0625
     58 H           5.2355   -4.4663    4.7309 H       1  LIG1        0.0655
     59 H           1.2706   -2.3805    3.4226 H       1  LIG1        0.0626
     60 H           1.8005    0.5004    4.4699 H       1  LIG1        0.0689
     61 H          -4.2887   -3.3675   -0.2855 H       1  LIG1        0.0255
     62 H          -5.6401   -2.6101    0.6011 H       1  LIG1        0.0255
     63 H          -4.1265   -2.9814    1.4369 H       1  LIG1        0.0255
     64 H          -3.0736   -1.4614   -2.4378 H       1  LIG1        0.2100
     65 H          -5.0379    0.5065   -3.2271 H       1  LIG1        0.2100
     66 H          -5.9256    0.4139    0.7441 H       1  LIG1        0.2101
     67 H           1.5841    1.1799    2.3902 H       1  LIG1        0.2101
     68 H           1.0790    1.9287   -1.3249 H       1  LIG1        0.0564
     69 H           0.6958    0.4129   -2.1749 H       1  LIG1        0.0564
     70 H           3.0165    0.5255   -3.1541 H       1  LIG1        0.0335
     71 H           3.2866    2.0417   -2.3050 H       1  LIG1        0.0335
     72 H           3.3066    1.5310   -5.3504 H       1  LIG1        0.0658
     73 H           3.2219    2.3692   -7.4405 H       1  LIG1        0.2923
     74 H          -0.6712    4.4196   -4.5341 H       1  LIG1        0.0655
     75 H           0.2335    3.0884   -2.7237 H       1  LIG1        0.0621
     76 H           0.9398    4.4318   -7.6851 H       1  LIG1        0.2923
     77 H          -2.0721   -3.2904    0.4217 H       1  LIG1        0.0584
     78 H          -0.7337   -3.4848   -0.6909 H       1  LIG1        0.0584
     79 H          -1.8036   -1.0943   -1.1370 H       1  LIG1        0.2095
     80 H           6.1434    0.6571    3.7881 H       1  LIG1        0.2923
@<TRIPOS>BOND
     1     1     2    1
     2     2     3   ar
     3     3     4   ar
     4     4     5   ar
     5     5     6   ar
     6     6     7   ar
     7     2     7   ar
     8     5     8    1
     9     8     9    2
    10     9    10    1
    11    10    11    1
    12    12    14    1
    13    14    15    1
    14    14    16    1
    15    16    17    1
    16    17    19    1
    17    19    20    1
    18    19    21    1
    19    12    21    1
    20    23    24    1
    21    24    25    1
    22    24    26    1
    23    26    28    1
    24    28    29    1
    25    28    30    1
    26    30    32    1
    27    32    33    1
    28    32    34    1
    29    24    34    1
    30    32    35    1
    31    28    37    1
    32    19    39    1
    33    40    41    1
    34    41    42    1
    35    42    43    1
    36    43    44   ar
    37    44    45   ar
    38    45    46    1
    39    45    47   ar
    40    47    48   ar
    41    48    49   ar
    42    43    49   ar
    43    47    50    1
    44    14    51    1
    45    51    52    1
    46    10    53    2
    47     3    54    1
    48    12    13    1
    49    12    11    1
    50    17    40    1
    51    17    18    1
    52    21    23    1
    53    21    22    1
    54    26    38    1
    55    26    27    1
    56    30    36    1
    57    30    31    1
    58     1    55    1
    59     4    56    1
    60     6    57    1
    61     7    58    1
    62     8    59    1
    63     9    60    1
    64    35    61    1
    65    35    62    1
    66    35    63    1
    67    36    64    1
    68    37    65    1
    69    38    66    1
    70    39    67    1
    71    41    68    1
    72    41    69    1
    73    42    70    1
    74    42    71    1
    75    44    72    1
    76    46    73    1
    77    48    74    1
    78    49    75    1
    79    50    76    1
    80    51    77    1
    81    51    78    1
    82    52    79    1
    83    54    80    1
