REMARK  Name = NuBBE_2184
REMARK  10 active torsions:
REMARK  status: ('A' for Active; 'I' for Inactive)
REMARK    1  A    between atoms: C_1  and  C_3
REMARK    2  A    between atoms: C_1  and  C_13
REMARK    3  A    between atoms: C_1  and  C_14
REMARK    4  A    between atoms: C_3  and  C_4
REMARK    5  A    between atoms: C_15  and  O_16
REMARK    6  A    between atoms: C_17  and  O_18
REMARK    7  A    between atoms: O_18  and  C_19
REMARK    8  A    between atoms: C_21  and  C_23
REMARK    9  A    between atoms: C_23  and  C_24
REMARK   10  A    between atoms: C_24  and  C_25
REMARK                            x       y       z     vdW  Elec       q    Type
REMARK                         _______ _______ _______ _____ _____    ______ ____
ROOT
ATOM      1  C   LIG A   1      -0.189  -1.038  -0.237  0.00  0.00    +0.001 A 
ATOM      2  C   LIG A   1       0.711  -0.037  -0.630  0.00  0.00    +0.162 A 
ATOM      3  C   LIG A   1       2.063  -0.010  -0.266  0.00  0.00    +0.162 A 
ATOM      4  C   LIG A   1       2.626  -1.195   0.179  0.00  0.00    +0.053 A 
ATOM      5  C   LIG A   1       1.826  -2.333   0.331  0.00  0.00    -0.043 A 
ATOM      6  C   LIG A   1       0.421  -2.223   0.190  0.00  0.00    +0.011 A 
ENDROOT
BRANCH   1   7
ATOM      7  C   LIG A   1      -1.726  -0.842  -0.156  0.00  0.00    +0.024 C 
ATOM      8  C   LIG A   1      -2.457  -2.123  -0.611  0.00  0.00    +0.013 C 
BRANCH   7   9
ATOM      9  C   LIG A   1      -2.409   0.411  -0.839  0.00  0.00    +0.043 C 
BRANCH   9  10
ATOM     10  C   LIG A   1      -2.219   1.828  -0.238  0.00  0.00    -0.043 A 
ATOM     11  C   LIG A   1      -2.773   2.954  -0.893  0.00  0.00    +0.053 A 
ATOM     12  C   LIG A   1      -2.278   4.203  -0.560  0.00  0.00    +0.167 A 
ATOM     13  C   LIG A   1      -1.200   4.366   0.262  0.00  0.00    +0.166 A 
ATOM     14  C   LIG A   1      -0.662   3.294   0.961  0.00  0.00    +0.050 A 
ATOM     15  C   LIG A   1      -1.289   2.059   0.798  0.00  0.00    +0.007 A 
ATOM     16  O   LIG A   1      -0.752   5.636   0.340  0.00  0.00    -0.453 OA
ATOM     17  C   LIG A   1      -1.885   6.308  -0.254  0.00  0.00    +0.466 C 
ATOM     18  O   LIG A   1      -2.723   5.415  -1.016  0.00  0.00    -0.453 OA
ENDBRANCH   9  10
ENDBRANCH   7   9
ENDBRANCH   1   7
BRANCH   2  19
ATOM     19  O   LIG A   1       0.205   1.051  -1.253  0.00  0.00    -0.503 OA
ATOM     20  H   LIG A   1       0.331   1.730  -0.566  0.00  0.00    +0.292 HD
ENDBRANCH   2  19
BRANCH   3  21
ATOM     21  O   LIG A   1       2.856   1.118  -0.256  0.00  0.00    -0.491 OA
ATOM     22  C   LIG A   1       2.592   2.192  -1.162  0.00  0.00    +0.277 C 
ENDBRANCH   3  21
BRANCH   5  23
ATOM     23  C   LIG A   1       2.469  -3.676   0.578  0.00  0.00    +0.035 C 
BRANCH  23  24
ATOM     24  C   LIG A   1       1.569  -4.632   1.364  0.00  0.00    +0.001 C 
ATOM     25  C   LIG A   1       2.211  -5.980   1.590  0.00  0.00    +0.004 C 
ENDBRANCH  23  24
ENDBRANCH   5  23
TORSDOF 7
