REMARK  Name = NuBBE_45
REMARK  14 active torsions:
REMARK  status: ('A' for Active; 'I' for Inactive)
REMARK    1  A    between atoms: O_1  and  C_2
REMARK    2  A    between atoms: C_4  and  C_6
REMARK    3  A    between atoms: C_8  and  C_10
REMARK    4  A    between atoms: C_10  and  C_11
REMARK    5  A    between atoms: C_11  and  C_12
REMARK    6  A    between atoms: C_12  and  C_13
REMARK    7  A    between atoms: C_13  and  C_14
REMARK    8  A    between atoms: C_14  and  C_15
REMARK    9  A    between atoms: C_15  and  C_16
REMARK   10  A    between atoms: C_16  and  C_17
REMARK   11  A    between atoms: C_17  and  C_18
REMARK   12  A    between atoms: C_18  and  C_19
REMARK   13  A    between atoms: C_19  and  C_20
REMARK   14  A    between atoms: C_20  and  C_21
REMARK                            x       y       z     vdW  Elec       q    Type
REMARK                         _______ _______ _______ _____ _____    ______ ____
ROOT
ATOM      1  C   LIG A   1       0.332  -2.239  -2.343  0.00  0.00    +0.002 C 
ENDROOT
BRANCH   1   2
ATOM      2  C   LIG A   1      -0.102  -0.931  -1.696  0.00  0.00    +0.019 C 
BRANCH   2   7
ATOM      3  C   LIG A   1      -1.384   3.015  -2.566  0.00  0.00    +0.131 C 
ATOM      4  C   LIG A   1      -0.466   2.837  -1.358  0.00  0.00    +0.079 C 
ATOM      5  C   LIG A   1      -0.806   3.708  -0.134  0.00  0.00    +0.026 C 
ATOM      6  N   LIG A   1      -0.665   1.423  -1.096  0.00  0.00    -0.308 NA
ATOM      7  C   LIG A   1      -0.021   0.529  -2.095  0.00  0.00    +0.054 C 
ATOM      8  C   LIG A   1      -0.706   0.656  -3.390  0.00  0.00    +0.021 C 
ATOM      9  C   LIG A   1      -0.866   2.127  -3.729  0.00  0.00    +0.034 C 
ATOM     10  H   LIG A   1      -1.614   1.177  -0.822  0.00  0.00    +0.122 HD
BRANCH   3  11
ATOM     11  O   LIG A   1      -2.723   2.600  -2.227  0.00  0.00    -0.390 OA
ATOM     12  H   LIG A   1      -2.983   3.084  -1.424  0.00  0.00    +0.210 HD
ENDBRANCH   3  11
ENDBRANCH   2   7
ENDBRANCH   1   2
BRANCH   1  13
ATOM     13  C   LIG A   1       0.022  -3.593  -1.577  0.00  0.00    +0.000 C 
BRANCH  13  14
ATOM     14  C   LIG A   1       0.701  -4.117  -0.257  0.00  0.00    -0.000 C 
BRANCH  14  15
ATOM     15  C   LIG A   1       0.395  -3.593   1.165  0.00  0.00    -0.000 C 
BRANCH  15  16
ATOM     16  C   LIG A   1       0.947  -2.234   1.562  0.00  0.00    -0.000 C 
BRANCH  16  17
ATOM     17  C   LIG A   1       0.114  -1.152   0.971  0.00  0.00    +0.000 C 
BRANCH  17  18
ATOM     18  C   LIG A   1       0.843   0.196   0.899  0.00  0.00    +0.000 C 
BRANCH  18  19
ATOM     19  C   LIG A   1       0.509   1.105   2.030  0.00  0.00    +0.007 C 
BRANCH  19  20
ATOM     20  C   LIG A   1       1.384   0.498   3.112  0.00  0.00    +0.074 C 
BRANCH  20  21
ATOM     21  C   LIG A   1       1.093   1.082   4.376  0.00  0.00    +0.130 C 
ATOM     22  C   LIG A   1      -0.011   0.532   5.176  0.00  0.00    +0.086 C 
ATOM     23  O   LIG A   1       1.796   2.094   4.777  0.00  0.00    -0.298 OA
ENDBRANCH  20  21
ENDBRANCH  19  20
ENDBRANCH  18  19
ENDBRANCH  17  18
ENDBRANCH  16  17
ENDBRANCH  15  16
ENDBRANCH  14  15
ENDBRANCH  13  14
ENDBRANCH   1  13
TORSDOF 12
