REMARK  Name = NuBBE_208
REMARK  21 active torsions:
REMARK  status: ('A' for Active; 'I' for Inactive)
REMARK    1  A    between atoms: C_1  and  O_2
REMARK    2  A    between atoms: O_2  and  C_3
REMARK    3  A    between atoms: C_4  and  O_49
REMARK    4  A    between atoms: C_5  and  O_6
REMARK    5  A    between atoms: O_6  and  C_7
REMARK    6  A    between atoms: C_9  and  C_38
REMARK    7  A    between atoms: C_11  and  C_20
REMARK    8  A    between atoms: C_13  and  C_18
REMARK    9  A    between atoms: C_18  and  O_19
REMARK   10  A    between atoms: C_20  and  O_21
REMARK   11  A    between atoms: O_21  and  C_22
REMARK   12  A    between atoms: C_24  and  O_37
REMARK   13  A    between atoms: C_26  and  O_36
REMARK   14  A    between atoms: C_28  and  O_35
REMARK   15  A    between atoms: C_30  and  C_33
REMARK   16  A    between atoms: C_33  and  O_34
REMARK   17  A    between atoms: C_40  and  O_41
REMARK   18  A    between atoms: O_41  and  C_42
REMARK   19  A    between atoms: C_43  and  O_48
REMARK   20  A    between atoms: C_44  and  O_45
REMARK   21  A    between atoms: O_45  and  C_46
REMARK                            x       y       z     vdW  Elec       q    Type
REMARK                         _______ _______ _______ _____ _____    ______ ____
ROOT
ATOM      1  C   LIG A   1      -2.024  -3.109  -0.186  0.00  0.00    +0.165 A 
ATOM      2  C   LIG A   1      -1.431  -2.588  -1.339  0.00  0.00    +0.201 A 
ATOM      3  C   LIG A   1      -0.931  -1.270  -1.390  0.00  0.00    +0.169 A 
ATOM      4  C   LIG A   1      -1.029  -0.480  -0.205  0.00  0.00    +0.009 A 
ATOM      5  C   LIG A   1      -0.571   0.986  -0.100  0.00  0.00    +0.059 C 
ATOM      6  C   LIG A   1       0.350   1.144   1.185  0.00  0.00    +0.032 C 
ATOM      7  C   LIG A   1      -0.297   0.635   2.502  0.00  0.00    +0.025 C 
ATOM      8  C   LIG A   1      -1.527  -0.277   2.292  0.00  0.00    +0.041 C 
ATOM      9  C   LIG A   1      -1.549  -1.041   0.986  0.00  0.00    -0.036 A 
ATOM     10  C   LIG A   1      -2.089  -2.336   0.962  0.00  0.00    +0.053 A 
ENDROOT
BRANCH   5  11
ATOM     11  C   LIG A   1      -1.727   1.994  -0.203  0.00  0.00    -0.032 A 
ATOM     12  C   LIG A   1      -3.054   1.623  -0.482  0.00  0.00    +0.053 A 
ATOM     13  C   LIG A   1      -4.098   2.568  -0.560  0.00  0.00    +0.165 A 
ATOM     14  C   LIG A   1      -3.809   3.931  -0.544  0.00  0.00    +0.201 A 
ATOM     15  C   LIG A   1      -2.447   4.334  -0.352  0.00  0.00    +0.165 A 
ATOM     16  C   LIG A   1      -1.475   3.347  -0.123  0.00  0.00    +0.053 A 
BRANCH  14  17
ATOM     17  O   LIG A   1      -4.715   4.902  -0.737  0.00  0.00    -0.501 OA
ATOM     18  H   LIG A   1      -5.499   4.624  -0.275  0.00  0.00    +0.292 HD
ENDBRANCH  14  17
BRANCH  15  19
ATOM     19  O   LIG A   1      -2.113   5.675  -0.355  0.00  0.00    -0.491 OA
ATOM     20  C   LIG A   1      -0.768   5.956  -0.741  0.00  0.00    +0.277 C 
ENDBRANCH  15  19
BRANCH  13  21
ATOM     21  O   LIG A   1      -5.391   2.166  -0.677  0.00  0.00    -0.491 OA
ATOM     22  C   LIG A   1      -5.656   0.848  -0.137  0.00  0.00    +0.277 C 
ENDBRANCH  13  21
ENDBRANCH   5  11
BRANCH   2  23
ATOM     23  O   LIG A   1      -1.338  -3.460  -2.401  0.00  0.00    -0.501 OA
ATOM     24  H   LIG A   1      -1.276  -4.356  -1.989  0.00  0.00    +0.292 HD
ENDBRANCH   2  23
BRANCH   1  26
ATOM     25  C   LIG A   1      -3.560  -4.721   0.519  0.00  0.00    +0.277 C 
ATOM     26  O   LIG A   1      -2.422  -4.414  -0.260  0.00  0.00    -0.491 OA
ENDBRANCH   1  26
BRANCH   3  27
ATOM     27  O   LIG A   1      -0.253  -0.748  -2.472  0.00  0.00    -0.491 OA
ATOM     28  C   LIG A   1       0.087  -1.656  -3.539  0.00  0.00    +0.277 C 
ENDBRANCH   3  27
BRANCH   6  29
ATOM     29  C   LIG A   1       1.625   0.322   0.898  0.00  0.00    +0.168 C 
BRANCH  29  30
ATOM     30  O   LIG A   1       2.667   0.239   1.860  0.00  0.00    -0.348 OA
BRANCH  30  31
ATOM     31  C   LIG A   1       3.761  -0.625   1.410  0.00  0.00    +0.282 C 
ATOM     32  C   LIG A   1       3.348  -2.107   1.091  0.00  0.00    +0.201 C 
ATOM     33  C   LIG A   1       3.092  -2.347  -0.412  0.00  0.00    +0.179 C 
ATOM     34  C   LIG A   1       4.096  -1.655  -1.338  0.00  0.00    +0.177 C 
ATOM     35  C   LIG A   1       5.171  -0.908  -0.549  0.00  0.00    +0.178 C 
ATOM     36  O   LIG A   1       4.499   0.013   0.344  0.00  0.00    -0.341 OA
BRANCH  32  37
ATOM     37  O   LIG A   1       4.428  -2.987   1.485  0.00  0.00    -0.384 OA
ATOM     38  H   LIG A   1       4.114  -3.906   1.405  0.00  0.00    +0.210 HD
ENDBRANCH  32  37
BRANCH  33  39
ATOM     39  O   LIG A   1       1.798  -1.948  -0.833  0.00  0.00    -0.386 OA
ATOM     40  H   LIG A   1       1.816  -1.007  -1.094  0.00  0.00    +0.210 HD
ENDBRANCH  33  39
BRANCH  34  41
ATOM     41  O   LIG A   1       4.587  -2.595  -2.291  0.00  0.00    -0.387 OA
ATOM     42  H   LIG A   1       3.805  -2.916  -2.783  0.00  0.00    +0.210 HD
ENDBRANCH  34  41
BRANCH  35  43
ATOM     43  C   LIG A   1       6.035  -0.116  -1.543  0.00  0.00    +0.190 C 
BRANCH  43  44
ATOM     44  O   LIG A   1       7.068   0.609  -0.882  0.00  0.00    -0.392 OA
ATOM     45  H   LIG A   1       6.630   1.348  -0.422  0.00  0.00    +0.209 HD
ENDBRANCH  43  44
ENDBRANCH  35  43
ENDBRANCH  30  31
ENDBRANCH  29  30
ENDBRANCH   6  29
BRANCH   7  46
ATOM     46  C   LIG A   1      -0.571   1.798   3.471  0.00  0.00    +0.160 C 
BRANCH  46  47
ATOM     47  O   LIG A   1      -1.485   2.722   2.914  0.00  0.00    -0.395 OA
ATOM     48  H   LIG A   1      -1.490   3.515   3.478  0.00  0.00    +0.209 HD
ENDBRANCH  46  47
ENDBRANCH   7  46
TORSDOF 17
