@<TRIPOS>MOLECULE
NuBBE_2482
 54 56 0 0 0
SMALL
GASTEIGER

@<TRIPOS>ATOM
      1 C          -2.4110    0.4895   -2.7590 C.3     1  LIG1       -0.0185
      2 C          -2.4777    1.6556   -3.7203 C.2     1  LIG1       -0.0899
      3 C          -3.5340    2.4662   -3.8677 C.2     1  LIG1       -0.1026
      4 C          -1.7772    0.8117   -1.3578 C.3     1  LIG1        0.0595
      5 C          -0.3772    1.3058   -1.5186 C.2     1  LIG1        0.1130
      6 C           0.0144    2.5760   -1.3584 C.2     1  LIG1        0.0271
      7 C          -0.9733    3.5913   -0.9680 C.2     1  LIG1        0.2231
      8 O          -0.6429    4.7788   -1.0347 O.2     1  LIG1       -0.2839
      9 C          -2.3121    3.1013   -0.4577 C.2     1  LIG1        0.1637
     10 C          -2.6511    1.8217   -0.6504 C.2     1  LIG1       -0.0243
     11 O          -3.2331    3.9252    0.1967 O.2     1  LIG1       -0.4916
     12 C          -2.8527    5.2791    0.4225 C.3     1  LIG1        0.0790
     13 O           0.5234    0.2920   -1.7115 O.2     1  LIG1       -0.4872
     14 C          -0.0275   -0.8702   -1.0393 C.3     1  LIG1        0.1287
     15 H          -0.0930   -1.6398   -1.8199 H       1  LIG1        0.0787
     16 C          -1.4804   -0.5018   -0.5857 C.3     1  LIG1        0.0138
     17 H          -2.1482   -1.3046   -0.9294 H       1  LIG1        0.0350
     18 C          -1.7089   -0.3977    0.9287 C.3     1  LIG1       -0.0575
     19 C           0.9813   -1.3792   -0.0152 C.ar    1  LIG1        0.0001
     20 C           2.2091   -0.7300    0.1720 C.ar    1  LIG1       -0.0094
     21 C           3.1399   -1.1610    1.1249 C.ar    1  LIG1        0.1655
     22 O           4.3451   -0.5197    1.3141 O.3     1  LIG1       -0.4913
     23 C           4.3499    0.8790    1.0360 C.3     1  LIG1        0.0790
     24 C           2.8857   -2.3177    1.8890 C.ar    1  LIG1        0.2035
     25 C           1.6778   -3.0115    1.6857 C.ar    1  LIG1        0.1655
     26 C           0.7472   -2.5379    0.7356 C.ar    1  LIG1       -0.0094
     27 O           1.3876   -4.0913    2.4850 O.3     1  LIG1       -0.4913
     28 C           0.5846   -5.1029    1.8807 C.3     1  LIG1        0.0790
     29 O           3.8462   -2.6068    2.8261 O.3     1  LIG1       -0.4885
     30 C           4.0717   -3.9549    3.2099 C.3     1  LIG1        0.0791
     31 H          -1.8428   -0.3049   -3.2622 H       1  LIG1        0.0320
     32 H          -3.4200    0.0779   -2.6159 H       1  LIG1        0.0320
     33 H          -1.5930    1.8364   -4.3293 H       1  LIG1        0.0567
     34 H          -4.4368    2.3488   -3.2764 H       1  LIG1        0.0532
     35 H          -3.5030    3.2958   -4.5687 H       1  LIG1        0.0532
     36 H           1.0407    2.8869   -1.4643 H       1  LIG1        0.0691
     37 H          -3.6282    1.4973   -0.3165 H       1  LIG1        0.0620
     38 H          -3.6376    5.7548    1.0176 H       1  LIG1        0.0660
     39 H          -2.7843    5.8230   -0.5245 H       1  LIG1        0.0660
     40 H          -1.9238    5.3416    0.9986 H       1  LIG1        0.0660
     41 H          -1.0812    0.3678    1.3935 H       1  LIG1        0.0234
     42 H          -1.5291   -1.3505    1.4324 H       1  LIG1        0.0234
     43 H          -2.7578   -0.1593    1.1411 H       1  LIG1        0.0234
     44 H           2.4454    0.1220   -0.4558 H       1  LIG1        0.0659
     45 H           5.3254    1.2818    1.3239 H       1  LIG1        0.0660
     46 H           3.5813    1.3963    1.6210 H       1  LIG1        0.0660
     47 H           4.2304    1.0820   -0.0334 H       1  LIG1        0.0660
     48 H          -0.1969   -3.0546    0.5937 H       1  LIG1        0.0659
     49 H           0.6924   -6.0179    2.4704 H       1  LIG1        0.0660
     50 H           0.9118   -5.3247    0.8582 H       1  LIG1        0.0660
     51 H          -0.4724   -4.8187    1.8999 H       1  LIG1        0.0660
     52 H           5.1541   -4.1246    3.1966 H       1  LIG1        0.0660
     53 H           3.6328   -4.7042    2.5471 H       1  LIG1        0.0660
     54 H           3.7290   -4.0993    4.2397 H       1  LIG1        0.0660
@<TRIPOS>BOND
     1     1     2    1
     2     2     3    2
     3     1     4    1
     4     4     5    1
     5     5     6    2
     6     6     7    1
     7     7     8    2
     8     7     9    1
     9     9    10    2
    10     4    10    1
    11     9    11    1
    12    11    12    1
    13     5    13    1
    14    13    14    1
    15    14    16    1
    16     4    16    1
    17    19    20   ar
    18    20    21   ar
    19    21    22    1
    20    22    23    1
    21    21    24   ar
    22    24    25   ar
    23    25    26   ar
    24    19    26   ar
    25    25    27    1
    26    27    28    1
    27    24    29    1
    28    29    30    1
    29    14    19    1
    30    14    15    1
    31    16    18    1
    32    16    17    1
    33     1    31    1
    34     1    32    1
    35     2    33    1
    36     3    34    1
    37     3    35    1
    38     6    36    1
    39    10    37    1
    40    12    38    1
    41    12    39    1
    42    12    40    1
    43    18    41    1
    44    18    42    1
    45    18    43    1
    46    20    44    1
    47    23    45    1
    48    23    46    1
    49    23    47    1
    50    26    48    1
    51    28    49    1
    52    28    50    1
    53    28    51    1
    54    30    52    1
    55    30    53    1
    56    30    54    1
