@<TRIPOS>MOLECULE
NuBBE_2307
 48 51 0 0 0
SMALL
GASTEIGER

@<TRIPOS>ATOM
      1 C          -3.6329    0.0220    0.8532 C.ar    1  LIG1       -0.0159
      2 C          -4.0413    1.3120    0.6286 C.ar    1  LIG1        0.1662
      3 C          -3.2898    2.1800   -0.1234 C.ar    1  LIG1        0.1665
      4 C          -2.0671    1.8157   -0.6585 C.ar    1  LIG1       -0.0126
      5 C          -1.5819    0.5128   -0.4233 C.ar    1  LIG1       -0.0371
      6 C          -0.1583    0.1671   -0.9032 C.3     1  LIG1        0.0267
      7 H           0.0002    0.7273   -1.8357 H       1  LIG1        0.0385
      8 C           0.2171   -1.3269   -1.1647 C.3     1  LIG1        0.1675
      9 C           0.5894   -1.7890    0.2609 C.3     1  LIG1        0.1017
     10 C           1.5941   -0.6941    0.6914 C.3     1  LIG1        0.0282
     11 C           0.8741    0.6206    0.1967 C.3     1  LIG1       -0.0219
     12 H           0.3330    1.0584    1.0469 H       1  LIG1        0.0314
     13 C           1.7970    1.7234   -0.3386 C.3     1  LIG1       -0.0609
     14 C           2.8759   -0.9910   -0.0679 C.2     1  LIG1       -0.0296
     15 C           2.8534   -1.3537   -1.3581 C.2     1  LIG1        0.1589
     16 C           1.5164   -1.3725   -2.0520 C.2     1  LIG1        0.2314
     17 O           1.4826   -1.3516   -3.2878 O.2     1  LIG1       -0.2856
     18 O           3.9951   -1.6711   -2.0585 O.2     1  LIG1       -0.5035
     19 C           1.7966   -0.7312    2.2274 C.3     1  LIG1       -0.0230
     20 C           2.7438    0.3089    2.7692 C.2     1  LIG1       -0.0902
     21 C           4.0366    0.0769    3.0327 C.2     1  LIG1       -0.1026
     22 O           1.0905   -3.1229    0.3135 O.3     1  LIG1       -0.3876
     23 O          -0.8488   -2.1411   -1.6547 O.3     1  LIG1       -0.3654
     24 C          -1.3870   -1.7463   -2.9157 C.3     1  LIG1        0.0379
     25 C          -2.4084   -0.3785    0.3054 C.ar    1  LIG1       -0.0545
     26 O          -3.8816    3.3996   -0.2417 O.3     1  LIG1       -0.4526
     27 C          -5.0689    3.2054    0.5574 C.3     1  LIG1        0.2332
     28 O          -5.1870    1.8731    1.0945 O.3     1  LIG1       -0.4526
     29 H          -4.2369   -0.6633    1.4378 H       1  LIG1        0.0655
     30 H          -1.4978    2.5381   -1.2350 H       1  LIG1        0.0658
     31 H          -0.2622   -1.7941    0.9409 H       1  LIG1        0.0636
     32 H           2.3025    1.4303   -1.2645 H       1  LIG1        0.0233
     33 H           2.5610    1.9971    0.3939 H       1  LIG1        0.0233
     34 H           1.2175    2.6239   -0.5688 H       1  LIG1        0.0233
     35 H           3.8177   -0.9511    0.4660 H       1  LIG1        0.0616
     36 H           4.7362   -1.7224   -1.4325 H       1  LIG1        0.2923
     37 H           0.8292   -0.5790    2.7271 H       1  LIG1        0.0317
     38 H           2.1285   -1.7305    2.5382 H       1  LIG1        0.0317
     39 H           2.3338    1.2962    2.9741 H       1  LIG1        0.0567
     40 H           4.4900   -0.8929    2.8486 H       1  LIG1        0.0532
     41 H           4.6774    0.8608    3.4240 H       1  LIG1        0.0532
     42 H           0.4502   -3.6713   -0.1823 H       1  LIG1        0.2100
     43 H          -0.7068   -1.9864   -3.7348 H       1  LIG1        0.0524
     44 H          -1.6439   -0.6843   -2.9429 H       1  LIG1        0.0524
     45 H          -2.3045   -2.3172   -3.0814 H       1  LIG1        0.0524
     46 H          -2.1349   -1.4155    0.4666 H       1  LIG1        0.0622
     47 H          -5.9510    3.4107   -0.0596 H       1  LIG1        0.1166
     48 H          -5.0488    3.9180    1.3905 H       1  LIG1        0.1166
@<TRIPOS>BOND
     1     1     2   ar
     2     2     3   ar
     3     3     4   ar
     4     4     5   ar
     5     6     8    1
     6     8     9    1
     7     9    10    1
     8    10    11    1
     9     6    11    1
    10    10    14    1
    11    14    15    2
    12    15    16    1
    13     8    16    1
    14    19    20    1
    15    20    21    2
    16    23    24    1
    17     5    25   ar
    18     1    25   ar
    19     3    26    1
    20    26    27    1
    21    27    28    1
    22     2    28    1
    23     5     6    1
    24     6     7    1
    25     8    23    1
    26     9    22    1
    27    10    19    1
    28    11    12    1
    29    11    13    1
    30    15    18    1
    31    16    17    2
    32     1    29    1
    33     4    30    1
    34     9    31    1
    35    13    32    1
    36    13    33    1
    37    13    34    1
    38    14    35    1
    39    18    36    1
    40    19    37    1
    41    19    38    1
    42    20    39    1
    43    21    40    1
    44    21    41    1
    45    22    42    1
    46    24    43    1
    47    24    44    1
    48    24    45    1
    49    25    46    1
    50    27    47    1
    51    27    48    1
