REMARK  Name = NuBBE_1084
REMARK  18 active torsions:
REMARK  status: ('A' for Active; 'I' for Inactive)
REMARK    1  A    between atoms: C_1  and  C_2
REMARK    2  A    between atoms: C_2  and  C_3
REMARK    3  A    between atoms: C_2  and  C_9
REMARK    4  A    between atoms: C_3  and  C_4
REMARK    5  A    between atoms: C_4  and  C_5
REMARK    6  A    between atoms: C_5  and  C_6
REMARK    7  A    between atoms: C_6  and  C_7
REMARK    8  A    between atoms: C_6  and  C_8
REMARK    9  A    between atoms: C_9  and  C_10
REMARK   10  A    between atoms: C_10  and  C_11
REMARK   11  A    between atoms: C_12  and  O_13
REMARK   12  A    between atoms: C_14  and  C_15
REMARK   13  A    between atoms: C_15  and  C_16
REMARK   14  A    between atoms: C_16  and  C_17
REMARK   15  A    between atoms: C_17  and  C_18
REMARK   16  A    between atoms: C_17  and  C_19
REMARK   17  A    between atoms: C_21  and  C_22
REMARK   18  A    between atoms: C_22  and  O_23
REMARK                            x       y       z     vdW  Elec       q    Type
REMARK                         _______ _______ _______ _____ _____    ______ ____
ROOT
ATOM      1  C   LIG A   1       1.198   1.056  -1.696  0.00  0.00    -0.005 A 
ATOM      2  C   LIG A   1       1.206   1.334  -0.321  0.00  0.00    +0.123 A 
ATOM      3  C   LIG A   1       1.544   2.604   0.173  0.00  0.00    -0.005 A 
ATOM      4  C   LIG A   1       1.869   3.617  -0.747  0.00  0.00    +0.022 A 
ATOM      5  C   LIG A   1       1.825   3.366  -2.123  0.00  0.00    +0.060 A 
ATOM      6  C   LIG A   1       1.479   2.097  -2.590  0.00  0.00    +0.022 A 
ENDROOT
BRANCH   2   7
ATOM      7  O   LIG A   1       0.893   0.361   0.587  0.00  0.00    -0.506 OA
ATOM      8  H   LIG A   1       0.165  -0.161   0.211  0.00  0.00    +0.292 HD
ENDBRANCH   2   7
BRANCH   5   9
ATOM      9  C   LIG A   1       2.156   4.470  -3.066  0.00  0.00    +0.337 C 
ATOM     10  O   LIG A   1       2.461   5.591  -2.764  0.00  0.00    -0.245 OA
BRANCH   9  11
ATOM     11  O   LIG A   1       2.073   4.082  -4.361  0.00  0.00    -0.477 OA
ATOM     12  H   LIG A   1       2.312   4.886  -4.863  0.00  0.00    +0.295 HD
ENDBRANCH   9  11
ENDBRANCH   5   9
BRANCH   1  13
ATOM     13  C   LIG A   1       0.969  -0.324  -2.263  0.00  0.00    +0.039 C 
BRANCH  13  14
ATOM     14  C   LIG A   1      -0.499  -0.616  -2.595  0.00  0.00    +0.008 C 
BRANCH  14  16
ATOM     15  C   LIG A   1      -0.004  -2.233  -4.498  0.00  0.00    +0.007 C 
ATOM     16  C   LIG A   1      -0.738  -2.037  -3.160  0.00  0.00    -0.014 C 
BRANCH  16  17
ATOM     17  C   LIG A   1      -0.380  -3.170  -2.166  0.00  0.00    +0.003 C 
BRANCH  17  18
ATOM     18  C   LIG A   1      -1.126  -3.066  -0.823  0.00  0.00    +0.000 C 
BRANCH  18  19
ATOM     19  C   LIG A   1      -0.740  -4.176   0.164  0.00  0.00    +0.003 C 
BRANCH  19  20
ATOM     20  C   LIG A   1      -1.461  -4.071   1.528  0.00  0.00    -0.017 C 
ATOM     21  C   LIG A   1      -2.980  -4.214   1.412  0.00  0.00    +0.007 C 
ATOM     22  C   LIG A   1      -0.938  -5.138   2.495  0.00  0.00    +0.007 C 
ENDBRANCH  19  20
ENDBRANCH  18  19
ENDBRANCH  17  18
ENDBRANCH  16  17
ENDBRANCH  14  16
ENDBRANCH  13  14
ENDBRANCH   1  13
BRANCH   3  23
ATOM     23  C   LIG A   1       1.542   2.906   1.658  0.00  0.00    +0.039 C 
BRANCH  23  24
ATOM     24  C   LIG A   1       0.180   3.415   2.170  0.00  0.00    +0.008 C 
BRANCH  24  25
ATOM     25  C   LIG A   1       0.168   3.738   3.682  0.00  0.00    -0.017 C 
ATOM     26  C   LIG A   1      -1.200   4.268   4.130  0.00  0.00    +0.007 C 
ATOM     27  C   LIG A   1       0.527   2.525   4.543  0.00  0.00    +0.007 C 
ENDBRANCH  24  25
ENDBRANCH  23  24
ENDBRANCH   3  23
TORSDOF 13
