REMARK  Name = NuBBE_2501
REMARK  6 active torsions:
REMARK  status: ('A' for Active; 'I' for Inactive)
REMARK    1  A    between atoms: C_1  and  C_2
REMARK    2  A    between atoms: C_2  and  C_3
REMARK    3  A    between atoms: C_4  and  C_5
REMARK    4  A    between atoms: C_15  and  C_16
REMARK    5  A    between atoms: C_15  and  C_17
REMARK    6  A    between atoms: C_21  and  C_22
REMARK                            x       y       z     vdW  Elec       q    Type
REMARK                         _______ _______ _______ _____ _____    ______ ____
ROOT
ATOM      1  C   LIG A   1      -0.876  -1.563   2.262  0.00  0.00    -0.034 A 
ATOM      2  C   LIG A   1      -0.976  -2.935   1.931  0.00  0.00    -0.047 A 
ATOM      3  C   LIG A   1      -1.522  -3.963   2.889  0.00  0.00    +0.044 C 
ATOM      4  C   LIG A   1      -0.586  -3.365   0.658  0.00  0.00    +0.004 A 
ATOM      5  C   LIG A   1      -0.093  -2.465  -0.285  0.00  0.00    +0.005 A 
ATOM      6  C   LIG A   1       0.019  -1.091  -0.006  0.00  0.00    -0.030 A 
ATOM      7  C   LIG A   1      -0.368  -0.661   1.284  0.00  0.00    +0.025 A 
ATOM      8  C   LIG A   1      -0.260   0.792   1.554  0.00  0.00    +0.164 C 
ATOM      9  O   LIG A   1       0.023   1.256   2.651  0.00  0.00    -0.292 OA
ATOM     10  C   LIG A   1      -0.522   1.663   0.366  0.00  0.00    +0.084 C 
ATOM     11  C   LIG A   1       0.561   1.397  -0.681  0.00  0.00    +0.012 C 
ATOM     12  C   LIG A   1       0.448   2.416  -1.887  0.00  0.00    -0.031 C 
ATOM     13  C   LIG A   1       1.213   3.711  -1.518  0.00  0.00    +0.011 C 
ATOM     14  C   LIG A   1      -1.003   2.840  -2.220  0.00  0.00    +0.011 C 
ATOM     15  C   LIG A   1       1.092   1.838  -3.159  0.00  0.00    +0.007 C 
ATOM     16  C   LIG A   1       0.504   0.498  -3.583  0.00  0.00    +0.001 C 
ATOM     17  C   LIG A   1      -0.058  -0.349  -2.439  0.00  0.00    +0.012 C 
ATOM     18  C   LIG A   1       0.634  -0.138  -1.069  0.00  0.00    -0.003 C 
ATOM     19  C   LIG A   1       2.130  -0.555  -1.167  0.00  0.00    +0.016 C 
ENDROOT
BRANCH   1  21
ATOM     20  C   LIG A   1      -0.189  -1.136   4.660  0.00  0.00    +0.009 C 
ATOM     21  C   LIG A   1      -1.316  -1.087   3.635  0.00  0.00    +0.033 C 
ENDBRANCH   1  21
TORSDOF 1
