REMARK  Name = NuBBE_1792
REMARK  13 active torsions:
REMARK  status: ('A' for Active; 'I' for Inactive)
REMARK    1  A    between atoms: C_3  and  C_4
REMARK    2  A    between atoms: C_4  and  C_5
REMARK    3  A    between atoms: C_5  and  O_6
REMARK    4  A    between atoms: O_6  and  C_7
REMARK    5  A    between atoms: C_10  and  C_11
REMARK    6  A    between atoms: C_11  and  C_12
REMARK    7  A    between atoms: C_12  and  C_13
REMARK    8  A    between atoms: C_13  and  C_14
REMARK    9  A    between atoms: C_14  and  C_15
REMARK   10  A    between atoms: C_15  and  C_16
REMARK   11  A    between atoms: C_16  and  C_17
REMARK   12  A    between atoms: C_17  and  C_18
REMARK   13  A    between atoms: C_18  and  C_19
REMARK                            x       y       z     vdW  Elec       q    Type
REMARK                         _______ _______ _______ _____ _____    ______ ____
ROOT
ATOM      1  O   LIG A   1      -1.917   1.323   3.274  0.00  0.00    -0.251 OA
ATOM      2  C   LIG A   1      -0.920   1.855   2.846  0.00  0.00    +0.311 C 
ATOM      3  C   LIG A   1      -0.733   3.334   2.575  0.00  0.00    +0.112 C 
ATOM      4  C   LIG A   1       0.760   3.396   2.265  0.00  0.00    +0.060 C 
ATOM      5  C   LIG A   1       1.046   2.009   1.704  0.00  0.00    +0.177 C 
ATOM      6  O   LIG A   1       0.197   1.160   2.477  0.00  0.00    -0.461 OA
ENDROOT
BRANCH   3   7
ATOM      7  C   LIG A   1      -1.134   4.222   3.744  0.00  0.00    +0.135 C 
BRANCH   7   8
ATOM      8  C   LIG A   1      -2.598   4.075   4.088  0.00  0.00    +0.308 C 
ATOM      9  O   LIG A   1      -3.494   4.690   3.527  0.00  0.00    -0.251 OA
BRANCH   8  10
ATOM     10  O   LIG A   1      -2.757   3.166   5.085  0.00  0.00    -0.468 OA
ATOM     11  C   LIG A   1      -4.109   2.818   5.384  0.00  0.00    +0.280 C 
ENDBRANCH   8  10
ENDBRANCH   7   8
ENDBRANCH   3   7
BRANCH   5  12
ATOM     12  C   LIG A   1       0.663   1.897   0.220  0.00  0.00    +0.045 C 
BRANCH  12  13
ATOM     13  C   LIG A   1       0.839   0.506  -0.411  0.00  0.00    +0.003 C 
BRANCH  13  14
ATOM     14  C   LIG A   1       0.444   0.561  -1.898  0.00  0.00    +0.000 C 
BRANCH  14  15
ATOM     15  C   LIG A   1       0.537  -0.768  -2.661  0.00  0.00    -0.000 C 
BRANCH  15  16
ATOM     16  C   LIG A   1      -0.406  -1.872  -2.162  0.00  0.00    +0.000 C 
BRANCH  16  17
ATOM     17  C   LIG A   1      -0.323  -3.183  -2.963  0.00  0.00    +0.000 C 
BRANCH  17  18
ATOM     18  C   LIG A   1       1.073  -3.809  -2.897  0.00  0.00    +0.004 C 
BRANCH  18  19
ATOM     19  C   LIG A   1       1.146  -5.151  -3.626  0.00  0.00    +0.026 C 
BRANCH  19  20
ATOM     20  C   LIG A   1       2.522  -5.759  -3.586  0.00  0.00    -0.035 C 
ATOM     21  C   LIG A   1       3.617  -5.179  -4.096  0.00  0.00    +0.004 C 
ENDBRANCH  19  20
ENDBRANCH  18  19
ENDBRANCH  17  18
ENDBRANCH  16  17
ENDBRANCH  15  16
ENDBRANCH  14  15
ENDBRANCH  13  14
ENDBRANCH  12  13
ENDBRANCH   5  12
TORSDOF 12
