REMARK  Name = NuBBE_1007
REMARK  3 active torsions:
REMARK  status: ('A' for Active; 'I' for Inactive)
REMARK    1  A    between atoms: C_4  and  O_5
REMARK    2  A    between atoms: C_8  and  O_9
REMARK    3  A    between atoms: C_14  and  C_16
REMARK                            x       y       z     vdW  Elec       q    Type
REMARK                         _______ _______ _______ _____ _____    ______ ____
ROOT
ATOM      1  O   LIG A   1      -2.627   0.873   1.323  0.00  0.00    -0.245 OA
ATOM      2  C   LIG A   1      -1.480   0.949   0.900  0.00  0.00    +0.343 C 
ATOM      3  C   LIG A   1      -0.706  -0.282   0.597  0.00  0.00    +0.107 A 
ATOM      4  C   LIG A   1      -1.313  -1.540   0.733  0.00  0.00    +0.131 A 
ATOM      5  C   LIG A   1      -0.583  -2.705   0.515  0.00  0.00    +0.050 A 
ATOM      6  C   LIG A   1       0.764  -2.627   0.166  0.00  0.00    +0.049 A 
ATOM      7  C   LIG A   1       1.365  -1.379   0.018  0.00  0.00    +0.121 A 
ATOM      8  C   LIG A   1       0.641  -0.197   0.212  0.00  0.00    +0.015 A 
ATOM      9  C   LIG A   1       1.290   1.150   0.076  0.00  0.00    +0.084 C 
ATOM     10  C   LIG A   1       0.247   2.228  -0.202  0.00  0.00    +0.178 C 
ATOM     11  C   LIG A   1      -0.299   2.221  -1.629  0.00  0.00    +0.052 C 
ATOM     12  O   LIG A   1      -0.851   2.137   0.724  0.00  0.00    -0.458 OA
ENDROOT
BRANCH   4  13
ATOM     13  O   LIG A   1      -2.626  -1.712   1.083  0.00  0.00    -0.506 OA
ATOM     14  H   LIG A   1      -3.023  -0.828   1.256  0.00  0.00    +0.292 HD
ENDBRANCH   4  13
BRANCH   7  15
ATOM     15  O   LIG A   1       2.686  -1.288  -0.316  0.00  0.00    -0.506 OA
ATOM     16  H   LIG A   1       3.056  -2.184  -0.392  0.00  0.00    +0.292 HD
ENDBRANCH   7  15
TORSDOF 2
