@<TRIPOS>MOLECULE
NuBBE_1712
 24 26 0 0 0
SMALL
GASTEIGER

@<TRIPOS>ATOM
      1 O          -2.6043    0.2454   -0.0019 O.2     1  LIG1       -0.2864
      2 C          -1.3802    0.2415   -0.0018 C.ar    1  LIG1        0.2003
      3 C          -0.6111   -1.0104   -0.0010 C.ar    1  LIG1        0.0680
      4 C           0.7814   -0.9392   -0.0020 C.ar    1  LIG1        0.1395
      5 C           1.5324   -2.1175   -0.0013 C.ar    1  LIG1       -0.0152
      6 C           0.8895   -3.3587    0.0011 C.ar    1  LIG1       -0.0167
      7 C          -0.5026   -3.4108    0.0025 C.ar    1  LIG1        0.1178
      8 O          -1.1678   -4.6002    0.0058 O.3     1  LIG1       -0.5067
      9 C          -1.2615   -2.2464    0.0010 C.ar    1  LIG1       -0.0058
     10 O           1.4889    0.2385   -0.0033 O.2     1  LIG1       -0.4546
     11 C           0.7840    1.4176   -0.0023 C.ar    1  LIG1        0.1393
     12 C           1.5351    2.5947   -0.0019 C.ar    1  LIG1       -0.0186
     13 C           0.8923    3.8354   -0.0010 C.ar    1  LIG1       -0.0582
     14 C          -0.5019    3.9032   -0.0006 C.ar    1  LIG1       -0.0609
     15 C          -1.2563    2.7300   -0.0010 C.ar    1  LIG1       -0.0474
     16 C          -0.6074    1.4915   -0.0018 C.ar    1  LIG1        0.0646
     17 H           2.6186   -2.0704   -0.0023 H       1  LIG1        0.0656
     18 H           1.4858   -4.2662    0.0017 H       1  LIG1        0.0655
     19 H          -0.5230   -5.3263    0.0114 H       1  LIG1        0.2921
     20 H          -2.3471   -2.3009    0.0019 H       1  LIG1        0.0662
     21 H           2.6212    2.5490   -0.0022 H       1  LIG1        0.0654
     22 H           1.4790    4.7512   -0.0006 H       1  LIG1        0.0619
     23 H          -1.0019    4.8690    0.0001 H       1  LIG1        0.0618
     24 H          -2.3430    2.7798   -0.0006 H       1  LIG1        0.0626
@<TRIPOS>BOND
     1     1     2    2
     2     2     3   ar
     3     3     4   ar
     4     4     5   ar
     5     5     6   ar
     6     6     7   ar
     7     7     8    1
     8     7     9   ar
     9     3     9   ar
    10     4    10   ar
    11    10    11   ar
    12    11    12   ar
    13    12    13   ar
    14    13    14   ar
    15    14    15   ar
    16    15    16   ar
    17    11    16   ar
    18     2    16   ar
    19     5    17    1
    20     6    18    1
    21     8    19    1
    22     9    20    1
    23    12    21    1
    24    13    22    1
    25    14    23    1
    26    15    24    1
