REMARK  Name = NuBBE_2121
REMARK  7 active torsions:
REMARK  status: ('A' for Active; 'I' for Inactive)
REMARK    1  A    between atoms: C_1  and  C_2
REMARK    2  A    between atoms: C_2  and  C_3
REMARK    3  A    between atoms: C_3  and  C_4
REMARK    4  A    between atoms: C_4  and  C_5
REMARK    5  A    between atoms: C_5  and  C_6
REMARK    6  A    between atoms: C_6  and  C_7
REMARK    7  A    between atoms: C_7  and  C_8
REMARK                            x       y       z     vdW  Elec       q    Type
REMARK                         _______ _______ _______ _____ _____    ______ ____
ROOT
ATOM      1  C   LIG A   1       1.137  -1.749   0.045  0.00  0.00    -0.000 C 
ENDROOT
BRANCH   1   2
ATOM      2  C   LIG A   1      -0.203  -1.791  -0.819  0.00  0.00    -0.000 C 
BRANCH   2   4
ATOM      3  C   LIG A   1       0.165   0.463  -0.815  0.00  0.00    +0.004 C 
ATOM      4  C   LIG A   1      -0.267  -0.556  -1.759  0.00  0.00    -0.003 C 
ENDBRANCH   2   4
ENDBRANCH   1   2
BRANCH   1   5
ATOM      5  C   LIG A   1       1.180  -0.853   1.372  0.00  0.00    -0.000 C 
BRANCH   5   6
ATOM      6  C   LIG A   1       0.936   0.831   1.440  0.00  0.00    -0.000 C 
BRANCH   6   7
ATOM      7  C   LIG A   1      -0.748   1.635   1.114  0.00  0.00    -0.003 C 
ATOM      8  C   LIG A   1      -1.847   1.443  -0.354  0.00  0.00    +0.004 C 
ENDBRANCH   6   7
ENDBRANCH   5   6
ENDBRANCH   1   5
TORSDOF 5
