REMARK  Name = NuBBE_1896
REMARK  9 active torsions:
REMARK  status: ('A' for Active; 'I' for Inactive)
REMARK    1  A    between atoms: C_1  and  O_2
REMARK    2  A    between atoms: O_2  and  C_3
REMARK    3  A    between atoms: C_3  and  C_4
REMARK    4  A    between atoms: C_7  and  C_8
REMARK    5  A    between atoms: C_11  and  C_13
REMARK    6  A    between atoms: C_13  and  C_14
REMARK    7  A    between atoms: C_13  and  O_15
REMARK    8  A    between atoms: C_13  and  C_16
REMARK    9  A    between atoms: C_17  and  O_19
REMARK                            x       y       z     vdW  Elec       q    Type
REMARK                         _______ _______ _______ _____ _____    ______ ____
ROOT
ATOM      1  C   LIG A   1      -1.280  -2.171  -0.322  0.00  0.00    -0.011 A 
ATOM      2  C   LIG A   1      -0.511  -3.341  -0.402  0.00  0.00    +0.007 A 
ATOM      3  C   LIG A   1       0.881  -3.291  -0.370  0.00  0.00    +0.004 A 
ATOM      4  C   LIG A   1       1.552  -2.067  -0.261  0.00  0.00    -0.047 A 
ATOM      5  C   LIG A   1       3.057  -2.078  -0.189  0.00  0.00    +0.044 C 
ATOM      6  C   LIG A   1       0.808  -0.864  -0.229  0.00  0.00    -0.033 A 
ATOM      7  C   LIG A   1       1.538   0.460  -0.093  0.00  0.00    +0.045 C 
ATOM      8  C   LIG A   1       0.704   1.762  -0.212  0.00  0.00    +0.061 C 
ATOM      9  C   LIG A   1      -0.669   1.525   0.421  0.00  0.00    +0.191 C 
ATOM     10  C   LIG A   1      -0.601  -0.933  -0.273  0.00  0.00    +0.029 A 
ATOM     11  C   LIG A   1      -1.345   0.345  -0.259  0.00  0.00    +0.192 C 
ATOM     12  O   LIG A   1      -2.462   0.457  -0.767  0.00  0.00    -0.289 OA
ENDROOT
BRANCH   8  13
ATOM     13  C   LIG A   1       1.485   2.986   0.383  0.00  0.00    +0.066 C 
ATOM     14  C   LIG A   1       0.735   4.325   0.300  0.00  0.00    +0.041 C 
ATOM     15  C   LIG A   1       2.839   3.177  -0.321  0.00  0.00    +0.041 C 
BRANCH  13  16
ATOM     16  O   LIG A   1       1.779   2.726   1.762  0.00  0.00    -0.389 OA
ATOM     17  H   LIG A   1       1.009   2.997   2.293  0.00  0.00    +0.210 HD
ENDBRANCH  13  16
ENDBRANCH   8  13
BRANCH   9  18
ATOM     18  O   LIG A   1      -1.521   2.659   0.241  0.00  0.00    -0.384 OA
ATOM     19  H   LIG A   1      -2.355   2.323  -0.153  0.00  0.00    +0.210 HD
ENDBRANCH   9  18
BRANCH   1  20
ATOM     20  C   LIG A   1      -2.792  -2.276  -0.309  0.00  0.00    +0.195 C 
BRANCH  20  22
ATOM     21  C   LIG A   1      -4.619  -3.635   0.305  0.00  0.00    +0.194 C 
ATOM     22  O   LIG A   1      -3.203  -3.519   0.275  0.00  0.00    -0.378 OA
ENDBRANCH  20  22
ENDBRANCH   1  20
TORSDOF 5
