REMARK  Name = NuBBE_266
REMARK  10 active torsions:
REMARK  status: ('A' for Active; 'I' for Inactive)
REMARK    1  A    between atoms: C_5  and  C_6
REMARK    2  A    between atoms: C_6  and  C_7
REMARK    3  A    between atoms: C_16  and  O_23
REMARK    4  A    between atoms: C_20  and  O_21
REMARK    5  A    between atoms: C_20  and  C_22
REMARK    6  A    between atoms: O_23  and  C_24
REMARK    7  A    between atoms: C_24  and  C_25
REMARK    8  A    between atoms: C_32  and  C_34
REMARK    9  A    between atoms: C_37  and  O_39
REMARK   10  A    between atoms: C_41  and  C_43
REMARK                            x       y       z     vdW  Elec       q    Type
REMARK                         _______ _______ _______ _____ _____    ______ ____
ROOT
ATOM      1  H   LIG A   1      -1.804  -1.216  -3.153  0.00  0.00    +0.149 HD
ATOM      2  N   LIG A   1      -1.200  -1.067  -2.351  0.00  0.00    -0.311 N 
ATOM      3  C   LIG A   1      -0.352   0.017  -2.285  0.00  0.00    +0.224 C 
ATOM      4  O   LIG A   1      -0.169   0.816  -3.183  0.00  0.00    -0.275 OA
ATOM      5  C   LIG A   1      -1.275  -1.788  -1.107  0.00  0.00    +0.082 C 
ATOM      6  C   LIG A   1       0.123  -1.480  -0.487  0.00  0.00    +0.036 C 
ATOM      7  C   LIG A   1       0.286   0.054  -0.896  0.00  0.00    +0.101 C 
ATOM      8  C   LIG A   1      -0.639   1.020   0.005  0.00  0.00    +0.215 C 
ATOM      9  C   LIG A   1       0.017   1.915   1.060  0.00  0.00    +0.017 C 
ATOM     10  C   LIG A   1       0.049   1.650   2.379  0.00  0.00    +0.014 C 
ATOM     11  C   LIG A   1       0.620   2.430   3.544  0.00  0.00    +0.139 C 
ATOM     12  C   LIG A   1      -0.575   3.097   4.260  0.00  0.00    +0.054 C 
ATOM     13  C   LIG A   1       1.774   0.488  -1.007  0.00  0.00    +0.063 C 
ATOM     14  C   LIG A   1       2.415   0.597   0.366  0.00  0.00    -0.024 C 
ATOM     15  C   LIG A   1       3.200   1.617   0.729  0.00  0.00    -0.030 C 
ATOM     16  C   LIG A   1       3.471   1.939   2.170  0.00  0.00    +0.037 C 
ATOM     17  C   LIG A   1       2.935   3.356   2.434  0.00  0.00    +0.059 C 
ATOM     18  C   LIG A   1       4.118   4.236   2.879  0.00  0.00    +0.016 C 
ATOM     19  C   LIG A   1       1.775   3.488   3.432  0.00  0.00    +0.171 C 
ATOM     20  O   LIG A   1       1.768   4.462   4.202  0.00  0.00    -0.294 OA
ATOM     21  C   LIG A   1       2.626  -0.475  -1.856  0.00  0.00    +0.148 C 
ATOM     22  C   LIG A   1       1.246  -2.463  -1.017  0.00  0.00    +0.020 C 
ATOM     23  C   LIG A   1       1.313  -3.706  -0.104  0.00  0.00    +0.013 C 
ATOM     24  C   LIG A   1       2.627  -1.838  -1.212  0.00  0.00    -0.045 C 
ATOM     25  C   LIG A   1       3.802  -2.392  -0.854  0.00  0.00    +0.010 C 
ENDROOT
BRANCH  11  26
ATOM     26  O   LIG A   1       1.136   1.429   4.441  0.00  0.00    -0.377 OA
ATOM     27  H   LIG A   1       1.298   1.875   5.293  0.00  0.00    +0.211 HD
ENDBRANCH  11  26
BRANCH  21  28
ATOM     28  O   LIG A   1       2.174  -0.633  -3.191  0.00  0.00    -0.387 OA
ATOM     29  H   LIG A   1       1.829   0.224  -3.510  0.00  0.00    +0.210 HD
ENDBRANCH  21  28
BRANCH   5  30
ATOM     30  C   LIG A   1      -1.754  -3.238  -1.271  0.00  0.00    +0.057 C 
BRANCH  30  31
ATOM     31  C   LIG A   1      -3.142  -3.410  -1.874  0.00  0.00    -0.046 A 
ATOM     32  C   LIG A   1      -3.430  -4.588  -2.580  0.00  0.00    +0.003 A 
ATOM     33  C   LIG A   1      -4.689  -4.792  -3.152  0.00  0.00    +0.000 A 
ATOM     34  C   LIG A   1      -5.685  -3.829  -3.012  0.00  0.00    +0.000 A 
ATOM     35  C   LIG A   1      -5.425  -2.668  -2.292  0.00  0.00    +0.000 A 
ATOM     36  C   LIG A   1      -4.167  -2.464  -1.720  0.00  0.00    +0.003 A 
ENDBRANCH  30  31
ENDBRANCH   5  30
BRANCH   8  37
ATOM     37  O   LIG A   1      -1.357   2.002  -0.786  0.00  0.00    -0.456 OA
BRANCH  37  38
ATOM     38  C   LIG A   1      -2.714   1.908  -0.827  0.00  0.00    +0.304 C 
ATOM     39  C   LIG A   1      -3.314   3.218  -1.247  0.00  0.00    +0.136 C 
ATOM     40  O   LIG A   1      -3.372   0.926  -0.517  0.00  0.00    -0.251 OA
ENDBRANCH  37  38
ENDBRANCH   8  37
TORSDOF 6
