@<TRIPOS>MOLECULE
NuBBE_2423
 96 96 0 0 0
SMALL
GASTEIGER

@<TRIPOS>ATOM
      1 C           4.5661   -7.6296   -5.0251 C.2     1  LIG1       -0.0477
      2 C           5.5162   -7.8549   -4.0968 C.2     1  LIG1        0.0231
      3 C           5.4863   -7.3496   -2.7237 C.2     1  LIG1        0.3319
      4 O           6.4769   -7.4243   -1.9943 O.2     1  LIG1       -0.2456
      5 O           4.3189   -6.8280   -2.3855 O.3     1  LIG1       -0.4616
      6 C           4.2335   -6.1655   -1.1048 C.3     1  LIG1        0.0928
      7 C           3.8912   -7.1476    0.0140 C.3     1  LIG1       -0.0185
      8 C           3.7942   -6.5280    1.4257 C.3     1  LIG1       -0.0500
      9 C           2.8972   -5.2725    1.5615 C.3     1  LIG1       -0.0530
     10 C           2.8150   -4.7690    3.0174 C.3     1  LIG1       -0.0531
     11 C           2.0171   -3.4735    3.2745 C.3     1  LIG1       -0.0531
     12 C           0.4908   -3.4988    3.0978 C.3     1  LIG1       -0.0531
     13 C          -0.1057   -2.1262    3.4752 C.3     1  LIG1       -0.0531
     14 C          -1.6260   -2.0701    3.2965 C.3     1  LIG1       -0.0531
     15 C          -2.1706   -0.6860    3.6624 C.3     1  LIG1       -0.0531
     16 C          -3.6848   -0.5862    3.4578 C.3     1  LIG1       -0.0531
     17 C          -4.2478    0.7886    3.8512 C.3     1  LIG1       -0.0531
     18 C          -3.6694    1.9550    3.0321 C.3     1  LIG1       -0.0531
     19 C          -4.2263    3.3119    3.4843 C.3     1  LIG1       -0.0531
     20 C          -3.6378    4.4901    2.6832 C.3     1  LIG1       -0.0531
     21 C          -4.2104    5.8361    3.1567 C.3     1  LIG1       -0.0531
     22 C          -3.6814    7.0516    2.3733 C.3     1  LIG1       -0.0531
     23 C          -4.3131    8.3549    2.8958 C.3     1  LIG1       -0.0531
     24 C          -3.8254    9.6060    2.1553 C.3     1  LIG1       -0.0531
     25 C          -4.5069   10.8783    2.6883 C.3     1  LIG1       -0.0531
     26 C          -4.0508   12.1659    1.9868 C.3     1  LIG1       -0.0531
     27 C          -4.3765   12.1606    0.4925 C.3     1  LIG1       -0.0533
     28 C          -3.9455   13.4457   -0.2090 C.3     1  LIG1       -0.0559
     29 C          -4.2734   13.3796   -1.6944 C.3     1  LIG1       -0.0653
     30 C           4.5818   -8.1949   -6.3870 C.ar    1  LIG1       -0.0211
     31 C           5.7720   -8.5325   -7.0503 C.ar    1  LIG1       -0.0092
     32 C           5.7582   -9.1300   -8.3142 C.ar    1  LIG1        0.1618
     33 O           6.8808   -9.5197   -9.0060 O.3     1  LIG1       -0.4914
     34 C           8.1227   -9.2814   -8.3393 C.3     1  LIG1        0.0790
     35 C           4.5255   -9.3612   -8.9328 C.ar    1  LIG1        0.1585
     36 C           3.3346   -8.9960   -8.3151 C.ar    1  LIG1       -0.0160
     37 C           3.3654   -8.4013   -7.0508 C.ar    1  LIG1       -0.0509
     38 O           4.4458   -9.9395  -10.1699 O.3     1  LIG1       -0.5033
     39 H           3.6980   -7.0426   -4.7640 H       1  LIG1        0.0626
     40 H           6.4147   -8.4485   -4.3305 H       1  LIG1        0.0689
     41 H           3.4387   -5.4256   -1.2064 H       1  LIG1        0.0697
     42 H           5.1648   -5.6247   -0.8985 H       1  LIG1        0.0697
     43 H           4.6493   -7.9442    0.0389 H       1  LIG1        0.0298
     44 H           2.9531   -7.6570   -0.2405 H       1  LIG1        0.0298
     45 H           4.8083   -6.2899    1.7742 H       1  LIG1        0.0266
     46 H           3.4231   -7.3107    2.1012 H       1  LIG1        0.0266
     47 H           1.8941   -5.5038    1.1910 H       1  LIG1        0.0265
     48 H           3.3125   -4.4707    0.9408 H       1  LIG1        0.0265
     49 H           3.8425   -4.5555    3.3454 H       1  LIG1        0.0265
     50 H           2.4407   -5.5647    3.6712 H       1  LIG1        0.0265
     51 H           2.4348   -2.6720    2.6546 H       1  LIG1        0.0265
     52 H           2.2104   -3.1874    4.3175 H       1  LIG1        0.0265
     53 H           0.0402   -4.2676    3.7380 H       1  LIG1        0.0265
     54 H           0.2327   -3.7298    2.0594 H       1  LIG1        0.0265
     55 H           0.3532   -1.3460    2.8542 H       1  LIG1        0.0265
     56 H           0.1438   -1.8879    4.5181 H       1  LIG1        0.0265
     57 H          -2.1016   -2.8328    3.9228 H       1  LIG1        0.0265
     58 H          -1.8775   -2.2910    2.2526 H       1  LIG1        0.0265
     59 H          -1.6608    0.0590    3.0427 H       1  LIG1        0.0265
     60 H          -1.9337   -0.4560    4.7084 H       1  LIG1        0.0265
     61 H          -4.1780   -1.3520    4.0711 H       1  LIG1        0.0265
     62 H          -3.9402   -0.8086    2.4146 H       1  LIG1        0.0265
     63 H          -4.0585    0.9542    4.9188 H       1  LIG1        0.0265
     64 H          -5.3383    0.7628    3.7280 H       1  LIG1        0.0265
     65 H          -3.8903    1.7943    1.9701 H       1  LIG1        0.0265
     66 H          -2.5804    1.9847    3.1370 H       1  LIG1        0.0265
     67 H          -4.0018    3.4514    4.5490 H       1  LIG1        0.0265
     68 H          -5.3175    3.3054    3.3806 H       1  LIG1        0.0265
     69 H          -3.8573    4.3500    1.6184 H       1  LIG1        0.0265
     70 H          -2.5464    4.4978    2.7920 H       1  LIG1        0.0265
     71 H          -3.9751    5.9698    4.2196 H       1  LIG1        0.0265
     72 H          -5.3033    5.8072    3.0714 H       1  LIG1        0.0265
     73 H          -3.9098    6.9341    1.3068 H       1  LIG1        0.0265
     74 H          -2.5904    7.1091    2.4664 H       1  LIG1        0.0265
     75 H          -4.0931    8.4628    3.9641 H       1  LIG1        0.0265
     76 H          -5.4033    8.2883    2.7939 H       1  LIG1        0.0265
     77 H          -4.0423    9.4810    1.0896 H       1  LIG1        0.0265
     78 H          -2.7384    9.7063    2.2583 H       1  LIG1        0.0265
     79 H          -4.3004   10.9788    3.7612 H       1  LIG1        0.0265
     80 H          -5.5956   10.7847    2.5877 H       1  LIG1        0.0265
     81 H          -2.9748   12.3108    2.1398 H       1  LIG1        0.0265
     82 H          -4.5531   13.0190    2.4624 H       1  LIG1        0.0265
     83 H          -5.4563   12.0174    0.3629 H       1  LIG1        0.0265
     84 H          -3.8748   11.3214    0.0013 H       1  LIG1        0.0265
     85 H          -2.8671   13.5987   -0.0838 H       1  LIG1        0.0263
     86 H          -4.4539   14.3061    0.2397 H       1  LIG1        0.0263
     87 H          -3.6053   12.6794   -2.2074 H       1  LIG1        0.0230
     88 H          -4.1534   14.3636   -2.1568 H       1  LIG1        0.0230
     89 H          -5.3038   13.0478   -1.8607 H       1  LIG1        0.0230
     90 H           6.7135   -8.3190   -6.5587 H       1  LIG1        0.0661
     91 H           8.9367   -9.6577   -8.9649 H       1  LIG1        0.0660
     92 H           8.1692   -9.8163   -7.3830 H       1  LIG1        0.0660
     93 H           8.2844   -8.2069   -8.1942 H       1  LIG1        0.0660
     94 H           2.3855   -9.1760   -8.8122 H       1  LIG1        0.0655
     95 H           2.4259   -8.1172   -6.5829 H       1  LIG1        0.0625
     96 H           5.3678  -10.0419  -10.4745 H       1  LIG1        0.2923
@<TRIPOS>BOND
     1     1     2    2
     2     2     3    1
     3     3     4    2
     4     3     5    1
     5     5     6    1
     6     6     7    1
     7     7     8    1
     8     8     9    1
     9     9    10    1
    10    10    11    1
    11    11    12    1
    12    12    13    1
    13    13    14    1
    14    14    15    1
    15    15    16    1
    16    16    17    1
    17    17    18    1
    18    18    19    1
    19    19    20    1
    20    20    21    1
    21    21    22    1
    22    22    23    1
    23    23    24    1
    24    24    25    1
    25    25    26    1
    26    26    27    1
    27    27    28    1
    28    28    29    1
    29     1    30    1
    30    30    31   ar
    31    31    32   ar
    32    32    33    1
    33    33    34    1
    34    32    35   ar
    35    35    36   ar
    36    36    37   ar
    37    30    37   ar
    38    35    38    1
    39     1    39    1
    40     2    40    1
    41     6    41    1
    42     6    42    1
    43     7    43    1
    44     7    44    1
    45     8    45    1
    46     8    46    1
    47     9    47    1
    48     9    48    1
    49    10    49    1
    50    10    50    1
    51    11    51    1
    52    11    52    1
    53    12    53    1
    54    12    54    1
    55    13    55    1
    56    13    56    1
    57    14    57    1
    58    14    58    1
    59    15    59    1
    60    15    60    1
    61    16    61    1
    62    16    62    1
    63    17    63    1
    64    17    64    1
    65    18    65    1
    66    18    66    1
    67    19    67    1
    68    19    68    1
    69    20    69    1
    70    20    70    1
    71    21    71    1
    72    21    72    1
    73    22    73    1
    74    22    74    1
    75    23    75    1
    76    23    76    1
    77    24    77    1
    78    24    78    1
    79    25    79    1
    80    25    80    1
    81    26    81    1
    82    26    82    1
    83    27    83    1
    84    27    84    1
    85    28    85    1
    86    28    86    1
    87    29    87    1
    88    29    88    1
    89    29    89    1
    90    31    90    1
    91    34    91    1
    92    34    92    1
    93    34    93    1
    94    36    94    1
    95    37    95    1
    96    38    96    1
