REMARK  Name = NuBBE_364
REMARK  10 active torsions:
REMARK  status: ('A' for Active; 'I' for Inactive)
REMARK    1  A    between atoms: C_1  and  C_2
REMARK    2  A    between atoms: C_2  and  C_37
REMARK    3  A    between atoms: C_5  and  C_36
REMARK    4  A    between atoms: C_6  and  O_35
REMARK    5  A    between atoms: C_9  and  C_34
REMARK    6  A    between atoms: C_10  and  C_33
REMARK    7  A    between atoms: C_15  and  C_16
REMARK    8  A    between atoms: C_15  and  C_32
REMARK    9  A    between atoms: C_17  and  O_31
REMARK   10  A    between atoms: C_21  and  C_30
REMARK                            x       y       z     vdW  Elec       q    Type
REMARK                         _______ _______ _______ _____ _____    ______ ____
ROOT
ATOM      1  C   LIG A   1      -5.898   0.259   2.507  0.00  0.00    +0.011 C 
ATOM      2  C   LIG A   1      -4.428   0.679   2.679  0.00  0.00    -0.034 C 
ATOM      3  C   LIG A   1      -4.296   1.942   1.805  0.00  0.00    +0.007 C 
ATOM      4  C   LIG A   1      -2.872   2.378   1.683  0.00  0.00    +0.010 C 
ATOM      5  C   LIG A   1      -1.969   1.237   1.196  0.00  0.00    +0.001 C 
ATOM      6  C   LIG A   1      -0.601   1.864   1.182  0.00  0.00    +0.122 C 
ATOM      7  C   LIG A   1       0.302   0.932   0.462  0.00  0.00    +0.043 C 
ATOM      8  C   LIG A   1       0.345  -0.486   1.013  0.00  0.00    -0.003 C 
ATOM      9  C   LIG A   1       0.385  -1.853  -0.164  0.00  0.00    -0.019 C 
ATOM     10  C   LIG A   1      -0.180  -1.724  -1.569  0.00  0.00    +0.008 C 
ATOM     11  C   LIG A   1       0.379  -0.691  -2.440  0.00  0.00    +0.005 C 
ATOM     12  C   LIG A   1       1.899  -0.688  -2.425  0.00  0.00    +0.003 C 
ATOM     13  C   LIG A   1       2.382   0.547  -3.265  0.00  0.00    -0.006 C 
ATOM     14  C   LIG A   1       1.746   0.509  -4.707  0.00  0.00    +0.014 C 
ATOM     15  C   LIG A   1       3.914   0.450  -3.484  0.00  0.00    +0.120 C 
ATOM     16  C   LIG A   1       4.776  -0.362  -2.489  0.00  0.00    +0.032 C 
ATOM     17  C   LIG A   1       4.090  -1.524  -1.661  0.00  0.00    +0.010 C 
ATOM     18  C   LIG A   1       2.711  -1.080  -1.039  0.00  0.00    -0.025 C 
ATOM     19  C   LIG A   1       1.836  -2.236  -0.089  0.00  0.00    +0.006 C 
ATOM     20  C   LIG A   1       1.637  -2.597   1.577  0.00  0.00    +0.031 C 
ATOM     21  C   LIG A   1       0.025  -2.161   2.363  0.00  0.00    -0.026 C 
ATOM     22  C   LIG A   1      -0.678  -1.046   1.905  0.00  0.00    -0.063 C 
ATOM     23  C   LIG A   1      -1.926  -0.056   2.183  0.00  0.00    +0.024 C 
ATOM     24  C   LIG A   1      -3.421  -0.508   2.292  0.00  0.00    +0.014 C 
ATOM     25  C   LIG A   1       3.208   0.067  -0.179  0.00  0.00    +0.012 C 
ATOM     26  C   LIG A   1       1.862   1.909  -2.712  0.00  0.00    +0.014 C 
ATOM     27  C   LIG A   1      -0.457  -3.295   0.098  0.00  0.00    +0.012 C 
ATOM     28  C   LIG A   1       1.407  -0.086   2.317  0.00  0.00    +0.016 C 
ATOM     29  C   LIG A   1      -2.403   0.853  -0.247  0.00  0.00    +0.014 C 
ATOM     30  C   LIG A   1      -4.205   1.108   4.145  0.00  0.00    +0.011 C 
ENDROOT
BRANCH  15  31
ATOM     31  O   LIG A   1       4.482   1.750  -3.674  0.00  0.00    -0.391 OA
ATOM     32  H   LIG A   1       4.260   2.299  -2.903  0.00  0.00    +0.210 HD
ENDBRANCH  15  31
BRANCH   6  33
ATOM     33  O   LIG A   1      -0.510   3.124   0.496  0.00  0.00    -0.391 OA
ATOM     34  H   LIG A   1       0.372   3.451   0.625  0.00  0.00    +0.210 HD
ENDBRANCH   6  33
TORSDOF 2
