@<TRIPOS>MOLECULE
NuBBE_1892
 43 45 0 0 0
SMALL
GASTEIGER

@<TRIPOS>ATOM
      1 O          -1.5053    0.6140   -0.0001 O.2     1  LIG1       -0.2864
      2 C          -0.2985    0.5873   -0.1549 C.ar    1  LIG1        0.2003
      3 C           0.4502    1.8496   -0.2039 C.ar    1  LIG1        0.0682
      4 C          -0.2478    3.0507   -0.0773 C.ar    1  LIG1       -0.0019
      5 C           0.4343    4.2668   -0.1450 C.ar    1  LIG1        0.1624
      6 O          -0.2101    5.4710   -0.1259 O.3     1  LIG1       -0.4914
      7 C          -1.6290    5.4827   -0.0303 C.3     1  LIG1        0.0790
      8 C           1.8369    4.2516   -0.2770 C.ar    1  LIG1        0.1650
      9 O           2.6663    5.3462   -0.3262 O.3     1  LIG1       -0.4913
     10 C           2.1897    6.5336    0.3004 C.3     1  LIG1        0.0790
     11 C           2.5199    3.0275   -0.4102 C.ar    1  LIG1        0.0267
     12 C           1.8130    1.8279   -0.3774 C.ar    1  LIG1        0.1421
     13 O           2.5191    0.6555   -0.5222 O.2     1  LIG1       -0.4620
     14 C           1.8010   -0.5231   -0.4873 C.ar    1  LIG1        0.1038
     15 C           0.4762   -0.6676   -0.3116 C.ar    1  LIG1        0.0644
     16 C          -0.1758   -1.9990   -0.2836 C.ar    1  LIG1       -0.0076
     17 C          -1.4779   -2.1737   -0.7614 C.ar    1  LIG1       -0.0501
     18 C          -2.1133   -3.4152   -0.7120 C.ar    1  LIG1       -0.0157
     19 C          -1.4538   -4.5271   -0.1883 C.ar    1  LIG1        0.1615
     20 O          -2.0068   -5.7803   -0.1060 O.3     1  LIG1       -0.4915
     21 C          -3.3195   -5.9362   -0.6311 C.3     1  LIG1        0.0790
     22 C          -0.1507   -4.3723    0.3144 C.ar    1  LIG1        0.1621
     23 O           0.4642   -5.4937    0.8176 O.3     1  LIG1       -0.4914
     24 C           1.4472   -5.2641    1.8213 C.3     1  LIG1        0.0790
     25 C           0.4790   -3.1203    0.2571 C.ar    1  LIG1       -0.0084
     26 H          -1.3213    3.0068    0.0581 H       1  LIG1        0.0663
     27 H          -1.9437    5.1941    0.9777 H       1  LIG1        0.0660
     28 H          -2.0990    4.8510   -0.7914 H       1  LIG1        0.0660
     29 H          -1.9632    6.5079   -0.2116 H       1  LIG1        0.0660
     30 H           3.0368    7.2137    0.4264 H       1  LIG1        0.0660
     31 H           1.7800    6.3290    1.2965 H       1  LIG1        0.0660
     32 H           1.4665    7.0499   -0.3383 H       1  LIG1        0.0660
     33 H           3.5993    3.0241   -0.5354 H       1  LIG1        0.0692
     34 H           2.4963   -1.3475   -0.6269 H       1  LIG1        0.1037
     35 H          -2.0419   -1.3407   -1.1787 H       1  LIG1        0.0625
     36 H          -3.1298   -3.4666   -1.0865 H       1  LIG1        0.0655
     37 H          -3.6448   -6.9619   -0.4359 H       1  LIG1        0.0660
     38 H          -3.3253   -5.7803   -1.7155 H       1  LIG1        0.0660
     39 H          -4.0310   -5.2685   -0.1328 H       1  LIG1        0.0660
     40 H           1.6482   -6.2168    2.3193 H       1  LIG1        0.0660
     41 H           1.0914   -4.5587    2.5808 H       1  LIG1        0.0660
     42 H           2.3860   -4.9181    1.3760 H       1  LIG1        0.0660
     43 H           1.4869   -3.0090    0.6388 H       1  LIG1        0.0661
@<TRIPOS>BOND
     1     1     2    2
     2     2     3   ar
     3     3     4   ar
     4     4     5   ar
     5     5     6    1
     6     6     7    1
     7     5     8   ar
     8     8     9    1
     9     9    10    1
    10     8    11   ar
    11    11    12   ar
    12     3    12   ar
    13    12    13   ar
    14    13    14   ar
    15    14    15   ar
    16     2    15   ar
    17    15    16    1
    18    16    17   ar
    19    17    18   ar
    20    18    19   ar
    21    19    20    1
    22    20    21    1
    23    19    22   ar
    24    22    23    1
    25    23    24    1
    26    22    25   ar
    27    16    25   ar
    28     4    26    1
    29     7    27    1
    30     7    28    1
    31     7    29    1
    32    10    30    1
    33    10    31    1
    34    10    32    1
    35    11    33    1
    36    14    34    1
    37    17    35    1
    38    18    36    1
    39    21    37    1
    40    21    38    1
    41    21    39    1
    42    24    40    1
    43    24    41    1
    44    24    42    1
    45    25    43    1
