@<TRIPOS>MOLECULE
NuBBE_1162
 58 59 0 0 0
SMALL
GASTEIGER

@<TRIPOS>ATOM
      1 O          -1.5490    3.0088   -1.0487 O.3     1  LIG1       -0.3947
      2 C          -1.2471    1.6318   -0.9007 C.3     1  LIG1        0.0477
      3 C          -0.6063    1.2731    0.4578 C.3     1  LIG1       -0.0086
      4 H          -0.3920    0.1966    0.3937 H       1  LIG1        0.0329
      5 C          -1.5450    1.4576    1.7100 C.3     1  LIG1       -0.0086
      6 H          -0.9874    1.0617    2.5701 H       1  LIG1        0.0329
      7 C          -1.8773    2.9171    2.0827 C.3     1  LIG1        0.0477
      8 O          -2.7172    3.5413    1.1204 O.3     1  LIG1       -0.3947
      9 C          -2.8603    0.6431    1.5884 C.3     1  LIG1       -0.0223
     10 C          -2.6666   -0.8469    1.4951 C.ar    1  LIG1       -0.0433
     11 C          -3.0945   -1.5289    0.3427 C.ar    1  LIG1       -0.0549
     12 C          -2.9475   -2.9012    0.2616 C.ar    1  LIG1       -0.0160
     13 C          -2.3822   -3.6430    1.2982 C.ar    1  LIG1        0.1615
     14 O          -2.2524   -5.0134    1.2582 O.3     1  LIG1       -0.4915
     15 C          -2.7548   -5.6571    0.0840 C.3     1  LIG1        0.0790
     16 C          -1.9192   -2.9689    2.4559 C.ar    1  LIG1        0.1617
     17 O          -1.3878   -3.7374    3.4488 O.3     1  LIG1       -0.4914
     18 C          -0.4065   -3.1451    4.3071 C.3     1  LIG1        0.0790
     19 C          -2.0968   -1.5871    2.5382 C.ar    1  LIG1       -0.0131
     20 C           0.7744    1.9508    0.6878 C.3     1  LIG1       -0.0223
     21 C           1.7572    1.7921   -0.4550 C.ar    1  LIG1       -0.0433
     22 C           2.6324    0.6987   -0.5444 C.ar    1  LIG1       -0.0131
     23 C           3.4642    0.5273   -1.6719 C.ar    1  LIG1        0.1617
     24 O           4.2986   -0.5629   -1.5877 O.3     1  LIG1       -0.4914
     25 C           4.6814   -1.2029   -2.8016 C.3     1  LIG1        0.0790
     26 C           3.4343    1.4792   -2.7026 C.ar    1  LIG1        0.1615
     27 O           4.2040    1.2771   -3.8140 O.3     1  LIG1       -0.4915
     28 C           4.6895    2.4164   -4.5031 C.3     1  LIG1        0.0790
     29 C           2.5769    2.5771   -2.6035 C.ar    1  LIG1       -0.0160
     30 C           1.7574    2.7360   -1.4858 C.ar    1  LIG1       -0.0549
     31 H          -2.3829    3.1545   -0.5508 H       1  LIG1        0.2094
     32 H          -0.5768    1.3617   -1.7207 H       1  LIG1        0.0560
     33 H          -2.1606    1.0594   -1.0801 H       1  LIG1        0.0560
     34 H          -0.9685    3.5126    2.2049 H       1  LIG1        0.0560
     35 H          -2.4081    2.9494    3.0414 H       1  LIG1        0.0560
     36 H          -2.5175    4.4962    1.1625 H       1  LIG1        0.2094
     37 H          -3.4443    0.9996    0.7355 H       1  LIG1        0.0317
     38 H          -3.4966    0.8289    2.4685 H       1  LIG1        0.0317
     39 H          -3.5534   -0.9932   -0.4715 H       1  LIG1        0.0621
     40 H          -3.3093   -3.3708   -0.6570 H       1  LIG1        0.0655
     41 H          -2.6357   -6.7403    0.1963 H       1  LIG1        0.0660
     42 H          -2.1801   -5.3503   -0.7951 H       1  LIG1        0.0660
     43 H          -3.8225   -5.4599   -0.0524 H       1  LIG1        0.0660
     44 H           0.5125   -3.7334    4.2174 H       1  LIG1        0.0660
     45 H          -0.7486   -3.2109    5.3449 H       1  LIG1        0.0660
     46 H          -0.1488   -2.1092    4.0823 H       1  LIG1        0.0660
     47 H          -1.8178   -1.0556    3.4533 H       1  LIG1        0.0658
     48 H           1.2292    1.5337    1.5972 H       1  LIG1        0.0317
     49 H           0.6553    3.0218    0.8846 H       1  LIG1        0.0317
     50 H           2.6630   -0.0424    0.2503 H       1  LIG1        0.0658
     51 H           5.4205   -1.9719   -2.5557 H       1  LIG1        0.0660
     52 H           5.1994   -0.5546   -3.5078 H       1  LIG1        0.0660
     53 H           3.8184   -1.6883   -3.2677 H       1  LIG1        0.0660
     54 H           5.5916    2.1051   -5.0395 H       1  LIG1        0.0660
     55 H           4.9695    3.2299   -3.8264 H       1  LIG1        0.0660
     56 H           3.9558    2.7480   -5.2431 H       1  LIG1        0.0660
     57 H           2.5032    3.3075   -3.4004 H       1  LIG1        0.0655
     58 H           1.0726    3.5817   -1.4528 H       1  LIG1        0.0621
@<TRIPOS>BOND
     1     1     2    1
     2     3     5    1
     3     5     6    1
     4     5     7    1
     5     7     8    1
     6     5     9    1
     7     9    10    1
     8    10    11   ar
     9    11    12   ar
    10    12    13   ar
    11    13    14    1
    12    14    15    1
    13    13    16   ar
    14    16    17    1
    15    17    18    1
    16    16    19   ar
    17    10    19   ar
    18     3    20    1
    19    20    21    1
    20    21    22   ar
    21    22    23   ar
    22    23    24    1
    23    24    25    1
    24    23    26   ar
    25    26    27    1
    26    27    28    1
    27    26    29   ar
    28    29    30   ar
    29    21    30   ar
    30     3     4    1
    31     3     2    1
    32     1    31    1
    33     2    32    1
    34     2    33    1
    35     7    34    1
    36     7    35    1
    37     8    36    1
    38     9    37    1
    39     9    38    1
    40    11    39    1
    41    12    40    1
    42    15    41    1
    43    15    42    1
    44    15    43    1
    45    18    44    1
    46    18    45    1
    47    18    46    1
    48    19    47    1
    49    20    48    1
    50    20    49    1
    51    22    50    1
    52    25    51    1
    53    25    52    1
    54    25    53    1
    55    28    54    1
    56    28    55    1
    57    28    56    1
    58    29    57    1
    59    30    58    1
