REMARK  Name = NuBBE_1236
REMARK  5 active torsions:
REMARK  status: ('A' for Active; 'I' for Inactive)
REMARK    1  A    between atoms: C_5  and  O_6
REMARK    2  A    between atoms: C_7  and  O_8
REMARK    3  A    between atoms: O_8  and  C_9
REMARK    4  A    between atoms: C_10  and  O_11
REMARK    5  A    between atoms: O_11  and  C_12
REMARK                            x       y       z     vdW  Elec       q    Type
REMARK                         _______ _______ _______ _____ _____    ______ ____
ROOT
ATOM      1  H   LIG A   1      -2.428   1.314   0.267  0.00  0.00    +0.166 HD
ATOM      2  N   LIG A   1      -1.447   1.307   0.015  0.00  0.00    -0.354 N 
ATOM      3  C   LIG A   1      -0.777   0.073   0.091  0.00  0.00    +0.058 A 
ATOM      4  C   LIG A   1       0.626   0.018   0.070  0.00  0.00    +0.091 A 
ATOM      5  C   LIG A   1       1.304  -1.217   0.099  0.00  0.00    +0.175 A 
ATOM      6  C   LIG A   1       0.573  -2.415   0.135  0.00  0.00    +0.204 A 
ATOM      7  C   LIG A   1      -0.840  -2.353   0.118  0.00  0.00    +0.167 A 
ATOM      8  C   LIG A   1      -1.502  -1.120   0.099  0.00  0.00    +0.076 A 
ATOM      9  C   LIG A   1      -0.781   2.541   0.054  0.00  0.00    +0.051 A 
ATOM     10  C   LIG A   1      -1.492   3.743   0.018  0.00  0.00    +0.026 A 
ATOM     11  C   LIG A   1      -0.814   4.966   0.004  0.00  0.00    +0.002 A 
ATOM     12  C   LIG A   1       0.581   4.997   0.010  0.00  0.00    +0.001 A 
ATOM     13  C   LIG A   1       1.303   3.805   0.021  0.00  0.00    +0.014 A 
ATOM     14  C   LIG A   1       0.620   2.585   0.034  0.00  0.00    +0.046 A 
ATOM     15  C   LIG A   1       1.370   1.306   0.035  0.00  0.00    +0.201 A 
ATOM     16  O   LIG A   1       2.599   1.300   0.015  0.00  0.00    -0.286 OA
ENDROOT
BRANCH   5  17
ATOM     17  O   LIG A   1       2.678  -1.245   0.090  0.00  0.00    -0.503 OA
ATOM     18  H   LIG A   1       3.012  -0.320   0.057  0.00  0.00    +0.292 HD
ENDBRANCH   5  17
BRANCH   6  19
ATOM     19  O   LIG A   1       1.073  -3.694   0.171  0.00  0.00    -0.488 OA
ATOM     20  C   LIG A   1       2.477  -3.895   0.177  0.00  0.00    +0.277 C 
ENDBRANCH   6  19
BRANCH   7  21
ATOM     21  O   LIG A   1      -1.510  -3.554   0.173  0.00  0.00    -0.491 OA
ATOM     22  C   LIG A   1      -2.775  -3.599  -0.474  0.00  0.00    +0.277 C 
ENDBRANCH   7  21
TORSDOF 3
