@<TRIPOS>MOLECULE
NuBBE_2525
 43 45 0 0 0
SMALL
GASTEIGER

@<TRIPOS>ATOM
      1 O          -1.0223   -4.7541    1.2107 O.3     1  UNL1       -0.4884
      2 C           0.3518   -5.0910    1.3003 C.3     1  UNL1        0.0791
      3 C          -1.3911   -3.4425    1.1217 C.ar    1  UNL1        0.2081
      4 C          -2.7631   -3.2547    1.0497 C.ar    1  UNL1        0.2149
      5 C          -3.3189   -2.0085    0.9466 C.ar    1  UNL1        0.2119
      6 C          -2.5567   -0.8621    0.9144 C.ar    1  UNL1        0.1768
      7 C          -1.1614   -0.9714    1.0001 C.ar    1  UNL1        0.1076
      8 C          -0.5837   -2.2809    1.0960 C.ar    1  UNL1        0.1767
      9 O           0.7826   -2.4331    1.1623 O.3     1  UNL1       -0.5027
     10 C          -0.2726    0.2525    1.0259 C.2     1  UNL1        0.1707
     11 O           0.9363    0.0898    1.1770 O.2     1  UNL1       -0.2918
     12 C          -0.9146    1.6318    0.8969 C.3     1  UNL1        0.0147
     13 C           0.0248    2.8331    0.8975 C.3     1  UNL1       -0.0207
     14 C           0.9792    2.8625   -0.2637 C.ar    1  UNL1       -0.0467
     15 C           0.5315    2.8573   -1.5898 C.ar    1  UNL1       -0.0551
     16 C           1.4476    2.7986   -2.6417 C.ar    1  UNL1       -0.0197
     17 C           2.8195    2.7812   -2.3869 C.ar    1  UNL1        0.1201
     18 C           3.2696    2.8229   -1.0698 C.ar    1  UNL1       -0.0197
     19 C           2.3560    2.8654   -0.0161 C.ar    1  UNL1       -0.0551
     20 O           3.6178    2.6603   -3.4899 O.3     1  UNL1       -0.4951
     21 C           4.9321    3.1892   -3.3654 C.3     1  UNL1        0.0788
     22 O          -3.2330    0.3184    0.8118 O.3     1  UNL1       -0.5027
     23 O          -4.6805   -2.0265    0.8908 O.3     1  UNL1       -0.4488
     24 C          -4.9266   -3.4344    1.0777 C.3     1  UNL1        0.2336
     25 O          -3.7241   -4.2249    1.0694 O.3     1  UNL1       -0.4486
     26 H           0.4191   -6.1845    1.3086 H       1  UNL1        0.0660
     27 H           0.7856   -4.7325    2.2385 H       1  UNL1        0.0660
     28 H           0.9094   -4.7458    0.4252 H       1  UNL1        0.0660
     29 H           1.2077   -1.5484    1.0859 H       1  UNL1        0.2923
     30 H          -1.5790    1.7610    1.7589 H       1  UNL1        0.0348
     31 H          -1.4979    1.6545   -0.0290 H       1  UNL1        0.0348
     32 H           0.5709    2.8682    1.8475 H       1  UNL1        0.0317
     33 H          -0.5783    3.7504    0.8585 H       1  UNL1        0.0317
     34 H          -0.5310    2.8743   -1.8187 H       1  UNL1        0.0621
     35 H           1.0901    2.7594   -3.6688 H       1  UNL1        0.0654
     36 H           4.3220    2.7802   -0.8184 H       1  UNL1        0.0654
     37 H           2.7292    2.8627    1.0070 H       1  UNL1        0.0621
     38 H           5.4635    2.9755   -4.2974 H       1  UNL1        0.0660
     39 H           5.5023    2.7179   -2.5598 H       1  UNL1        0.0660
     40 H           4.8924    4.2756   -3.2364 H       1  UNL1        0.0660
     41 H          -4.1850    0.1022    0.7492 H       1  UNL1        0.2923
     42 H          -5.5922   -3.7814    0.2804 H       1  UNL1        0.1166
     43 H          -5.4289   -3.5681    2.0430 H       1  UNL1        0.1166
@<TRIPOS>BOND
     1     1     2    1
     2     1     3    1
     3     3     4   ar
     4     4     5   ar
     5     5     6   ar
     6     6     7   ar
     7     7     8   ar
     8     3     8   ar
     9     8     9    1
    10     7    10    1
    11    10    11    2
    12    10    12    1
    13    12    13    1
    14    13    14    1
    15    14    15   ar
    16    15    16   ar
    17    16    17   ar
    18    17    18   ar
    19    18    19   ar
    20    14    19   ar
    21    17    20    1
    22    20    21    1
    23     6    22    1
    24     5    23    1
    25    23    24    1
    26    24    25    1
    27     4    25    1
    28     2    26    1
    29     2    27    1
    30     2    28    1
    31     9    29    1
    32    12    30    1
    33    12    31    1
    34    13    32    1
    35    13    33    1
    36    15    34    1
    37    16    35    1
    38    18    36    1
    39    19    37    1
    40    21    38    1
    41    21    39    1
    42    21    40    1
    43    22    41    1
    44    24    42    1
    45    24    43    1
