@<TRIPOS>MOLECULE
NuBBE_1332
 61 64 0 0 0
SMALL
GASTEIGER

@<TRIPOS>ATOM
      1 O          -4.2423    1.4334   -0.1185 O.2     1  LIG1       -0.2877
      2 C          -3.0152    1.4572   -0.0841 C.2     1  LIG1        0.2145
      3 C          -2.1844    2.6481    0.3295 C.3     1  LIG1        0.2057
      4 C          -1.1436    2.7945   -0.7889 C.3     1  LIG1        0.1692
      5 O          -0.3083    1.6264   -0.9266 O.3     1  LIG1       -0.4788
      6 C          -0.9145    0.4047   -0.8081 C.ar    1  LIG1        0.1427
      7 C          -2.2515    0.2485   -0.4327 C.ar    1  LIG1        0.1053
      8 C          -2.8239   -1.0189   -0.3191 C.ar    1  LIG1        0.1416
      9 O          -4.1485   -1.1798    0.0174 O.3     1  LIG1       -0.5052
     10 C          -2.0368   -2.1619   -0.5153 C.ar    1  LIG1        0.0591
     11 C          -0.6855   -2.0127   -0.8646 C.ar    1  LIG1        0.1393
     12 O           0.1517   -3.0804   -1.0551 O.3     1  LIG1       -0.4811
     13 C          -0.3116   -4.4188   -0.7916 C.3     1  LIG1        0.1235
     14 C           0.5032   -4.9571    0.3906 C.3     1  LIG1       -0.0215
     15 C          -1.7808   -4.5489   -0.4828 C.2     1  LIG1       -0.0408
     16 C          -2.5944   -3.4991   -0.3554 C.2     1  LIG1       -0.0478
     17 C           0.0115   -5.2287   -2.0518 C.3     1  LIG1       -0.0215
     18 C          -0.1195   -0.7315   -1.0478 C.ar    1  LIG1        0.0412
     19 C           1.3357   -0.5827   -1.4624 C.3     1  LIG1       -0.0023
     20 C           2.2656   -0.5005   -0.2803 C.2     1  LIG1       -0.0807
     21 C           3.3232   -1.2846    0.0096 C.2     1  LIG1       -0.0793
     22 C           3.8217   -2.4243   -0.8354 C.3     1  LIG1       -0.0440
     23 C           4.1159   -1.0605    1.2710 C.3     1  LIG1       -0.0440
     24 C          -0.2378    3.9951   -0.5539 C.ar    1  LIG1       -0.0033
     25 C           0.9669    3.8639    0.1576 C.ar    1  LIG1       -0.0549
     26 C           1.8019    4.9622    0.3613 C.ar    1  LIG1       -0.0614
     27 C           1.4392    6.2109   -0.1336 C.ar    1  LIG1       -0.0617
     28 C           0.2364    6.3643   -0.8215 C.ar    1  LIG1       -0.0614
     29 C          -0.6005    5.2647   -1.0288 C.ar    1  LIG1       -0.0549
     30 O          -1.5315    2.3717    1.5814 O.3     1  LIG1       -0.4493
     31 C          -2.2955    2.5130    2.6951 C.2     1  LIG1        0.3047
     32 C          -1.4780    2.2071    3.9121 C.3     1  LIG1        0.0333
     33 O          -3.4710    2.8407    2.7096 O.2     1  LIG1       -0.2511
     34 H          -2.8094    3.5468    0.3966 H       1  LIG1        0.0860
     35 H          -1.6446    2.9335   -1.7580 H       1  LIG1        0.0827
     36 H          -4.5846   -0.2987    0.0224 H       1  LIG1        0.2922
     37 H           0.3233   -4.3629    1.2950 H       1  LIG1        0.0271
     38 H           1.5784   -4.8929    0.1879 H       1  LIG1        0.0271
     39 H           0.2583   -6.0016    0.6138 H       1  LIG1        0.0271
     40 H          -2.1847   -5.5490   -0.3488 H       1  LIG1        0.0611
     41 H          -3.6473   -3.6155   -0.1226 H       1  LIG1        0.0624
     42 H           1.0705   -5.1297   -2.3179 H       1  LIG1        0.0271
     43 H          -0.5582   -4.8547   -2.9112 H       1  LIG1        0.0271
     44 H          -0.2151   -6.2930   -1.9260 H       1  LIG1        0.0271
     45 H           1.4565    0.3280   -2.0625 H       1  LIG1        0.0358
     46 H           1.5968   -1.3915   -2.1510 H       1  LIG1        0.0358
     47 H           2.0211    0.3046    0.4122 H       1  LIG1        0.0575
     48 H           3.3469   -2.4824   -1.8166 H       1  LIG1        0.0274
     49 H           3.6537   -3.3756   -0.3211 H       1  LIG1        0.0274
     50 H           4.8979   -2.3169   -1.0126 H       1  LIG1        0.0274
     51 H           3.7915   -0.1657    1.8127 H       1  LIG1        0.0274
     52 H           5.1787   -0.9362    1.0387 H       1  LIG1        0.0274
     53 H           4.0037   -1.9184    1.9419 H       1  LIG1        0.0274
     54 H           1.2689    2.8962    0.5539 H       1  LIG1        0.0621
     55 H           2.7371    4.8385    0.9012 H       1  LIG1        0.0618
     56 H           2.0945    7.0652    0.0172 H       1  LIG1        0.0618
     57 H          -0.0461    7.3431   -1.2015 H       1  LIG1        0.0618
     58 H          -1.5328    5.4113   -1.5703 H       1  LIG1        0.0621
     59 H          -1.1111    1.1783    3.8639 H       1  LIG1        0.0342
     60 H          -2.0988    2.3145    4.8059 H       1  LIG1        0.0342
     61 H          -0.6431    2.9092    3.9799 H       1  LIG1        0.0342
@<TRIPOS>BOND
     1     1     2    2
     2     2     3    1
     3     3     4    1
     4     4     5    1
     5     5     6    1
     6     6     7   ar
     7     2     7    1
     8     7     8   ar
     9     8     9    1
    10     8    10   ar
    11    10    11   ar
    12    11    12    1
    13    12    13    1
    14    13    14    1
    15    13    15    1
    16    15    16    2
    17    10    16    1
    18    13    17    1
    19    11    18   ar
    20     6    18   ar
    21    18    19    1
    22    19    20    1
    23    20    21    2
    24    21    22    1
    25    21    23    1
    26     4    24    1
    27    24    25   ar
    28    25    26   ar
    29    26    27   ar
    30    27    28   ar
    31    28    29   ar
    32    24    29   ar
    33     3    30    1
    34    30    31    1
    35    31    32    1
    36    31    33    2
    37     3    34    1
    38     4    35    1
    39     9    36    1
    40    14    37    1
    41    14    38    1
    42    14    39    1
    43    15    40    1
    44    16    41    1
    45    17    42    1
    46    17    43    1
    47    17    44    1
    48    19    45    1
    49    19    46    1
    50    20    47    1
    51    22    48    1
    52    22    49    1
    53    22    50    1
    54    23    51    1
    55    23    52    1
    56    23    53    1
    57    25    54    1
    58    26    55    1
    59    27    56    1
    60    28    57    1
    61    29    58    1
    62    32    59    1
    63    32    60    1
    64    32    61    1
