@<TRIPOS>MOLECULE
NuBBE_1086
 41 43 0 0 0
SMALL
GASTEIGER

@<TRIPOS>ATOM
      1 H          -4.1321    4.3178    0.6644 H       1  LIG1        0.1653
      2 N          -3.9656    3.4046    1.0628 N.ar    1  LIG1       -0.3606
      3 C          -3.0794    2.4818    0.5542 C.ar    1  LIG1        0.0465
      4 C          -2.2379    2.5515   -0.5613 C.ar    1  LIG1       -0.0375
      5 C          -1.4350    1.4380   -0.8406 C.ar    1  LIG1       -0.0541
      6 C          -1.4720    0.2864   -0.0433 C.ar    1  LIG1       -0.0176
      7 C          -0.6227   -0.9160   -0.3955 C.3     1  LIG1        0.0908
      8 H          -0.1391   -0.7626   -1.3685 H       1  LIG1        0.0652
      9 C           0.3971   -1.3224    0.6864 C.3     1  LIG1        0.0158
     10 H          -0.0183   -1.1315    1.6857 H       1  LIG1        0.0378
     11 C           1.7338   -0.5541    0.5873 C.3     1  LIG1       -0.0252
     12 C           2.4817   -0.7576   -0.7079 C.2     1  LIG1       -0.0846
     13 C           3.2902    0.1089   -1.3482 C.2     1  LIG1       -0.0796
     14 C           3.6465    1.4908   -0.8741 C.3     1  LIG1       -0.0440
     15 C           3.9426   -0.2926   -2.6466 C.3     1  LIG1       -0.0440
     16 C           0.4242   -2.8207    0.5206 C.2     1  LIG1       -0.0451
     17 C          -0.7480   -3.2280   -0.3089 C.3     1  LIG1        0.0697
     18 O          -1.5079   -2.0421   -0.5484 O.3     1  LIG1       -0.3671
     19 C           1.3210   -3.6886    1.0219 C.2     1  LIG1       -0.0969
     20 C          -2.3393    0.2470    1.0668 C.ar    1  LIG1       -0.0469
     21 C          -3.1471    1.3573    1.3741 C.ar    1  LIG1       -0.0000
     22 C          -4.0993    1.6340    2.3928 C.ar    1  LIG1       -0.0367
     23 C          -4.5824    2.9046    2.1795 C.ar    1  LIG1        0.0027
     24 H          -2.2098    3.4297   -1.1977 H       1  LIG1        0.0638
     25 H          -0.7834    1.4745   -1.7121 H       1  LIG1        0.0622
     26 H           1.5232    0.5092    0.7449 H       1  LIG1        0.0314
     27 H           2.3871   -0.8732    1.4090 H       1  LIG1        0.0314
     28 H           2.3467   -1.7403   -1.1600 H       1  LIG1        0.0572
     29 H           3.0985    1.7988    0.0190 H       1  LIG1        0.0274
     30 H           3.4338    2.2256   -1.6580 H       1  LIG1        0.0274
     31 H           4.7155    1.5430   -0.6395 H       1  LIG1        0.0274
     32 H           3.6436   -1.2970   -2.9662 H       1  LIG1        0.0274
     33 H           5.0323   -0.2877   -2.5444 H       1  LIG1        0.0274
     34 H           3.6602    0.4027   -3.4436 H       1  LIG1        0.0274
     35 H          -1.3920   -3.9456    0.2074 H       1  LIG1        0.0607
     36 H          -0.4318   -3.6400   -1.2726 H       1  LIG1        0.0607
     37 H           2.1532   -3.3667    1.6325 H       1  LIG1        0.0535
     38 H           1.2240   -4.7524    0.8336 H       1  LIG1        0.0535
     39 H          -2.4049   -0.6486    1.6792 H       1  LIG1        0.0628
     40 H          -4.3951    0.9703    3.1944 H       1  LIG1        0.0638
     41 H          -5.3119    3.4911    2.7211 H       1  LIG1        0.0807
@<TRIPOS>BOND
     1     1     2    1
     2     2     3   ar
     3     3     4   ar
     4     4     5   ar
     5     5     6   ar
     6     6     7    1
     7     7     8    1
     8     7     9    1
     9    11    12    1
    10    12    13    2
    11    13    14    1
    12    13    15    1
    13     9    16    1
    14    16    17    1
    15    17    18    1
    16     7    18    1
    17    16    19    2
    18     6    20   ar
    19    20    21   ar
    20     3    21   ar
    21    21    22   ar
    22    22    23   ar
    23     2    23   ar
    24     9    11    1
    25     9    10    1
    26     4    24    1
    27     5    25    1
    28    11    26    1
    29    11    27    1
    30    12    28    1
    31    14    29    1
    32    14    30    1
    33    14    31    1
    34    15    32    1
    35    15    33    1
    36    15    34    1
    37    17    35    1
    38    17    36    1
    39    19    37    1
    40    19    38    1
    41    20    39    1
    42    22    40    1
    43    23    41    1
