@<TRIPOS>MOLECULE
NuBBE_300
 64 63 0 0 0
SMALL
GASTEIGER

@<TRIPOS>ATOM
      1 O          -4.1168    5.8226    3.2083 O.3     1  LIG1       -0.3862
      2 C          -3.1578    5.7986    4.2779 C.3     1  LIG1        0.0975
      3 H          -3.1778    6.7328    4.8465 H       1  LIG1        0.0650
      4 C          -3.4768    4.5724    5.1458 C.3     1  LIG1        0.0012
      5 H          -2.6566    4.3270    5.8307 H       1  LIG1        0.0873
      6 C          -4.7787    4.6536    5.9252 C.3     1  LIG1       -0.0192
      7 N          -3.6046    3.4352    4.1533 N.4     1  LIG1        0.2330
      8 H          -4.2522    3.8313    3.4396 H       1  LIG1        0.2020
      9 H          -4.0752    2.6270    4.5711 H       1  LIG1        0.2020
     10 C          -2.3152    3.0883    3.4770 C.3     1  LIG1       -0.0222
     11 H          -1.6320    2.7642    4.2714 H       1  LIG1        0.0850
     12 C          -2.5869    1.9206    2.5175 C.3     1  LIG1       -0.0097
     13 C          -1.3233    1.4610    1.7885 C.3     1  LIG1       -0.0480
     14 C          -1.6003    0.2970    0.8383 C.3     1  LIG1       -0.0529
     15 C          -0.3090   -0.1344    0.1441 C.3     1  LIG1       -0.0531
     16 C          -0.5501   -1.2750   -0.8400 C.3     1  LIG1       -0.0531
     17 C           0.7550   -1.6852   -1.5170 C.3     1  LIG1       -0.0531
     18 C           0.5253   -2.8225   -2.5087 C.3     1  LIG1       -0.0531
     19 C           1.8393   -3.2433   -3.1521 C.3     1  LIG1       -0.0531
     20 C           1.6329   -4.3931   -4.1393 C.3     1  LIG1       -0.0530
     21 C           2.9402   -4.8392   -4.7852 C.3     1  LIG1       -0.0527
     22 C           3.9721   -5.3276   -3.7608 C.3     1  LIG1       -0.0464
     23 C           5.2915   -5.7273   -4.4068 C.3     1  LIG1        0.0055
     24 C           5.9788   -4.5506   -5.0904 C.2     1  LIG1        0.1303
     25 C           7.2731   -4.8396   -5.7998 C.3     1  LIG1       -0.0061
     26 O           5.5372   -3.4089   -5.0789 O.2     1  LIG1       -0.2977
     27 C          -1.7533    4.3311    2.7676 C.3     1  LIG1       -0.0072
     28 C          -1.7869    5.5984    3.6297 C.3     1  LIG1       -0.0165
     29 CL         -6.1425    7.7961    4.4287 Cl      2  LIG2        0.0000
     30 H          -4.7911    6.5199    3.4616 H       1  LIG1        0.2100
     31 H          -4.7628    5.5065    6.6110 H       1  LIG1        0.0285
     32 H          -4.9215    3.7500    6.5285 H       1  LIG1        0.0285
     33 H          -5.6486    4.7447    5.2684 H       1  LIG1        0.0285
     34 H          -3.0006    1.0753    3.0829 H       1  LIG1        0.0320
     35 H          -3.3486    2.2094    1.7819 H       1  LIG1        0.0320
     36 H          -0.5655    1.1656    2.5242 H       1  LIG1        0.0267
     37 H          -0.9040    2.2884    1.2054 H       1  LIG1        0.0267
     38 H          -2.3403    0.6010    0.0879 H       1  LIG1        0.0265
     39 H          -2.0255   -0.5475    1.3930 H       1  LIG1        0.0265
     40 H           0.4234   -0.4486    0.8980 H       1  LIG1        0.0265
     41 H           0.1254    0.7206   -0.3887 H       1  LIG1        0.0265
     42 H          -1.2764   -0.9630   -1.5998 H       1  LIG1        0.0265
     43 H          -0.9789   -2.1356   -0.3126 H       1  LIG1        0.0265
     44 H           1.4817   -1.9974   -0.7560 H       1  LIG1        0.0265
     45 H           1.1893   -0.8239   -2.0397 H       1  LIG1        0.0265
     46 H          -0.1826   -2.5079   -3.2834 H       1  LIG1        0.0265
     47 H           0.0858   -3.6820   -1.9884 H       1  LIG1        0.0265
     48 H           2.5227   -3.5429   -2.3513 H       1  LIG1        0.0265
     49 H           2.3005   -2.3907   -3.6665 H       1  LIG1        0.0265
     50 H           0.9481   -4.0697   -4.9332 H       1  LIG1        0.0265
     51 H           1.1651   -5.2465   -3.6367 H       1  LIG1        0.0265
     52 H           3.3228   -3.9947   -5.3654 H       1  LIG1        0.0265
     53 H           2.7402   -5.6378   -5.5090 H       1  LIG1        0.0265
     54 H           3.5568   -6.1829   -3.2122 H       1  LIG1        0.0269
     55 H           4.1871   -4.5521   -3.0183 H       1  LIG1        0.0269
     56 H           5.1276   -6.5284   -5.1342 H       1  LIG1        0.0341
     57 H           5.9690   -6.0986   -3.6293 H       1  LIG1        0.0341
     58 H           7.5997   -5.8607   -5.6040 H       1  LIG1        0.0306
     59 H           8.0249   -4.1437   -5.4234 H       1  LIG1        0.0306
     60 H           7.1247   -4.6999   -6.8730 H       1  LIG1        0.0306
     61 H          -2.3196    4.5132    1.8446 H       1  LIG1        0.0321
     62 H          -0.7164    4.1517    2.4612 H       1  LIG1        0.0321
     63 H          -1.5490    6.4567    2.9902 H       1  LIG1        0.0294
     64 H          -1.0127    5.5409    4.4040 H       1  LIG1        0.0294
@<TRIPOS>BOND
     1     1     2    1
     2     2     3    1
     3     2     4    1
     4     4     5    1
     5     4     6    1
     6     4     7    1
     7     7     8    1
     8     7     9    1
     9     7    10    1
    10    12    13    1
    11    13    14    1
    12    14    15    1
    13    15    16    1
    14    16    17    1
    15    17    18    1
    16    18    19    1
    17    19    20    1
    18    20    21    1
    19    21    22    1
    20    22    23    1
    21    23    24    1
    22    24    25    1
    23    24    26    2
    24    10    27    1
    25    27    28    1
    26     2    28    1
    27    10    12    1
    28    10    11    1
    29     1    30    1
    30     6    31    1
    31     6    32    1
    32     6    33    1
    33    12    34    1
    34    12    35    1
    35    13    36    1
    36    13    37    1
    37    14    38    1
    38    14    39    1
    39    15    40    1
    40    15    41    1
    41    16    42    1
    42    16    43    1
    43    17    44    1
    44    17    45    1
    45    18    46    1
    46    18    47    1
    47    19    48    1
    48    19    49    1
    49    20    50    1
    50    20    51    1
    51    21    52    1
    52    21    53    1
    53    22    54    1
    54    22    55    1
    55    23    56    1
    56    23    57    1
    57    25    58    1
    58    25    59    1
    59    25    60    1
    60    27    61    1
    61    27    62    1
    62    28    63    1
    63    28    64    1
