@<TRIPOS>MOLECULE
NuBBE_321
 55 58 0 0 0
SMALL
GASTEIGER

@<TRIPOS>ATOM
      1 O           0.3771   -3.3018   -3.6369 O.3     1  LIG1       -0.5058
      2 C           0.3405   -3.7241   -2.3390 C.ar    1  LIG1        0.1348
      3 C           0.1346   -2.8007   -1.3079 C.ar    1  LIG1        0.1092
      4 C          -0.2771   -1.4088   -1.5365 C.ar    1  LIG1        0.2382
      5 C          -0.1257   -0.4584   -0.3973 C.ar    1  LIG1        0.2138
      6 O          -0.3242    0.9014   -0.5572 O.3     1  LIG1       -0.4532
      7 C           0.0838    1.4891   -1.8036 C.3     1  LIG1        0.2311
      8 H           0.6025    0.7878   -2.4626 H       1  LIG1        0.1084
      9 C          -1.1312    2.1019   -2.5352 C.3     1  LIG1        0.1454
     10 H          -1.8891    1.3457   -2.7646 H       1  LIG1        0.0683
     11 O          -0.7360    2.6902   -3.7889 O.3     1  LIG1       -0.3829
     12 C          -1.7428    3.1790   -1.6399 C.3     1  LIG1        0.1151
     13 H          -2.1505    2.7339   -0.7244 H       1  LIG1        0.0648
     14 O          -2.8535    3.8039   -2.3064 O.3     1  LIG1       -0.3864
     15 C          -0.6934    4.2382   -1.2888 C.3     1  LIG1        0.1096
     16 H          -0.4817    4.8360   -2.1837 H       1  LIG1        0.0646
     17 O          -1.2702    5.1428   -0.3314 O.3     1  LIG1       -0.3866
     18 C           0.6017    3.5965   -0.7545 C.3     1  LIG1        0.0883
     19 H           0.4533    3.2486    0.2755 H       1  LIG1        0.0621
     20 C           1.7336    4.6184   -0.7462 C.3     1  LIG1       -0.0360
     21 O           1.0686    2.5035   -1.5430 O.3     1  LIG1       -0.3339
     22 C           0.1128   -0.9959    0.8179 C.ar    1  LIG1        0.1810
     23 C           0.3400   -0.1720    2.0202 C.ar    1  LIG1        0.0247
     24 C          -0.7114    0.1759    2.8829 C.ar    1  LIG1       -0.0057
     25 C          -0.4435    0.9553    4.0085 C.ar    1  LIG1        0.1589
     26 O          -1.4268    1.3364    4.8810 O.3     1  LIG1       -0.5033
     27 C           0.8540    1.3815    4.2847 C.ar    1  LIG1        0.1583
     28 O           1.1060    2.1472    5.3869 O.3     1  LIG1       -0.5033
     29 C           1.9041    1.0357    3.4503 C.ar    1  LIG1       -0.0159
     30 C           1.6469    0.2559    2.3190 C.ar    1  LIG1       -0.0473
     31 O           0.1900   -2.3501    1.0776 O.2     1  LIG1       -0.4507
     32 C           0.2434   -3.2128    0.0129 C.ar    1  LIG1        0.1465
     33 C           0.4245   -4.5591    0.3149 C.ar    1  LIG1        0.0233
     34 C           0.5348   -5.5003   -0.7090 C.ar    1  LIG1        0.1271
     35 O           0.6834   -6.8448   -0.4916 O.3     1  LIG1       -0.4949
     36 C           0.0486   -7.3262    0.6951 C.3     1  LIG1        0.0788
     37 C           0.5468   -5.0743   -2.0414 C.ar    1  LIG1        0.0225
     38 O          -0.7954   -1.0479   -2.5966 O.2     1  LIG1       -0.2830
     39 H           0.3531   -4.0562   -4.2465 H       1  LIG1        0.2922
     40 H          -1.5375    3.1254   -4.1379 H       1  LIG1        0.2102
     41 H          -3.0582    4.6035   -1.7809 H       1  LIG1        0.2100
     42 H          -1.3219    4.6814    0.5250 H       1  LIG1        0.2100
     43 H           2.6569    4.1630   -0.3719 H       1  LIG1        0.0255
     44 H           1.4912    5.4877   -0.1302 H       1  LIG1        0.0255
     45 H           1.9490    4.9579   -1.7667 H       1  LIG1        0.0255
     46 H          -1.7204   -0.1619    2.6696 H       1  LIG1        0.0662
     47 H          -2.2671    0.9434    4.5896 H       1  LIG1        0.2923
     48 H           0.2370    2.2554    5.8216 H       1  LIG1        0.2923
     49 H           2.9127    1.3693    3.6764 H       1  LIG1        0.0655
     50 H           2.4773   -0.0174    1.6710 H       1  LIG1        0.0626
     51 H           0.4860   -4.8408    1.3596 H       1  LIG1        0.0691
     52 H           0.2138   -8.4047    0.7625 H       1  LIG1        0.0660
     53 H          -1.0314   -7.1450    0.6518 H       1  LIG1        0.0660
     54 H           0.4787   -6.8871    1.6006 H       1  LIG1        0.0660
     55 H           0.7021   -5.8014   -2.8344 H       1  LIG1        0.0691
@<TRIPOS>BOND
     1     1     2    1
     2     2     3   ar
     3     3     4   ar
     4     4     5   ar
     5     5     6    1
     6     7     9    1
     7     9    12    1
     8    12    13    1
     9    12    14    1
    10    12    15    1
    11    15    18    1
    12    18    19    1
    13    18    20    1
    14    18    21    1
    15     7    21    1
    16     5    22   ar
    17    22    23    1
    18    23    24   ar
    19    24    25   ar
    20    25    26    1
    21    25    27   ar
    22    27    28    1
    23    27    29   ar
    24    29    30   ar
    25    23    30   ar
    26    22    31   ar
    27    31    32   ar
    28     3    32   ar
    29    32    33   ar
    30    33    34   ar
    31    34    35    1
    32    35    36    1
    33    34    37   ar
    34     2    37   ar
    35     4    38    2
    36     9    11    1
    37     9    10    1
    38     7     8    1
    39     7     6    1
    40    15    17    1
    41    15    16    1
    42     1    39    1
    43    11    40    1
    44    14    41    1
    45    17    42    1
    46    20    43    1
    47    20    44    1
    48    20    45    1
    49    24    46    1
    50    26    47    1
    51    28    48    1
    52    29    49    1
    53    30    50    1
    54    33    51    1
    55    36    52    1
    56    36    53    1
    57    36    54    1
    58    37    55    1
