@<TRIPOS>MOLECULE
NuBBE_2473
 53 55 0 0 0
SMALL
GASTEIGER

@<TRIPOS>ATOM
      1 C           2.9836   -3.9397   -3.9558 C.3     1  LIG1        0.0790
      2 O           3.9930   -3.5850   -3.0193 O.3     1  LIG1       -0.4914
      3 C           3.7201   -2.5461   -2.1621 C.ar    1  LIG1        0.1617
      4 C           2.5045   -1.8502   -2.1368 C.ar    1  LIG1       -0.0131
      5 C           2.3145   -0.7636   -1.2725 C.ar    1  LIG1       -0.0433
      6 C           1.0229    0.0161   -1.3056 C.3     1  LIG1       -0.0222
      7 C          -0.0687   -0.5383   -0.3724 C.3     1  LIG1       -0.0060
      8 H          -0.2332   -1.6010   -0.5853 H       1  LIG1        0.0330
      9 C          -1.3791    0.2569   -0.4321 C.3     1  LIG1        0.0178
     10 H          -2.1247   -0.3984    0.0340 H       1  LIG1        0.0355
     11 C          -1.9315    0.6225   -1.8003 C.3     1  LIG1        0.0500
     12 O          -2.1808   -0.5755   -2.5257 O.3     1  LIG1       -0.3946
     13 C          -1.0715    1.4710    0.4561 C.3     1  LIG1        0.0890
     14 H          -0.6334    2.2689   -0.1603 H       1  LIG1        0.0650
     15 C          -2.2055    2.0501    1.2702 C.ar    1  LIG1       -0.0149
     16 C          -2.2087    3.4210    1.5578 C.ar    1  LIG1       -0.0524
     17 C          -3.2271    3.9859    2.3246 C.ar    1  LIG1       -0.0162
     18 C          -4.2598    3.1868    2.8195 C.ar    1  LIG1        0.1585
     19 O          -5.2484    3.7876    3.5424 O.3     1  LIG1       -0.5033
     20 C          -4.2696    1.8131    2.5798 C.ar    1  LIG1        0.1616
     21 O          -5.1707    0.8746    3.0119 O.3     1  LIG1       -0.4914
     22 C          -6.2707    1.3326    3.7870 C.3     1  LIG1        0.0790
     23 C          -3.2290    1.2608    1.8138 C.ar    1  LIG1       -0.0107
     24 O          -0.0359    1.0511    1.3717 O.3     1  LIG1       -0.3713
     25 C           0.2537   -0.3288    1.1029 C.3     1  LIG1        0.0520
     26 C           3.3449   -0.3986   -0.4036 C.ar    1  LIG1       -0.0549
     27 C           4.5494   -1.1022   -0.3988 C.ar    1  LIG1       -0.0160
     28 C           4.7506   -2.1737   -1.2754 C.ar    1  LIG1        0.1615
     29 O           5.9106   -2.9078   -1.3378 O.3     1  LIG1       -0.4915
     30 C           6.9555   -2.5483   -0.4435 C.3     1  LIG1        0.0790
     31 H           3.3911   -4.7102   -4.6172 H       1  LIG1        0.0660
     32 H           2.6976   -3.0889   -4.5842 H       1  LIG1        0.0660
     33 H           2.1129   -4.3634   -3.4445 H       1  LIG1        0.0660
     34 H           1.6872   -2.1230   -2.7972 H       1  LIG1        0.0658
     35 H           0.6631    0.0044   -2.3419 H       1  LIG1        0.0317
     36 H           1.2410    1.0689   -1.0873 H       1  LIG1        0.0317
     37 H          -2.8766    1.1658   -1.6941 H       1  LIG1        0.0561
     38 H          -1.2456    1.2461   -2.3809 H       1  LIG1        0.0561
     39 H          -2.8011   -0.3569   -3.2432 H       1  LIG1        0.2094
     40 H          -1.4050    4.0619    1.1963 H       1  LIG1        0.0622
     41 H          -3.1962    5.0512    2.5322 H       1  LIG1        0.0655
     42 H          -5.0213    4.7258    3.6588 H       1  LIG1        0.2923
     43 H          -6.8113    0.4527    4.1465 H       1  LIG1        0.0660
     44 H          -6.9585    1.9172    3.1680 H       1  LIG1        0.0660
     45 H          -5.9422    1.8786    4.6747 H       1  LIG1        0.0660
     46 H          -3.2386    0.1818    1.6675 H       1  LIG1        0.0659
     47 H          -0.4092   -0.9304    1.7371 H       1  LIG1        0.0563
     48 H           1.2798   -0.5566    1.3942 H       1  LIG1        0.0563
     49 H           3.2191    0.4388    0.2801 H       1  LIG1        0.0621
     50 H           5.3142   -0.7794    0.2991 H       1  LIG1        0.0655
     51 H           7.7637   -3.2768   -0.5566 H       1  LIG1        0.0660
     52 H           6.6236   -2.5889    0.5995 H       1  LIG1        0.0660
     53 H           7.3574   -1.5600   -0.6918 H       1  LIG1        0.0660
@<TRIPOS>BOND
     1     1     2    1
     2     2     3    1
     3     3     4   ar
     4     4     5   ar
     5     5     6    1
     6     7     9    1
     7    11    12    1
     8     9    13    1
     9    15    16   ar
    10    16    17   ar
    11    17    18   ar
    12    18    19    1
    13    18    20   ar
    14    20    21    1
    15    21    22    1
    16    20    23   ar
    17    15    23   ar
    18    13    24    1
    19    24    25    1
    20     7    25    1
    21     5    26   ar
    22    26    27   ar
    23    27    28   ar
    24     3    28   ar
    25    28    29    1
    26    29    30    1
    27     9    11    1
    28     9    10    1
    29     7     8    1
    30     7     6    1
    31    13    15    1
    32    13    14    1
    33     1    31    1
    34     1    32    1
    35     1    33    1
    36     4    34    1
    37     6    35    1
    38     6    36    1
    39    11    37    1
    40    11    38    1
    41    12    39    1
    42    16    40    1
    43    17    41    1
    44    19    42    1
    45    22    43    1
    46    22    44    1
    47    22    45    1
    48    23    46    1
    49    25    47    1
    50    25    48    1
    51    26    49    1
    52    27    50    1
    53    30    51    1
    54    30    52    1
    55    30    53    1
