REMARK  Name = NuBBE_1116
REMARK  7 active torsions:
REMARK  status: ('A' for Active; 'I' for Inactive)
REMARK    1  A    between atoms: C_3  and  C_4
REMARK    2  A    between atoms: C_4  and  C_5
REMARK    3  A    between atoms: C_4  and  C_6
REMARK    4  A    between atoms: C_4  and  C_7
REMARK    5  A    between atoms: C_14  and  O_15
REMARK    6  A    between atoms: O_15  and  C_16
REMARK    7  A    between atoms: C_17  and  O_18
REMARK                            x       y       z     vdW  Elec       q    Type
REMARK                         _______ _______ _______ _____ _____    ______ ____
ROOT
ATOM      1  O   LIG A   1      -3.193  -1.417  -0.374  0.00  0.00    -0.245 OA
ATOM      2  C   LIG A   1      -2.001  -1.210  -0.202  0.00  0.00    +0.341 A 
ATOM      3  C   LIG A   1      -1.431   0.173  -0.055  0.00  0.00    +0.047 A 
ATOM      4  C   LIG A   1      -0.099   0.302   0.098  0.00  0.00    +0.023 A 
ATOM      5  O   LIG A   1      -1.117  -2.286  -0.131  0.00  0.00    -0.422 OA
ATOM      6  C   LIG A   1       0.266  -2.114   0.012  0.00  0.00    +0.143 A 
ATOM      7  C   LIG A   1       0.802  -0.839   0.122  0.00  0.00    +0.022 A 
ATOM      8  C   LIG A   1       2.189  -0.684   0.245  0.00  0.00    +0.061 A 
ATOM      9  C   LIG A   1       3.020  -1.806   0.253  0.00  0.00    +0.162 A 
ATOM     10  C   LIG A   1       2.443  -3.079   0.143  0.00  0.00    +0.162 A 
ATOM     11  C   LIG A   1       1.070  -3.248   0.024  0.00  0.00    +0.096 A 
ENDROOT
BRANCH   3  12
ATOM     12  C   LIG A   1      -2.418   1.371  -0.092  0.00  0.00    +0.015 C 
ATOM     13  C   LIG A   1      -3.164   1.417  -1.447  0.00  0.00    +0.020 C 
ATOM     14  C   LIG A   1      -3.462   1.258   1.044  0.00  0.00    +0.020 C 
BRANCH  12  15
ATOM     15  C   LIG A   1      -1.695   2.712   0.164  0.00  0.00    -0.023 C 
ATOM     16  C   LIG A   1      -1.585   3.769  -0.656  0.00  0.00    +0.005 C 
ENDBRANCH  12  15
ENDBRANCH   3  12
BRANCH   9  17
ATOM     17  O   LIG A   1       4.388  -1.794   0.358  0.00  0.00    -0.491 OA
ATOM     18  C   LIG A   1       5.006  -0.515   0.452  0.00  0.00    +0.277 C 
ENDBRANCH   9  17
BRANCH  10  19
ATOM     19  O   LIG A   1       3.235  -4.196   0.143  0.00  0.00    -0.503 OA
ATOM     20  H   LIG A   1       4.150  -3.862   0.223  0.00  0.00    +0.292 HD
ENDBRANCH  10  19
TORSDOF 4
