REMARK  Name = NuBBE_988
REMARK  12 active torsions:
REMARK  status: ('A' for Active; 'I' for Inactive)
REMARK    1  A    between atoms: C_1  and  C_2
REMARK    2  A    between atoms: C_9  and  O_11
REMARK    3  A    between atoms: C_12  and  C_13
REMARK    4  A    between atoms: C_17  and  C_19
REMARK    5  A    between atoms: C_19  and  C_21
REMARK    6  A    between atoms: C_19  and  C_22
REMARK    7  A    between atoms: C_22  and  C_23
REMARK    8  A    between atoms: C_23  and  C_24
REMARK    9  A    between atoms: C_24  and  C_25
REMARK   10  A    between atoms: C_24  and  C_26
REMARK   11  A    between atoms: C_26  and  C_27
REMARK   12  A    between atoms: C_26  and  C_28
REMARK                            x       y       z     vdW  Elec       q    Type
REMARK                         _______ _______ _______ _____ _____    ______ ____
ROOT
ATOM      1  C   LIG A   1      -4.597   0.292  -0.916  0.00  0.00    +0.016 C 
ATOM      2  C   LIG A   1      -4.526   0.996   0.468  0.00  0.00    -0.007 C 
ATOM      3  C   LIG A   1      -4.854   2.474   0.233  0.00  0.00    -0.060 C 
ATOM      4  C   LIG A   1      -3.760   3.450  -0.144  0.00  0.00    +0.032 C 
ATOM      5  C   LIG A   1      -2.421   3.189   0.553  0.00  0.00    +0.008 C 
ATOM      6  C   LIG A   1      -2.068   1.720   0.350  0.00  0.00    -0.003 C 
ATOM      7  C   LIG A   1      -3.097   0.851   1.145  0.00  0.00    +0.005 C 
ATOM      8  C   LIG A   1      -2.633  -0.622   1.500  0.00  0.00    +0.036 C 
ATOM      9  C   LIG A   1      -1.094  -0.946   1.442  0.00  0.00    +0.121 C 
ATOM     10  C   LIG A   1      -0.435  -0.181   0.263  0.00  0.00    +0.000 C 
ATOM     11  C   LIG A   1      -1.173  -0.636  -1.011  0.00  0.00    +0.014 C 
ATOM     12  C   LIG A   1      -0.672   1.295   0.733  0.00  0.00    +0.001 C 
ATOM     13  C   LIG A   1       0.552   2.066   0.301  0.00  0.00    +0.005 C 
ATOM     14  C   LIG A   1       1.643   1.051   0.650  0.00  0.00    +0.005 C 
ATOM     15  C   LIG A   1       1.141  -0.284   0.039  0.00  0.00    +0.001 C 
ATOM     16  C   LIG A   1      -6.136   2.934   0.290  0.00  0.00    +0.046 C 
ATOM     17  C   LIG A   1      -7.276   2.026   0.529  0.00  0.00    +0.156 C 
ATOM     18  C   LIG A   1      -7.026   0.597   0.889  0.00  0.00    +0.080 C 
ATOM     19  C   LIG A   1      -5.598   0.379   1.396  0.00  0.00    +0.019 C 
ATOM     20  O   LIG A   1      -8.429   2.461   0.367  0.00  0.00    -0.293 OA
ENDROOT
BRANCH   9  21
ATOM     21  O   LIG A   1      -0.904  -2.350   1.308  0.00  0.00    -0.391 OA
ATOM     22  H   LIG A   1      -1.284  -2.771   2.098  0.00  0.00    +0.210 HD
ENDBRANCH   9  21
BRANCH  15  23
ATOM     23  C   LIG A   1       1.693  -0.397  -1.463  0.00  0.00    -0.010 C 
ATOM     24  C   LIG A   1       1.264  -1.649  -2.253  0.00  0.00    +0.008 C 
BRANCH  23  25
ATOM     25  C   LIG A   1       3.243  -0.319  -1.598  0.00  0.00    +0.004 C 
BRANCH  25  26
ATOM     26  C   LIG A   1       3.986  -1.441  -0.863  0.00  0.00    +0.004 C 
BRANCH  26  27
ATOM     27  C   LIG A   1       5.528  -1.381  -0.987  0.00  0.00    -0.011 C 
ATOM     28  C   LIG A   1       6.094  -0.079  -0.408  0.00  0.00    +0.007 C 
BRANCH  27  29
ATOM     29  C   LIG A   1       6.180  -2.652  -0.354  0.00  0.00    -0.014 C 
ATOM     30  C   LIG A   1       7.707  -2.667  -0.492  0.00  0.00    +0.007 C 
ATOM     31  C   LIG A   1       5.799  -2.872   1.115  0.00  0.00    +0.007 C 
ENDBRANCH  27  29
ENDBRANCH  26  27
ENDBRANCH  25  26
ENDBRANCH  23  25
ENDBRANCH  15  23
TORSDOF 6
