REMARK  Name = NuBBE_1442
REMARK  6 active torsions:
REMARK  status: ('A' for Active; 'I' for Inactive)
REMARK    1  A    between atoms: C_1  and  C_2
REMARK    2  A    between atoms: C_2  and  C_3
REMARK    3  A    between atoms: C_8  and  C_31
REMARK    4  A    between atoms: C_10  and  C_11
REMARK    5  A    between atoms: C_17  and  C_19
REMARK    6  A    between atoms: C_25  and  C_26
REMARK                            x       y       z     vdW  Elec       q    Type
REMARK                         _______ _______ _______ _____ _____    ______ ____
ROOT
ATOM      1  C   LIG A   1      -5.111   0.369  -1.771  0.00  0.00    +0.019 C 
ATOM      2  C   LIG A   1      -4.298  -0.455  -0.739  0.00  0.00    +0.027 C 
ATOM      3  C   LIG A   1      -5.217  -0.675   0.479  0.00  0.00    +0.019 C 
ATOM      4  C   LIG A   1      -4.067  -1.869  -1.363  0.00  0.00    +0.142 C 
ATOM      5  C   LIG A   1      -2.804  -2.645  -1.031  0.00  0.00    +0.107 C 
ATOM      6  C   LIG A   1      -1.660  -1.675  -1.139  0.00  0.00    +0.132 C 
ATOM      7  C   LIG A   1      -1.770  -0.550  -0.087  0.00  0.00    +0.008 C 
ATOM      8  C   LIG A   1      -0.390   0.046  -0.400  0.00  0.00    +0.073 C 
ATOM      9  C   LIG A   1       0.170   1.304   0.281  0.00  0.00    +0.148 C 
ATOM     10  C   LIG A   1       0.487   2.362  -0.821  0.00  0.00    +0.059 C 
ATOM     11  O   LIG A   1      -0.822   1.826   1.200  0.00  0.00    -0.455 OA
ATOM     12  C   LIG A   1       1.482   1.001   1.016  0.00  0.00    +0.141 C 
ATOM     13  C   LIG A   1       2.316   2.164   1.510  0.00  0.00    +0.156 C 
ATOM     14  C   LIG A   1       3.760   1.850   1.252  0.00  0.00    +0.043 C 
ATOM     15  C   LIG A   1       3.713   0.749   0.159  0.00  0.00    +0.034 C 
ATOM     16  O   LIG A   1       1.583   1.334   2.407  0.00  0.00    -0.360 OA
ATOM     17  C   LIG A   1       2.464  -0.108   0.546  0.00  0.00    +0.013 C 
ATOM     18  C   LIG A   1       2.786  -1.073   1.726  0.00  0.00    +0.015 C 
ATOM     19  C   LIG A   1       1.886  -0.939  -0.634  0.00  0.00    +0.042 C 
ATOM     20  C   LIG A   1       0.439  -1.227  -0.282  0.00  0.00    +0.127 C 
ATOM     21  O   LIG A   1      -0.309  -2.199  -1.045  0.00  0.00    -0.372 OA
ATOM     22  C   LIG A   1      -1.858  -1.093   1.371  0.00  0.00    +0.014 C 
ATOM     23  C   LIG A   1      -2.964   0.356  -0.439  0.00  0.00    +0.021 C 
ATOM     24  C   LIG A   1      -3.120   1.493   0.596  0.00  0.00    +0.125 C 
ATOM     25  C   LIG A   1      -1.920   2.413   0.653  0.00  0.00    +0.308 C 
ATOM     26  O   LIG A   1      -1.948   3.580   0.285  0.00  0.00    -0.251 OA
ATOM     27  O   LIG A   1      -4.947  -2.416  -2.035  0.00  0.00    -0.297 OA
ENDROOT
BRANCH  15  28
ATOM     28  C   LIG A   1       4.994   0.007  -0.052  0.00  0.00    -0.006 A 
ATOM     29  C   LIG A   1       5.930  -0.390   0.884  0.00  0.00    +0.198 A 
ATOM     30  O   LIG A   1       6.967  -1.035   0.294  0.00  0.00    -0.471 OA
ATOM     31  C   LIG A   1       6.713  -1.056  -1.037  0.00  0.00    +0.195 A 
ATOM     32  C   LIG A   1       5.518  -0.431  -1.304  0.00  0.00    +0.045 A 
ENDBRANCH  15  28
TORSDOF 1
