@<TRIPOS>MOLECULE
NuBBE_1142
 73 77 0 0 0
SMALL
GASTEIGER

@<TRIPOS>ATOM
      1 C          -1.3074   -0.7612   -3.8378 C.3     1  LIG1       -0.0561
      2 C          -0.3229   -1.4482   -2.8626 C.3     1  LIG1        0.0071
      3 C          -0.7944   -1.4451   -1.2275 C.3     1  LIG1       -0.0101
      4 C           0.4501   -1.7101   -0.1560 C.3     1  LIG1        0.0338
      5 C           1.1239   -0.7585    0.9697 C.3     1  LIG1       -0.0221
      6 H           2.0377   -1.3498    1.1905 H       1  LIG1        0.0316
      7 C           0.5476   -0.7402    2.3817 C.3     1  LIG1       -0.0479
      8 C          -0.4562    0.3550    2.6080 C.3     1  LIG1       -0.0399
      9 C           0.0133    1.7832    2.2305 C.3     1  LIG1        0.0310
     10 C           1.1827    1.8607    1.2156 C.2     1  LIG1       -0.0497
     11 C           1.8315    3.0425    1.1334 C.2     1  LIG1        0.0227
     12 C           1.4778    4.2097    1.9691 C.2     1  LIG1        0.3325
     13 O           0.8272    3.9470    3.1274 O.3     1  LIG1       -0.4525
     14 C           0.5182    2.5797    3.4956 C.3     1  LIG1        0.1402
     15 H           1.4602    2.1319    3.8502 H       1  LIG1        0.0795
     16 C          -0.4174    2.5996    4.6838 C.ar    1  LIG1        0.0313
     17 C          -1.6606    3.1971    4.7762 C.ar    1  LIG1        0.0984
     18 O          -2.2143    2.9977    5.9976 O.2     1  LIG1       -0.4706
     19 C          -1.3134    2.2990    6.7298 C.ar    1  LIG1        0.0921
     20 C          -0.1907    2.0359    5.9795 C.ar    1  LIG1       -0.0172
     21 O           1.7951    5.3409    1.6321 O.2     1  LIG1       -0.2456
     22 C          -1.2116    2.4970    1.5965 C.3     1  LIG1       -0.0521
     23 C           1.8200    0.6218    0.5708 C.3     1  LIG1       -0.0143
     24 C           2.3507    0.7104   -0.9551 C.3     1  LIG1       -0.0332
     25 C           1.4939   -0.2339   -1.7448 C.3     1  LIG1        0.0561
     26 H           0.5745    0.3005   -1.4978 H       1  LIG1        0.0414
     27 C           1.0985   -0.6717   -3.1231 C.3     1  LIG1        0.1179
     28 H           0.9298    0.2140   -3.7478 H       1  LIG1        0.0746
     29 O           1.9915   -1.5241   -3.8532 O.3     1  LIG1       -0.4603
     30 C           3.2347   -1.0454   -4.1098 C.2     1  LIG1        0.3042
     31 C           3.8819   -1.8196   -5.2158 C.3     1  LIG1        0.0332
     32 O           3.7154   -0.0273   -3.6128 O.2     1  LIG1       -0.2512
     33 C           1.6104   -1.5577   -1.0652 C.2     1  LIG1        0.1463
     34 O           2.5722   -2.3102   -1.1360 O.2     1  LIG1       -0.2964
     35 H           2.7760    0.5794    1.1257 H       1  LIG1        0.0349
     36 C           0.3495   -3.1534    0.3637 C.3     1  LIG1       -0.0523
     37 C          -1.7613   -0.3025   -0.8761 C.3     1  LIG1        0.0492
     38 C          -3.1580   -0.4619   -1.4418 C.2     1  LIG1        0.3071
     39 O          -3.7205   -1.5985   -0.9634 O.3     1  LIG1       -0.4679
     40 C          -5.1441   -1.5877   -0.8551 C.3     1  LIG1        0.0817
     41 O          -3.7296    0.3970   -2.1224 O.2     1  LIG1       -0.2509
     42 C          -0.3306   -2.9416   -3.2834 C.3     1  LIG1       -0.0561
     43 H          -0.8841   -0.7593   -4.8529 H       1  LIG1        0.0236
     44 H          -1.4759    0.2868   -3.5754 H       1  LIG1        0.0236
     45 H          -2.2670   -1.2813   -3.9056 H       1  LIG1        0.0236
     46 H          -1.4119   -2.3485   -1.1312 H       1  LIG1        0.0322
     47 H           1.3739   -0.5917    3.0935 H       1  LIG1        0.0269
     48 H           0.1116   -1.7094    2.6433 H       1  LIG1        0.0269
     49 H          -0.7616    0.3037    3.6586 H       1  LIG1        0.0275
     50 H          -1.3660    0.0920    2.0667 H       1  LIG1        0.0275
     51 H           2.6867    3.2081    0.4874 H       1  LIG1        0.0689
     52 H          -2.2656    3.7705    4.0877 H       1  LIG1        0.1033
     53 H          -1.6098    2.0785    7.7466 H       1  LIG1        0.1029
     54 H           0.6839    1.5043    6.3290 H       1  LIG1        0.0653
     55 H          -1.3951    2.1330    0.5826 H       1  LIG1        0.0239
     56 H          -1.0918    3.5823    1.5264 H       1  LIG1        0.0239
     57 H          -2.1242    2.3107    2.1727 H       1  LIG1        0.0239
     58 H           3.4072    0.4245   -0.9913 H       1  LIG1        0.0279
     59 H           2.2647    1.7317   -1.3439 H       1  LIG1        0.0279
     60 H           3.5637   -1.3856   -6.1697 H       1  LIG1        0.0342
     61 H           3.5966   -2.8729   -5.1779 H       1  LIG1        0.0342
     62 H           4.9695   -1.7551   -5.1318 H       1  LIG1        0.0342
     63 H          -0.5336   -3.2750    0.9981 H       1  LIG1        0.0239
     64 H           1.2303   -3.4402    0.9496 H       1  LIG1        0.0239
     65 H           0.2794   -3.8736   -0.4573 H       1  LIG1        0.0239
     66 H          -1.3856    0.6780   -1.1786 H       1  LIG1        0.0381
     67 H          -1.9186   -0.2702    0.2008 H       1  LIG1        0.0381
     68 H          -5.6398   -0.9104   -1.5562 H       1  LIG1        0.0661
     69 H          -5.3796   -1.2912    0.1709 H       1  LIG1        0.0661
     70 H          -5.5160   -2.6027   -1.0148 H       1  LIG1        0.0661
     71 H          -1.3244   -3.3739   -3.0904 H       1  LIG1        0.0236
     72 H           0.3919   -3.5392   -2.7242 H       1  LIG1        0.0236
     73 H          -0.1405   -3.0752   -4.3525 H       1  LIG1        0.0236
@<TRIPOS>BOND
     1     1     2    1
     2     2     3    1
     3     3     4    1
     4     4     5    1
     5     5     6    1
     6     5     7    1
     7     7     8    1
     8     8     9    1
     9     9    10    1
    10    10    11    2
    11    11    12    1
    12    12    13    1
    13    13    14    1
    14    14    15    1
    15    14    16    1
    16    16    17   ar
    17    17    18   ar
    18    18    19   ar
    19    19    20   ar
    20    16    20   ar
    21    12    21    2
    22    14     9    1
    23     9    22    1
    24     5    23    1
    25    23    24    1
    26    24    25    1
    27    25    26    1
    28    25    27    1
    29    29    30    1
    30    30    31    1
    31    30    32    2
    32    25    33    1
    33    33    34    2
    34    10    23    1
    35    23    35    1
    36    33     4    1
    37     4    36    1
    38     3    37    1
    39    37    38    1
    40    38    39    1
    41    39    40    1
    42    38    41    2
    43    27     2    1
    44     2    42    1
    45    27    29    1
    46    27    28    1
    47     1    43    1
    48     1    44    1
    49     1    45    1
    50     3    46    1
    51     7    47    1
    52     7    48    1
    53     8    49    1
    54     8    50    1
    55    11    51    1
    56    17    52    1
    57    19    53    1
    58    20    54    1
    59    22    55    1
    60    22    56    1
    61    22    57    1
    62    24    58    1
    63    24    59    1
    64    31    60    1
    65    31    61    1
    66    31    62    1
    67    36    63    1
    68    36    64    1
    69    36    65    1
    70    37    66    1
    71    37    67    1
    72    40    68    1
    73    40    69    1
    74    40    70    1
    75    42    71    1
    76    42    72    1
    77    42    73    1
