REMARK  Name = NuBBE_1841
REMARK  12 active torsions:
REMARK  status: ('A' for Active; 'I' for Inactive)
REMARK    1  A    between atoms: O_1  and  C_2
REMARK    2  A    between atoms: O_1  and  C_3
REMARK    3  A    between atoms: C_8  and  C_10
REMARK    4  A    between atoms: C_10  and  C_11
REMARK    5  A    between atoms: C_14  and  C_19
REMARK    6  A    between atoms: C_16  and  C_18
REMARK    7  A    between atoms: C_21  and  O_22
REMARK    8  A    between atoms: O_22  and  C_23
REMARK    9  A    between atoms: C_24  and  O_29
REMARK   10  A    between atoms: C_25  and  O_27
REMARK   11  A    between atoms: O_27  and  C_28
REMARK   12  A    between atoms: O_29  and  C_30
REMARK                            x       y       z     vdW  Elec       q    Type
REMARK                         _______ _______ _______ _____ _____    ______ ____
ROOT
ATOM      1  C   LIG A   1      -1.677   0.998  -0.947  0.00  0.00    +0.151 C 
ATOM      2  C   LIG A   1      -0.379   1.764  -1.052  0.00  0.00    +0.138 C 
ATOM      3  C   LIG A   1      -0.233   3.075  -0.854  0.00  0.00    +0.095 C 
ATOM      4  C   LIG A   1      -1.389   3.890  -0.429  0.00  0.00    +0.185 C 
ATOM      5  O   LIG A   1      -1.274   5.098  -0.309  0.00  0.00    -0.287 OA
ATOM      6  C   LIG A   1      -2.645   3.159  -0.065  0.00  0.00    +0.002 C 
ATOM      7  C   LIG A   1      -2.735   1.829  -0.267  0.00  0.00    +0.023 C 
ATOM      8  O   LIG A   1       0.734   0.950  -1.173  0.00  0.00    -0.485 OA
ATOM      9  C   LIG A   1       0.257  -0.387  -0.915  0.00  0.00    +0.210 C 
ATOM     10  C   LIG A   1      -1.151  -0.276  -0.270  0.00  0.00    +0.074 C 
ATOM     11  C   LIG A   1      -1.198  -0.215   1.260  0.00  0.00    +0.015 C 
ENDROOT
BRANCH   9  12
ATOM     12  C   LIG A   1       1.293  -1.167  -0.136  0.00  0.00    +0.000 A 
ATOM     13  C   LIG A   1       2.157  -0.523   0.753  0.00  0.00    +0.057 A 
ATOM     14  C   LIG A   1       3.081  -1.241   1.520  0.00  0.00    +0.166 A 
ATOM     15  C   LIG A   1       3.151  -2.647   1.412  0.00  0.00    +0.203 A 
ATOM     16  C   LIG A   1       2.320  -3.303   0.481  0.00  0.00    +0.166 A 
ATOM     17  C   LIG A   1       1.390  -2.557  -0.267  0.00  0.00    +0.057 A 
BRANCH  14  18
ATOM     18  O   LIG A   1       3.931  -0.617   2.407  0.00  0.00    -0.491 OA
ATOM     19  C   LIG A   1       4.245   0.740   2.096  0.00  0.00    +0.277 C 
ENDBRANCH  14  18
BRANCH  16  20
ATOM     20  O   LIG A   1       2.375  -4.671   0.379  0.00  0.00    -0.491 OA
ATOM     21  C   LIG A   1       2.102  -5.209  -0.913  0.00  0.00    +0.277 C 
ENDBRANCH  16  20
BRANCH  15  22
ATOM     22  O   LIG A   1       4.026  -3.255   2.283  0.00  0.00    -0.488 OA
ATOM     23  C   LIG A   1       4.634  -4.473   1.878  0.00  0.00    +0.277 C 
ENDBRANCH  15  22
ENDBRANCH   9  12
BRANCH   1  24
ATOM     24  O   LIG A   1      -2.091   0.706  -2.295  0.00  0.00    -0.364 OA
ATOM     25  C   LIG A   1      -3.306  -0.021  -2.439  0.00  0.00    +0.195 C 
ENDBRANCH   1  24
BRANCH   6  26
ATOM     26  C   LIG A   1      -3.755   3.979   0.538  0.00  0.00    +0.065 C 
BRANCH  26  27
ATOM     27  C   LIG A   1      -4.717   4.566  -0.466  0.00  0.00    -0.030 C 
ATOM     28  C   LIG A   1      -4.441   4.916  -1.731  0.00  0.00    +0.004 C 
ENDBRANCH  26  27
ENDBRANCH   6  26
TORSDOF 7
