@<TRIPOS>MOLECULE
NuBBE_1728
 85 89 0 0 0
SMALL
GASTEIGER

@<TRIPOS>ATOM
      1 C          -1.3839   -0.9719    0.0237 C.3     1  LIG1       -0.0588
      2 C          -0.1080   -1.1762   -0.8484 C.3     1  LIG1       -0.0231
      3 C           1.1339   -1.6321   -0.0024 C.3     1  LIG1       -0.0294
      4 H           1.9257   -1.8006   -0.7474 H       1  LIG1        0.0312
      5 C           1.0343   -3.0582    0.6906 C.3     1  LIG1       -0.0247
      6 C           0.0263   -3.0293    1.8622 C.3     1  LIG1       -0.0590
      7 C           0.6905   -4.1104   -0.4305 C.3     1  LIG1       -0.0250
      8 H           1.5157   -4.0250   -1.1586 H       1  LIG1        0.0315
      9 C          -0.5697   -3.7077   -1.2280 C.3     1  LIG1       -0.0484
     10 C          -0.4395   -2.3114   -1.8578 C.3     1  LIG1       -0.0466
     11 C           0.7309   -5.6208    0.0062 C.3     1  LIG1        0.0098
     12 C          -0.4031   -6.0542    0.9510 C.3     1  LIG1       -0.0543
     13 C           0.6303   -6.5248   -1.2514 C.3     1  LIG1       -0.0543
     14 C           2.0764   -5.8869    0.7229 C.2     1  LIG1        0.0633
     15 N           2.6986   -7.0163    0.4870 N.2     1  LIG1       -0.0960
     16 O           3.8518   -7.1611    1.2557 O.2     1  LIG1       -0.4092
     17 C           2.5426   -4.8787    1.7573 C.3     1  LIG1       -0.0101
     18 C           2.4365   -3.4452    1.2475 C.3     1  LIG1       -0.0418
     19 C           1.7213   -0.5097    0.8915 C.3     1  LIG1       -0.0489
     20 C           1.0597    0.8643    0.8070 C.3     1  LIG1       -0.0491
     21 C           0.6558    1.3277   -0.5940 C.3     1  LIG1       -0.0297
     22 H           1.5273    1.8591   -0.9961 H       1  LIG1        0.0310
     23 C           0.2913    0.1822   -1.6025 C.3     1  LIG1       -0.0232
     24 C           1.5229    0.0201   -2.5467 C.3     1  LIG1       -0.0588
     25 C          -0.8519    0.7726   -2.4801 C.3     1  LIG1       -0.0465
     26 C          -0.9595    2.2477   -2.1061 C.3     1  LIG1       -0.0468
     27 C          -0.5465    2.3062   -0.6301 C.3     1  LIG1       -0.0088
     28 H          -1.3792    1.8743   -0.0568 H       1  LIG1        0.0331
     29 C          -0.3241    3.7514   -0.0985 C.3     1  LIG1        0.0704
     30 C           0.7710    4.5185   -0.8587 C.3     1  LIG1       -0.0355
     31 O          -1.5525    4.5029   -0.2965 O.3     1  LIG1       -0.3673
     32 C          -1.9023    5.2084    0.9215 C.3     1  LIG1        0.0876
     33 H          -2.7279    4.6503    1.3820 H       1  LIG1        0.0625
     34 C          -0.6770    5.1251    1.8188 C.3     1  LIG1       -0.0213
     35 C          -0.0815    3.7988    1.4128 C.3     1  LIG1       -0.0213
     36 C          -2.3692    6.6454    0.5817 C.3     1  LIG1        0.0865
     37 C          -3.6157    6.6235   -0.3093 C.3     1  LIG1       -0.0339
     38 C          -2.6442    7.4728    1.8382 C.3     1  LIG1       -0.0339
     39 O          -1.3350    7.3124   -0.1565 O.3     1  LIG1       -0.3866
     40 H          -1.8621   -1.9116    0.3003 H       1  LIG1        0.0235
     41 H          -2.1687   -0.4188   -0.4954 H       1  LIG1        0.0235
     42 H          -1.1959   -0.4461    0.9575 H       1  LIG1        0.0235
     43 H          -0.0447   -2.0390    2.3209 H       1  LIG1        0.0235
     44 H           0.3049   -3.6976    2.6799 H       1  LIG1        0.0235
     45 H          -0.9800   -3.3219    1.5582 H       1  LIG1        0.0235
     46 H          -1.4671   -3.7746   -0.6082 H       1  LIG1        0.0269
     47 H          -0.7329   -4.4024   -2.0581 H       1  LIG1        0.0269
     48 H          -1.3661   -2.0814   -2.3979 H       1  LIG1        0.0271
     49 H           0.3422   -2.3880   -2.6198 H       1  LIG1        0.0271
     50 H          -0.4014   -7.1443    1.0806 H       1  LIG1        0.0239
     51 H          -1.3867   -5.7771    0.5607 H       1  LIG1        0.0239
     52 H          -0.3016   -5.6446    1.9563 H       1  LIG1        0.0239
     53 H          -0.3503   -6.4548   -1.7298 H       1  LIG1        0.0239
     54 H           0.7687   -7.5851   -1.0030 H       1  LIG1        0.0239
     55 H           1.3962   -6.2627   -1.9902 H       1  LIG1        0.0239
     56 H           4.1837   -8.0327    0.9684 H       1  LIG1        0.3278
     57 H           3.5858   -5.0497    2.0384 H       1  LIG1        0.0326
     58 H           1.9529   -5.0323    2.6662 H       1  LIG1        0.0326
     59 H           3.1887   -3.3103    0.4584 H       1  LIG1        0.0274
     60 H           2.7267   -2.7759    2.0655 H       1  LIG1        0.0274
     61 H           2.7797   -0.3890    0.6204 H       1  LIG1        0.0268
     62 H           1.7337   -0.8009    1.9467 H       1  LIG1        0.0268
     63 H           1.7597    1.5952    1.2314 H       1  LIG1        0.0268
     64 H           0.2032    0.8841    1.4862 H       1  LIG1        0.0268
     65 H           2.4412   -0.2194   -2.0030 H       1  LIG1        0.0235
     66 H           1.7249    0.9566   -3.0832 H       1  LIG1        0.0235
     67 H           1.3662   -0.7408   -3.3149 H       1  LIG1        0.0235
     68 H          -1.8149    0.2848   -2.3189 H       1  LIG1        0.0271
     69 H          -0.6549    0.6684   -3.5540 H       1  LIG1        0.0271
     70 H          -1.9736    2.6266   -2.2687 H       1  LIG1        0.0269
     71 H          -0.2789    2.8253   -2.7400 H       1  LIG1        0.0269
     72 H           0.4627    4.7321   -1.8879 H       1  LIG1        0.0257
     73 H           1.7229    3.9826   -0.8752 H       1  LIG1        0.0257
     74 H           0.9622    5.4982   -0.4076 H       1  LIG1        0.0257
     75 H          -0.9321    5.1673    2.8820 H       1  LIG1        0.0292
     76 H           0.0333    5.9338    1.6164 H       1  LIG1        0.0292
     77 H          -0.6389    3.0045    1.9238 H       1  LIG1        0.0294
     78 H           0.9718    3.7121    1.6924 H       1  LIG1        0.0294
     79 H          -4.4577    6.1339    0.1904 H       1  LIG1        0.0258
     80 H          -3.4215    6.1052   -1.2547 H       1  LIG1        0.0258
     81 H          -3.9178    7.6427   -0.5778 H       1  LIG1        0.0258
     82 H          -3.4141    7.0108    2.4642 H       1  LIG1        0.0258
     83 H          -2.9753    8.4838    1.5726 H       1  LIG1        0.0258
     84 H          -1.7370    7.6036    2.4380 H       1  LIG1        0.0258
     85 H          -1.1093    6.7063   -0.8886 H       1  LIG1        0.2102
@<TRIPOS>BOND
     1     1     2    1
     2     2     3    1
     3     3     4    1
     4     3     5    1
     5     5     6    1
     6     5     7    1
     7     7     8    1
     8     7     9    1
     9     9    10    1
    10     2    10    1
    11     7    11    1
    12    11    12    1
    13    11    13    1
    14    11    14    1
    15    14    15    2
    16    15    16    1
    17    14    17    1
    18    17    18    1
    19     5    18    1
    20     3    19    1
    21    19    20    1
    22    20    21    1
    23    21    22    1
    24    21    23    1
    25     2    23    1
    26    23    24    1
    27    23    25    1
    28    25    26    1
    29    26    27    1
    30    27    28    1
    31    21    27    1
    32    27    29    1
    33    29    30    1
    34    29    31    1
    35    31    32    1
    36    32    33    1
    37    32    34    1
    38    34    35    1
    39    29    35    1
    40    32    36    1
    41    36    37    1
    42    36    38    1
    43    36    39    1
    44     1    40    1
    45     1    41    1
    46     1    42    1
    47     6    43    1
    48     6    44    1
    49     6    45    1
    50     9    46    1
    51     9    47    1
    52    10    48    1
    53    10    49    1
    54    12    50    1
    55    12    51    1
    56    12    52    1
    57    13    53    1
    58    13    54    1
    59    13    55    1
    60    16    56    1
    61    17    57    1
    62    17    58    1
    63    18    59    1
    64    18    60    1
    65    19    61    1
    66    19    62    1
    67    20    63    1
    68    20    64    1
    69    24    65    1
    70    24    66    1
    71    24    67    1
    72    25    68    1
    73    25    69    1
    74    26    70    1
    75    26    71    1
    76    30    72    1
    77    30    73    1
    78    30    74    1
    79    34    75    1
    80    34    76    1
    81    35    77    1
    82    35    78    1
    83    37    79    1
    84    37    80    1
    85    37    81    1
    86    38    82    1
    87    38    83    1
    88    38    84    1
    89    39    85    1
