REMARK  Name = NuBBE_2199
REMARK  6 active torsions:
REMARK  status: ('A' for Active; 'I' for Inactive)
REMARK    1  A    between atoms: C_1  and  C_2
REMARK    2  A    between atoms: C_5  and  O_7
REMARK    3  A    between atoms: C_10  and  C_11
REMARK    4  A    between atoms: C_10  and  C_13
REMARK    5  A    between atoms: C_19  and  C_20
REMARK    6  A    between atoms: C_19  and  C_21
REMARK                            x       y       z     vdW  Elec       q    Type
REMARK                         _______ _______ _______ _____ _____    ______ ____
ROOT
ATOM      1  C   LIG A   1      -1.697  -0.665   1.659  0.00  0.00    +0.016 C 
ATOM      2  C   LIG A   1      -0.400  -0.088   1.040  0.00  0.00    -0.000 C 
ATOM      3  C   LIG A   1      -0.555   1.418   0.610  0.00  0.00    +0.008 C 
ATOM      4  C   LIG A   1      -1.489   1.550  -0.600  0.00  0.00    +0.040 C 
ATOM      5  C   LIG A   1      -0.927   0.789  -1.801  0.00  0.00    +0.141 C 
ATOM      6  C   LIG A   1      -0.303  -0.545  -1.473  0.00  0.00    -0.034 C 
ATOM      7  C   LIG A   1       0.101  -1.353  -2.691  0.00  0.00    +0.044 C 
ATOM      8  C   LIG A   1       1.215  -2.384  -2.411  0.00  0.00    -0.004 C 
ATOM      9  C   LIG A   1       1.343  -3.322  -3.628  0.00  0.00    +0.016 C 
ATOM     10  C   LIG A   1       0.779  -3.212  -1.198  0.00  0.00    +0.090 C 
ATOM     11  C   LIG A   1      -0.091  -0.958  -0.202  0.00  0.00    +0.003 C 
ATOM     12  C   LIG A   1       0.441  -2.356   0.005  0.00  0.00    +0.161 C 
ATOM     13  O   LIG A   1       0.528  -2.842   1.133  0.00  0.00    -0.292 OA
ATOM     14  C   LIG A   1      -0.875   2.424   1.776  0.00  0.00    -0.031 C 
ATOM     15  C   LIG A   1      -0.261   3.802   1.414  0.00  0.00    +0.011 C 
ATOM     16  C   LIG A   1      -2.382   2.666   2.003  0.00  0.00    +0.011 C 
ATOM     17  C   LIG A   1      -0.238   1.948   3.106  0.00  0.00    +0.007 C 
ATOM     18  C   LIG A   1       1.022   1.129   2.876  0.00  0.00    +0.001 C 
ATOM     19  C   LIG A   1       0.760  -0.158   2.085  0.00  0.00    +0.012 C 
ENDROOT
BRANCH   5  20
ATOM     20  O   LIG A   1      -1.981   0.591  -2.738  0.00  0.00    -0.388 OA
ATOM     21  H   LIG A   1      -2.643   0.020  -2.311  0.00  0.00    +0.210 HD
ENDBRANCH   5  20
BRANCH   8  22
ATOM     22  C   LIG A   1       2.560  -1.667  -2.264  0.00  0.00    -0.027 C 
ATOM     23  C   LIG A   1       3.438  -1.756  -1.256  0.00  0.00    +0.004 C 
ENDBRANCH   8  22
TORSDOF 2
