REMARK  Name = NuBBE_1582
REMARK  6 active torsions:
REMARK  status: ('A' for Active; 'I' for Inactive)
REMARK    1  A    between atoms: O_1  and  C_2
REMARK    2  A    between atoms: C_3  and  O_4
REMARK    3  A    between atoms: O_4  and  C_5
REMARK    4  A    between atoms: C_6  and  O_7
REMARK    5  A    between atoms: O_7  and  C_8
REMARK    6  A    between atoms: C_12  and  C_13
REMARK                            x       y       z     vdW  Elec       q    Type
REMARK                         _______ _______ _______ _____ _____    ______ ____
ROOT
ATOM      1  C   LIG A   1      -1.291  -2.708  -0.122  0.00  0.00    +0.177 A 
ATOM      2  C   LIG A   1      -0.243  -3.644  -0.026  0.00  0.00    +0.204 A 
ATOM      3  C   LIG A   1       1.059  -3.192   0.279  0.00  0.00    +0.169 A 
ATOM      4  C   LIG A   1       1.314  -1.813   0.359  0.00  0.00    +0.096 A 
ATOM      5  C   LIG A   1       0.276  -0.896   0.212  0.00  0.00    +0.146 A 
ATOM      6  O   LIG A   1       0.609   0.429   0.306  0.00  0.00    -0.454 OA
ATOM      7  C   LIG A   1      -0.400   1.381   0.172  0.00  0.00    +0.139 A 
ATOM      8  C   LIG A   1      -1.701   1.069  -0.017  0.00  0.00    +0.098 A 
ATOM      9  C   LIG A   1      -1.017  -1.342  -0.005  0.00  0.00    +0.109 A 
ATOM     10  C   LIG A   1      -2.093  -0.338  -0.115  0.00  0.00    +0.197 A 
ATOM     11  O   LIG A   1      -3.255  -0.662  -0.283  0.00  0.00    -0.287 OA
ENDROOT
BRANCH   7  12
ATOM     12  C   LIG A   1       0.101   2.775   0.273  0.00  0.00    +0.021 A 
ATOM     13  C   LIG A   1      -0.512   3.827  -0.428  0.00  0.00    +0.061 A 
ATOM     14  C   LIG A   1       0.025   5.094  -0.313  0.00  0.00    +0.167 A 
ATOM     15  O   LIG A   1      -0.453   6.212  -0.924  0.00  0.00    -0.453 OA
ATOM     16  C   LIG A   1       0.482   7.202  -0.448  0.00  0.00    +0.466 C 
ATOM     17  O   LIG A   1       1.497   6.661   0.423  0.00  0.00    -0.453 OA
ATOM     18  C   LIG A   1       1.136   5.351   0.452  0.00  0.00    +0.166 A 
ATOM     19  C   LIG A   1       1.777   4.353   1.147  0.00  0.00    +0.050 A 
ATOM     20  C   LIG A   1       1.252   3.058   1.052  0.00  0.00    +0.015 A 
ENDBRANCH   7  12
BRANCH   1  21
ATOM     21  O   LIG A   1      -2.573  -3.164  -0.289  0.00  0.00    -0.503 OA
ATOM     22  H   LIG A   1      -3.186  -2.394  -0.315  0.00  0.00    +0.292 HD
ENDBRANCH   1  21
BRANCH   2  23
ATOM     23  O   LIG A   1      -0.446  -4.993  -0.157  0.00  0.00    -0.488 OA
ATOM     24  C   LIG A   1      -1.390  -5.427  -1.129  0.00  0.00    +0.277 C 
ENDBRANCH   2  23
BRANCH   3  25
ATOM     25  O   LIG A   1       2.175  -3.959   0.527  0.00  0.00    -0.491 OA
ATOM     26  C   LIG A   1       2.003  -5.373   0.505  0.00  0.00    +0.277 C 
ENDBRANCH   3  25
TORSDOF 4
