REMARK  Name = NuBBE_1845
REMARK  9 active torsions:
REMARK  status: ('A' for Active; 'I' for Inactive)
REMARK    1  A    between atoms: O_1  and  C_2
REMARK    2  A    between atoms: C_3  and  C_4
REMARK    3  A    between atoms: C_4  and  C_5
REMARK    4  A    between atoms: C_5  and  C_6
REMARK    5  A    between atoms: C_6  and  C_7
REMARK    6  A    between atoms: C_15  and  O_16
REMARK    7  A    between atoms: O_16  and  C_17
REMARK    8  A    between atoms: C_20  and  O_21
REMARK    9  A    between atoms: C_22  and  C_23
REMARK                            x       y       z     vdW  Elec       q    Type
REMARK                         _______ _______ _______ _____ _____    ______ ____
ROOT
ATOM      1  C   LIG A   1       0.511   0.359   0.525  0.00  0.00    +0.010 C 
ENDROOT
BRANCH   1   2
ATOM      2  C   LIG A   1       2.041   0.437   0.535  0.00  0.00    +0.039 C 
BRANCH   2   4
ATOM      3  C   LIG A   1       2.977  -1.322  -1.053  0.00  0.00    +0.126 A 
ATOM      4  C   LIG A   1       2.684  -0.904   0.256  0.00  0.00    -0.005 A 
ATOM      5  C   LIG A   1       2.970  -1.769   1.320  0.00  0.00    +0.011 A 
ATOM      6  C   LIG A   1       3.543  -3.018   1.083  0.00  0.00    +0.046 A 
ATOM      7  C   LIG A   1       3.837  -3.409  -0.223  0.00  0.00    +0.123 A 
ATOM      8  C   LIG A   1       3.572  -2.570  -1.314  0.00  0.00    +0.033 A 
ATOM      9  C   LIG A   1       3.902  -3.005  -2.715  0.00  0.00    +0.051 C 
BRANCH   3  10
ATOM     10  O   LIG A   1       2.656  -0.456  -2.065  0.00  0.00    -0.506 OA
ATOM     11  H   LIG A   1       2.768  -0.900  -2.919  0.00  0.00    +0.292 HD
ENDBRANCH   3  10
BRANCH   7  12
ATOM     12  O   LIG A   1       4.393  -4.639  -0.449  0.00  0.00    -0.506 OA
ATOM     13  H   LIG A   1       4.498  -5.096   0.401  0.00  0.00    +0.292 HD
ENDBRANCH   7  12
ENDBRANCH   2   4
ENDBRANCH   1   2
BRANCH   1  14
ATOM     14  C   LIG A   1      -0.115   1.731   0.798  0.00  0.00    +0.039 C 
BRANCH  14  15
ATOM     15  C   LIG A   1      -1.629   1.686   0.817  0.00  0.00    -0.002 A 
ATOM     16  C   LIG A   1      -2.289   1.423   2.034  0.00  0.00    +0.056 A 
ATOM     17  C   LIG A   1      -3.663   1.350   2.035  0.00  0.00    +0.167 A 
ATOM     18  O   LIG A   1      -4.452   1.085   3.111  0.00  0.00    -0.453 OA
ATOM     19  C   LIG A   1      -5.761   1.114   2.504  0.00  0.00    +0.466 C 
ATOM     20  O   LIG A   1      -5.731   1.397   1.091  0.00  0.00    -0.453 OA
ATOM     21  C   LIG A   1      -4.394   1.531   0.885  0.00  0.00    +0.170 A 
ATOM     22  C   LIG A   1      -3.792   1.801  -0.323  0.00  0.00    +0.095 A 
ATOM     23  C   LIG A   1      -2.395   1.888  -0.365  0.00  0.00    +0.127 A 
BRANCH  23  24
ATOM     24  O   LIG A   1      -1.692   2.096  -1.525  0.00  0.00    -0.495 OA
ATOM     25  C   LIG A   1      -2.328   2.914  -2.503  0.00  0.00    +0.277 C 
ENDBRANCH  23  24
ENDBRANCH  14  15
ENDBRANCH   1  14
TORSDOF 7
