@<TRIPOS>MOLECULE
NuBBE_1551
 80 86 0 0 0
SMALL
GASTEIGER

@<TRIPOS>ATOM
      1 O           1.5582    2.8196   -2.2568 O.2     1  LIG1       -0.2511
      2 C           1.7039    3.1397   -1.1297 C.2     1  LIG1        0.3045
      3 C           1.7760    4.5926   -0.6945 C.3     1  LIG1        0.0333
      4 O           1.8461    2.3102   -0.0414 O.3     1  LIG1       -0.4571
      5 C           1.7866    0.8898   -0.2292 C.3     1  LIG1        0.1306
      6 C           0.4266    0.2622   -0.3076 C.3     1  LIG1        0.0877
      7 H           0.6969   -0.7515   -0.1316 H       1  LIG1        0.0422
      8 C          -0.3273    0.0651    0.9282 C.3     1  LIG1        0.1110
      9 O          -0.7470   -1.3465    1.0442 O.3     1  LIG1       -0.3848
     10 C           0.7115    0.1905    1.9862 C.3     1  LIG1        0.0006
     11 C           2.1459    0.0877    1.0813 C.3     1  LIG1        0.0202
     12 C           2.5876   -1.4225    0.2478 C.3     1  LIG1        0.0129
     13 H           3.6880   -1.3681    0.2729 H       1  LIG1        0.0344
     14 C           2.2673   -2.7770    0.9304 C.3     1  LIG1        0.1555
     15 H           1.2263   -2.8855    1.2344 H       1  LIG1        0.0713
     16 O           3.0533   -2.7555    2.1568 O.3     1  LIG1       -0.3803
     17 C           2.7311   -4.1009    0.2580 C.2     1  LIG1        0.3361
     18 O           1.9589   -4.5296   -0.7739 O.3     1  LIG1       -0.4661
     19 C           2.4785   -5.7207   -1.3973 C.3     1  LIG1        0.0817
     20 O           3.7128   -4.7202    0.6716 O.2     1  LIG1       -0.2479
     21 C           2.2450   -1.2117   -1.3627 C.3     1  LIG1        0.0089
     22 C           0.6008   -1.4211   -1.8929 C.3     1  LIG1        0.1153
     23 H           0.1977   -2.2919   -1.3602 H       1  LIG1        0.0653
     24 O           0.5985   -1.7743   -3.2697 O.3     1  LIG1       -0.3859
     25 C          -0.3687   -0.0711   -1.4956 C.3     1  LIG1        0.2064
     26 O          -1.6972   -0.0916   -0.7369 O.3     1  LIG1       -0.3352
     27 C          -1.5606    0.8137    0.5604 C.3     1  LIG1        0.1212
     28 C          -2.4482    0.6958    1.8591 C.3     1  LIG1        0.0416
     29 C          -3.0285   -0.6894    2.2672 C.3     1  LIG1       -0.0531
     30 C          -3.6994    1.6301    1.7198 C.3     1  LIG1        0.1390
     31 H          -4.2597    1.5717    2.6669 H       1  LIG1        0.0793
     32 C          -4.6923    1.2899    0.6162 C.ar    1  LIG1        0.0310
     33 C          -4.4641    0.6885   -0.6051 C.ar    1  LIG1        0.0984
     34 O          -5.5828    0.5322   -1.3363 O.2     1  LIG1       -0.4706
     35 C          -6.5844    1.0578   -0.6068 C.ar    1  LIG1        0.0921
     36 C          -6.1041    1.5398    0.5916 C.ar    1  LIG1       -0.0172
     37 O          -3.3031    3.0027    1.6453 O.3     1  LIG1       -0.4557
     38 C          -2.2127    3.3499    0.9447 C.2     1  LIG1        0.3106
     39 C          -1.5470    2.2964    0.0864 C.3     1  LIG1        0.0775
     40 O          -1.8070    4.5090    0.9628 O.2     1  LIG1       -0.2507
     41 C          -1.4586    1.1671    3.1014 C.3     1  LIG1       -0.0408
     42 C           0.1275    1.3476    2.8264 C.3     1  LIG1       -0.0461
     43 O          -0.3882    0.8946   -2.5229 O.3     1  LIG1       -0.3492
     44 C          -1.1939    0.5064   -3.6365 C.3     1  LIG1        0.0398
     45 C           3.2012   -1.9749   -2.2831 C.3     1  LIG1       -0.0565
     46 C           2.6136    0.3038   -1.3911 C.3     1  LIG1       -0.0034
     47 C           3.3446    0.5779    1.8767 C.3     1  LIG1       -0.0552
     48 H           2.8163    4.8991   -0.5783 H       1  LIG1        0.0342
     49 H           1.2023    4.7784    0.2124 H       1  LIG1        0.0342
     50 H           1.3241    5.2088   -1.4946 H       1  LIG1        0.0342
     51 H          -1.4842   -1.4458    0.4005 H       1  LIG1        0.2103
     52 H           0.7383   -0.6859    2.6461 H       1  LIG1        0.0336
     53 H           3.8655   -3.2796    1.9624 H       1  LIG1        0.2105
     54 H           1.7664   -6.0828   -2.1450 H       1  LIG1        0.0661
     55 H           2.6388   -6.5241   -0.6673 H       1  LIG1        0.0661
     56 H           3.4214   -5.4883   -1.9060 H       1  LIG1        0.0661
     57 H           1.1435   -1.1212   -3.7437 H       1  LIG1        0.2100
     58 H          -3.8391   -0.5750    3.0011 H       1  LIG1        0.0237
     59 H          -2.2946   -1.3265    2.7718 H       1  LIG1        0.0237
     60 H          -3.4394   -1.2362    1.4154 H       1  LIG1        0.0237
     61 H          -3.6091    0.3144   -1.1206 H       1  LIG1        0.1033
     62 H          -7.5509    1.0114   -1.0853 H       1  LIG1        0.1029
     63 H          -6.7107    2.0182    1.3467 H       1  LIG1        0.0653
     64 H          -0.5278    2.6527   -0.0174 H       1  LIG1        0.0407
     65 H          -2.0179    2.3931   -0.8997 H       1  LIG1        0.0407
     66 H          -1.5412    0.4188    3.9042 H       1  LIG1        0.0273
     67 H          -1.8349    2.0927    3.5561 H       1  LIG1        0.0273
     68 H           0.6343    1.3858    3.7997 H       1  LIG1        0.0269
     69 H           0.2884    2.3220    2.3541 H       1  LIG1        0.0269
     70 H          -1.2684    1.3497   -4.3287 H       1  LIG1        0.0525
     71 H          -2.1991    0.2109   -3.3251 H       1  LIG1        0.0525
     72 H          -0.7484   -0.3058   -4.2114 H       1  LIG1        0.0525
     73 H           4.2046   -2.0500   -1.8543 H       1  LIG1        0.0236
     74 H           3.3022   -1.4624   -3.2473 H       1  LIG1        0.0236
     75 H           2.8429   -2.9833   -2.4936 H       1  LIG1        0.0236
     76 H           2.4007    0.7282   -2.3731 H       1  LIG1        0.0310
     77 H           3.6835    0.4708   -1.2060 H       1  LIG1        0.0310
     78 H           3.0686    1.3299    2.6198 H       1  LIG1        0.0237
     79 H           4.1052    1.0097    1.2194 H       1  LIG1        0.0237
     80 H           3.8093   -0.2559    2.4131 H       1  LIG1        0.0237
@<TRIPOS>BOND
     1     1     2    2
     2     2     3    1
     3     2     4    1
     4     4     5    1
     5     5     6    1
     6     6     7    1
     7     6     8    1
     8     8     9    1
     9     8    10    1
    10    10    11    1
    11     5    11    1
    12    11    12    1
    13    12    13    1
    14    14    16    1
    15    14    17    1
    16    17    18    1
    17    18    19    1
    18    17    20    2
    19    12    21    1
    20    21    22    1
    21    22    25    1
    22     6    25    1
    23    25    26    1
    24    26    27    1
    25     8    27    1
    26    27    28    1
    27    28    29    1
    28    28    30    1
    29    30    31    1
    30    30    32    1
    31    32    33   ar
    32    33    34   ar
    33    34    35   ar
    34    35    36   ar
    35    32    36   ar
    36    30    37    1
    37    37    38    1
    38    38    39    1
    39    27    39    1
    40    38    40    2
    41    28    41    1
    42    41    42    1
    43    10    42    1
    44    25    43    1
    45    43    44    1
    46    21    45    1
    47    21    46    1
    48     5    46    1
    49    11    47    1
    50    14    15    1
    51    14    12    1
    52    22    24    1
    53    22    23    1
    54     3    48    1
    55     3    49    1
    56     3    50    1
    57     9    51    1
    58    10    52    1
    59    16    53    1
    60    19    54    1
    61    19    55    1
    62    19    56    1
    63    24    57    1
    64    29    58    1
    65    29    59    1
    66    29    60    1
    67    33    61    1
    68    35    62    1
    69    36    63    1
    70    39    64    1
    71    39    65    1
    72    41    66    1
    73    41    67    1
    74    42    68    1
    75    42    69    1
    76    44    70    1
    77    44    71    1
    78    44    72    1
    79    45    73    1
    80    45    74    1
    81    45    75    1
    82    46    76    1
    83    46    77    1
    84    47    78    1
    85    47    79    1
    86    47    80    1
