@<TRIPOS>MOLECULE
NuBBE_2178
 52 53 0 0 0
SMALL
GASTEIGER

@<TRIPOS>ATOM
      1 C          -0.3568    0.7946   -0.4659 C.3     1  LIG1        0.0000
      2 H          -0.9521    1.5177   -1.0424 H       1  LIG1        0.0337
      3 C          -0.6797   -0.6222   -1.0474 C.3     1  LIG1       -0.0216
      4 C          -2.1458   -1.0260   -1.0737 C.ar    1  LIG1       -0.0433
      5 C          -2.7149   -1.7389    0.0037 C.ar    1  LIG1       -0.0131
      6 C          -4.0613   -2.1183   -0.0185 C.ar    1  LIG1        0.1615
      7 O          -4.7404   -2.7674    0.9809 O.3     1  LIG1       -0.4915
      8 C          -4.0435   -2.9694    2.2049 C.3     1  LIG1        0.0790
      9 C          -4.8232   -1.8248   -1.1541 C.ar    1  LIG1        0.1585
     10 C          -4.2810   -1.1346   -2.2300 C.ar    1  LIG1       -0.0163
     11 C          -2.9454   -0.7268   -2.1866 C.ar    1  LIG1       -0.0549
     12 O          -6.1318   -2.2223   -1.2268 O.3     1  LIG1       -0.5033
     13 C          -0.8286    0.8667    0.9934 C.3     1  LIG1       -0.0588
     14 C           1.1707    1.1993   -0.6469 C.3     1  LIG1        0.1473
     15 O           1.3982    1.2589   -2.0786 O.3     1  LIG1       -0.3645
     16 C           2.7041    1.6443   -2.5013 C.3     1  LIG1        0.0382
     17 C           1.4923    2.5753   -0.0168 C.2     1  LIG1        0.1367
     18 C           2.3373    2.6998    1.0214 C.2     1  LIG1        0.0260
     19 C           3.0479    1.5498    1.6115 C.2     1  LIG1        0.1855
     20 O           3.7509    1.7158    2.6055 O.2     1  LIG1       -0.2875
     21 C           2.9290    0.2349    0.9339 C.2     1  LIG1        0.0023
     22 C           2.0717    0.1111   -0.0955 C.2     1  LIG1       -0.0379
     23 C           3.8491   -0.8641    1.3945 C.3     1  LIG1       -0.0063
     24 C           3.1205   -2.0873    1.8790 C.2     1  LIG1       -0.0867
     25 C           2.8431   -3.1516    1.1136 C.2     1  LIG1       -0.1023
     26 O           0.9022    3.6646   -0.6560 O.2     1  LIG1       -0.4960
     27 C           1.5750    4.9193   -0.5266 C.3     1  LIG1        0.0785
     28 H          -0.1499   -1.3914   -0.4697 H       1  LIG1        0.0317
     29 H          -0.2867   -0.7067   -2.0686 H       1  LIG1        0.0317
     30 H          -2.0822   -1.9878    0.8489 H       1  LIG1        0.0658
     31 H          -4.7786   -3.2503    2.9658 H       1  LIG1        0.0660
     32 H          -3.5471   -2.0592    2.5575 H       1  LIG1        0.0660
     33 H          -3.3315   -3.7935    2.1001 H       1  LIG1        0.0660
     34 H          -4.8957   -0.9184   -3.0986 H       1  LIG1        0.0655
     35 H          -2.5269   -0.1939   -3.0375 H       1  LIG1        0.0621
     36 H          -6.2874   -2.7261   -0.4044 H       1  LIG1        0.2923
     37 H          -1.9227    0.9200    1.0402 H       1  LIG1        0.0234
     38 H          -0.4597    1.7542    1.5156 H       1  LIG1        0.0234
     39 H          -0.5112   -0.0130    1.5650 H       1  LIG1        0.0234
     40 H           2.7048    1.6950   -3.5920 H       1  LIG1        0.0524
     41 H           3.4519    0.9058   -2.1987 H       1  LIG1        0.0524
     42 H           2.9842    2.6318   -2.1269 H       1  LIG1        0.0524
     43 H           2.5813    3.6472    1.4864 H       1  LIG1        0.0690
     44 H           2.0313   -0.8386   -0.6229 H       1  LIG1        0.0609
     45 H           4.5055   -0.5288    2.2060 H       1  LIG1        0.0357
     46 H           4.5275   -1.1242    0.5714 H       1  LIG1        0.0357
     47 H           2.8472   -2.1039    2.9324 H       1  LIG1        0.0570
     48 H           3.1025   -3.1770    0.0593 H       1  LIG1        0.0532
     49 H           2.3417   -4.0207    1.5273 H       1  LIG1        0.0532
     50 H           1.1017    5.6321   -1.2068 H       1  LIG1        0.0660
     51 H           2.6294    4.8337   -0.8155 H       1  LIG1        0.0660
     52 H           1.4832    5.3154    0.4907 H       1  LIG1        0.0660
@<TRIPOS>BOND
     1     1     2    1
     2     1     3    1
     3     3     4    1
     4     4     5   ar
     5     5     6   ar
     6     6     7    1
     7     7     8    1
     8     6     9   ar
     9     9    10   ar
    10    10    11   ar
    11     4    11   ar
    12     9    12    1
    13     1    13    1
    14     1    14    1
    15    14    15    1
    16    15    16    1
    17    14    17    1
    18    17    18    2
    19    18    19    1
    20    19    20    2
    21    19    21    1
    22    21    22    2
    23    14    22    1
    24    21    23    1
    25    23    24    1
    26    24    25    2
    27    17    26    1
    28    26    27    1
    29     3    28    1
    30     3    29    1
    31     5    30    1
    32     8    31    1
    33     8    32    1
    34     8    33    1
    35    10    34    1
    36    11    35    1
    37    12    36    1
    38    13    37    1
    39    13    38    1
    40    13    39    1
    41    16    40    1
    42    16    41    1
    43    16    42    1
    44    18    43    1
    45    22    44    1
    46    23    45    1
    47    23    46    1
    48    24    47    1
    49    25    48    1
    50    25    49    1
    51    27    50    1
    52    27    51    1
    53    27    52    1
