REMARK  Name = NuBBE_1985
REMARK  19 active torsions:
REMARK  status: ('A' for Active; 'I' for Inactive)
REMARK    1  A    between atoms: C_1  and  C_2
REMARK    2  A    between atoms: C_1  and  C_12
REMARK    3  A    between atoms: C_2  and  C_3
REMARK    4  A    between atoms: C_3  and  C_4
REMARK    5  A    between atoms: C_4  and  C_5
REMARK    6  A    between atoms: C_5  and  C_6
REMARK    7  A    between atoms: C_6  and  C_7
REMARK    8  A    between atoms: C_7  and  C_8
REMARK    9  A    between atoms: C_8  and  C_9
REMARK   10  A    between atoms: C_9  and  C_10
REMARK   11  A    between atoms: C_10  and  C_11
REMARK   12  A    between atoms: C_12  and  C_13
REMARK   13  A    between atoms: C_13  and  C_14
REMARK   14  A    between atoms: C_14  and  C_15
REMARK   15  A    between atoms: C_15  and  C_16
REMARK   16  A    between atoms: C_16  and  C_17
REMARK   17  A    between atoms: C_17  and  C_18
REMARK   18  A    between atoms: C_18  and  C_19
REMARK   19  A    between atoms: C_19  and  C_20
REMARK                            x       y       z     vdW  Elec       q    Type
REMARK                         _______ _______ _______ _____ _____    ______ ____
ROOT
ATOM      1  C   LIG A   1       1.757   1.440  -2.127  0.00  0.00    -0.000 C 
ENDROOT
BRANCH   1   2
ATOM      2  C   LIG A   1       2.676   2.715  -2.107  0.00  0.00    -0.000 C 
BRANCH   2   3
ATOM      3  C   LIG A   1       2.241   4.027  -2.807  0.00  0.00    -0.000 C 
BRANCH   3   4
ATOM      4  C   LIG A   1       0.936   4.670  -2.291  0.00  0.00    -0.000 C 
BRANCH   4   5
ATOM      5  C   LIG A   1       0.991   5.012  -0.793  0.00  0.00    -0.000 C 
BRANCH   5   6
ATOM      6  C   LIG A   1      -0.350   5.415  -0.179  0.00  0.00    -0.000 C 
BRANCH   6   7
ATOM      7  C   LIG A   1      -1.302   4.273   0.242  0.00  0.00    -0.000 C 
BRANCH   7   8
ATOM      8  C   LIG A   1      -0.832   3.356   1.390  0.00  0.00    -0.000 C 
BRANCH   8   9
ATOM      9  C   LIG A   1      -0.234   4.115   2.567  0.00  0.00    -0.003 C 
ATOM     10  C   LIG A   1       0.056   3.235   3.770  0.00  0.00    +0.004 C 
ENDBRANCH   8   9
ENDBRANCH   7   8
ENDBRANCH   6   7
ENDBRANCH   5   6
ENDBRANCH   4   5
ENDBRANCH   3   4
ENDBRANCH   2   3
ENDBRANCH   1   2
BRANCH   1  11
ATOM     11  C   LIG A   1       0.382   1.572  -1.467  0.00  0.00    -0.000 C 
BRANCH  11  12
ATOM     12  C   LIG A   1      -0.643   0.410  -1.249  0.00  0.00    -0.000 C 
BRANCH  12  13
ATOM     13  C   LIG A   1      -0.221  -0.815  -0.404  0.00  0.00    -0.000 C 
BRANCH  13  14
ATOM     14  C   LIG A   1      -1.327  -1.902  -0.235  0.00  0.00    -0.000 C 
BRANCH  14  15
ATOM     15  C   LIG A   1      -1.024  -3.138   0.693  0.00  0.00    -0.000 C 
BRANCH  15  16
ATOM     16  C   LIG A   1       0.061  -4.143   0.214  0.00  0.00    -0.000 C 
BRANCH  16  17
ATOM     17  C   LIG A   1       0.380  -5.404   1.104  0.00  0.00    -0.000 C 
BRANCH  17  18
ATOM     18  C   LIG A   1      -0.012  -6.862   0.660  0.00  0.00    -0.000 C 
BRANCH  18  19
ATOM     19  C   LIG A   1      -1.403  -7.415   1.032  0.00  0.00    -0.003 C 
ATOM     20  C   LIG A   1      -1.702  -8.833   0.491  0.00  0.00    +0.004 C 
ENDBRANCH  18  19
ENDBRANCH  17  18
ENDBRANCH  16  17
ENDBRANCH  15  16
ENDBRANCH  14  15
ENDBRANCH  13  14
ENDBRANCH  12  13
ENDBRANCH  11  12
ENDBRANCH   1  11
TORSDOF 17
