@<TRIPOS>MOLECULE
NuBBE_1279
 60 63 0 0 0
SMALL
GASTEIGER

@<TRIPOS>ATOM
      1 O          -3.8896   -1.7768   -0.1075 O.3     1  LIG1       -0.5052
      2 C          -2.5310   -1.5911    0.0296 C.ar    1  LIG1        0.1416
      3 C          -1.7220   -2.7333    0.0490 C.ar    1  LIG1        0.0591
      4 C          -0.3358   -2.5867    0.1842 C.ar    1  LIG1        0.1393
      5 O           0.5212   -3.6582    0.1754 O.3     1  LIG1       -0.4811
      6 C          -0.0020   -5.0042    0.1313 C.3     1  LIG1        0.1235
      7 C           0.4214   -5.6891    1.4360 C.3     1  LIG1       -0.0215
      8 C          -1.4949   -5.1217   -0.0221 C.2     1  LIG1       -0.0408
      9 C          -2.3052   -4.0644   -0.0666 C.2     1  LIG1       -0.0478
     10 C           0.6689   -5.6984   -1.0597 C.3     1  LIG1       -0.0215
     11 C           0.2422   -1.3020    0.3343 C.ar    1  LIG1        0.0412
     12 C          -0.5948   -0.1638    0.3382 C.ar    1  LIG1        0.1426
     13 C          -1.9671   -0.3101    0.1644 C.ar    1  LIG1        0.1042
     14 C          -2.8229    0.8879    0.1521 C.2     1  LIG1        0.2026
     15 C          -2.1930    2.2492    0.4295 C.3     1  LIG1        0.1616
     16 H          -2.3258    2.4419    1.5031 H       1  LIG1        0.0720
     17 C          -0.6930    2.2031    0.0804 C.3     1  LIG1        0.1617
     18 H          -0.5604    2.1828   -1.0100 H       1  LIG1        0.0817
     19 O          -0.0174    1.0470    0.6037 O.3     1  LIG1       -0.4798
     20 C           0.0370    3.4433    0.6136 C.ar    1  LIG1        0.0370
     21 C           0.1626    4.6148   -0.1481 C.ar    1  LIG1        0.1236
     22 C           0.9214    5.7008    0.2946 C.ar    1  LIG1       -0.0198
     23 C           1.5266    5.6628    1.5481 C.ar    1  LIG1       -0.0583
     24 C           1.3668    4.5389    2.3535 C.ar    1  LIG1       -0.0612
     25 C           0.6328    3.4397    1.8905 C.ar    1  LIG1       -0.0515
     26 O          -0.4627    4.7612   -1.3546 O.3     1  LIG1       -0.5064
     27 O          -2.7925    3.3271   -0.3165 O.3     1  LIG1       -0.3678
     28 C          -4.1864    3.5036   -0.0614 C.3     1  LIG1        0.0375
     29 O          -4.0382    0.7262   -0.0315 O.2     1  LIG1       -0.2889
     30 C           1.7513   -1.1438    0.4355 C.3     1  LIG1       -0.0023
     31 C           2.4021   -0.9803   -0.9174 C.2     1  LIG1       -0.0807
     32 C           3.1588    0.0470   -1.3557 C.2     1  LIG1       -0.0793
     33 C           3.5285    1.2600   -0.5457 C.3     1  LIG1       -0.0440
     34 C           3.7113    0.0593   -2.7587 C.3     1  LIG1       -0.0440
     35 H          -4.3283   -0.8976   -0.1281 H       1  LIG1        0.2922
     36 H          -0.0030   -5.1713    2.3046 H       1  LIG1        0.0271
     37 H           1.5100   -5.6580    1.5586 H       1  LIG1        0.0271
     38 H           0.1015   -6.7368    1.4725 H       1  LIG1        0.0271
     39 H          -1.9236   -6.1180   -0.0969 H       1  LIG1        0.0611
     40 H          -3.3791   -4.1742   -0.1735 H       1  LIG1        0.0624
     41 H           1.7605   -5.6475   -0.9796 H       1  LIG1        0.0271
     42 H           0.4032   -5.2019   -2.0009 H       1  LIG1        0.0271
     43 H           0.3785   -6.7527   -1.1361 H       1  LIG1        0.0271
     44 H           1.0314    6.5814   -0.3330 H       1  LIG1        0.0654
     45 H           2.1143    6.5085    1.8970 H       1  LIG1        0.0619
     46 H           1.8284    4.5102    3.3380 H       1  LIG1        0.0618
     47 H           0.5513    2.5671    2.5354 H       1  LIG1        0.0623
     48 H          -1.3642    4.3932   -1.2594 H       1  LIG1        0.2921
     49 H          -4.4318    4.5575   -0.2137 H       1  LIG1        0.0524
     50 H          -4.4605    3.2254    0.9614 H       1  LIG1        0.0524
     51 H          -4.7711    2.9247   -0.7837 H       1  LIG1        0.0524
     52 H           2.1876   -2.0175    0.9352 H       1  LIG1        0.0358
     53 H           1.9797   -0.3112    1.1058 H       1  LIG1        0.0358
     54 H           2.2170   -1.8109   -1.6002 H       1  LIG1        0.0575
     55 H           3.3190    1.1543    0.5203 H       1  LIG1        0.0274
     56 H           2.9855    2.1358   -0.9143 H       1  LIG1        0.0274
     57 H           4.6025    1.4590   -0.6336 H       1  LIG1        0.0274
     58 H           3.4056   -0.8185   -3.3373 H       1  LIG1        0.0274
     59 H           4.8062    0.0781   -2.7363 H       1  LIG1        0.0274
     60 H           3.3614    0.9484   -3.2940 H       1  LIG1        0.0274
@<TRIPOS>BOND
     1     1     2    1
     2     2     3   ar
     3     3     4   ar
     4     4     5    1
     5     5     6    1
     6     6     7    1
     7     6     8    1
     8     8     9    2
     9     3     9    1
    10     6    10    1
    11     4    11   ar
    12    11    12   ar
    13    12    13   ar
    14     2    13   ar
    15    13    14    1
    16    14    15    1
    17    15    17    1
    18    17    18    1
    19    17    19    1
    20    12    19    1
    21    17    20    1
    22    20    21   ar
    23    21    22   ar
    24    22    23   ar
    25    23    24   ar
    26    24    25   ar
    27    20    25   ar
    28    21    26    1
    29    27    28    1
    30    14    29    2
    31    11    30    1
    32    30    31    1
    33    31    32    2
    34    32    33    1
    35    32    34    1
    36    15    27    1
    37    15    16    1
    38     1    35    1
    39     7    36    1
    40     7    37    1
    41     7    38    1
    42     8    39    1
    43     9    40    1
    44    10    41    1
    45    10    42    1
    46    10    43    1
    47    22    44    1
    48    23    45    1
    49    24    46    1
    50    25    47    1
    51    26    48    1
    52    28    49    1
    53    28    50    1
    54    28    51    1
    55    30    52    1
    56    30    53    1
    57    31    54    1
    58    33    55    1
    59    33    56    1
    60    33    57    1
    61    34    58    1
    62    34    59    1
    63    34    60    1
