REMARK  Name = NuBBE_2299
REMARK  5 active torsions:
REMARK  status: ('A' for Active; 'I' for Inactive)
REMARK    1  A    between atoms: C_1  and  C_2
REMARK    2  A    between atoms: C_4  and  C_19
REMARK    3  A    between atoms: C_5  and  O_6
REMARK    4  A    between atoms: C_8  and  C_10
REMARK    5  A    between atoms: C_19  and  C_20
REMARK                            x       y       z     vdW  Elec       q    Type
REMARK                         _______ _______ _______ _____ _____    ______ ____
ROOT
ATOM      1  C   LIG A   1      -1.876   0.517  -1.195  0.00  0.00    +0.011 C 
ATOM      2  C   LIG A   1      -0.604   0.542  -0.361  0.00  0.00    +0.031 C 
ATOM      3  C   LIG A   1      -0.596   1.210   1.035  0.00  0.00    +0.041 C 
ATOM      4  C   LIG A   1       0.736   0.606   1.551  0.00  0.00    +0.235 C 
ATOM      5  O   LIG A   1       0.686  -0.759   1.201  0.00  0.00    -0.334 OA
ATOM      6  C   LIG A   1      -0.078  -0.874  -0.029  0.00  0.00    +0.156 C 
ATOM      7  C   LIG A   1      -0.459   2.749   0.994  0.00  0.00    +0.014 C 
ATOM      8  C   LIG A   1      -0.075   3.348   2.361  0.00  0.00    +0.008 C 
ATOM      9  C   LIG A   1       1.080   2.643   3.079  0.00  0.00    +0.080 C 
ATOM     10  C   LIG A   1       0.988   1.129   2.978  0.00  0.00    +0.192 C 
ATOM     11  O   LIG A   1       1.201   0.393   3.950  0.00  0.00    -0.292 OA
ENDROOT
BRANCH   6  12
ATOM     12  C   LIG A   1       0.775  -1.497  -1.119  0.00  0.00    -0.015 A 
ATOM     13  C   LIG A   1       0.405  -2.729  -1.687  0.00  0.00    +0.055 A 
ATOM     14  C   LIG A   1       1.213  -3.266  -2.672  0.00  0.00    +0.167 A 
ATOM     15  O   LIG A   1       0.998  -4.440  -3.326  0.00  0.00    -0.453 OA
ATOM     16  C   LIG A   1       2.146  -4.477  -4.201  0.00  0.00    +0.466 C 
ATOM     17  O   LIG A   1       3.010  -3.331  -4.068  0.00  0.00    -0.453 OA
ATOM     18  C   LIG A   1       2.357  -2.636  -3.100  0.00  0.00    +0.166 A 
ATOM     19  C   LIG A   1       2.754  -1.430  -2.579  0.00  0.00    +0.050 A 
ATOM     20  C   LIG A   1       1.950  -0.861  -1.590  0.00  0.00    +0.010 A 
ENDBRANCH   6  12
BRANCH   4  21
ATOM     21  O   LIG A   1       1.870   1.127   0.844  0.00  0.00    -0.358 OA
ATOM     22  H   LIG A   1       2.604   0.564   1.156  0.00  0.00    +0.213 HD
ENDBRANCH   4  21
BRANCH   3  23
ATOM     23  C   LIG A   1      -1.780   0.756   1.965  0.00  0.00    +0.039 C 
BRANCH  23  24
ATOM     24  C   LIG A   1      -3.174   1.077   1.493  0.00  0.00    -0.034 C 
ATOM     25  C   LIG A   1      -4.127   0.152   1.311  0.00  0.00    +0.004 C 
ENDBRANCH  23  24
ENDBRANCH   3  23
TORSDOF 4
