@<TRIPOS>MOLECULE
NuBBE_2372
 50 54 0 0 0
SMALL
GASTEIGER

@<TRIPOS>ATOM
      1 C          -2.0496   -1.1836    2.8463 C.ar    1  LIG1       -0.0160
      2 C          -2.6914   -0.7793    1.6796 C.ar    1  LIG1        0.1621
      3 C          -2.0963    0.1783    0.8551 C.ar    1  LIG1        0.1623
      4 C          -0.8845    0.7647    1.2229 C.ar    1  LIG1       -0.0131
      5 C          -0.2204    0.3568    2.3915 C.ar    1  LIG1       -0.0429
      6 C          -0.8206   -0.6194    3.2008 C.ar    1  LIG1       -0.0549
      7 C           1.1105    0.9586    2.7871 C.3     1  LIG1       -0.0143
      8 C           2.1889    0.8367    1.7049 C.3     1  LIG1        0.0666
      9 H           1.8785    1.3848    0.8148 H       1  LIG1        0.0420
     10 C           3.4658    1.4677    2.2044 C.2     1  LIG1        0.3109
     11 O           3.6737    2.6558    2.3350 O.2     1  LIG1       -0.2505
     12 O           4.3803    0.4876    2.4894 O.3     1  LIG1       -0.4641
     13 C           3.7768   -0.8008    2.3305 C.3     1  LIG1        0.0963
     14 C           2.6185   -0.5996    1.3797 C.3     1  LIG1        0.0105
     15 H           1.8358   -1.3412    1.5793 H       1  LIG1        0.0345
     16 C           3.0825   -0.7663   -0.0866 C.3     1  LIG1       -0.0209
     17 C           1.9452   -0.6567   -1.0766 C.ar    1  LIG1       -0.0433
     18 C           1.6148    0.5836   -1.6419 C.ar    1  LIG1       -0.0131
     19 C           0.5155    0.7069   -2.4882 C.ar    1  LIG1        0.1623
     20 C          -0.2698   -0.4082   -2.7860 C.ar    1  LIG1        0.1621
     21 C           0.0778   -1.6555   -2.2721 C.ar    1  LIG1       -0.0160
     22 C           1.1769   -1.7794   -1.4156 C.ar    1  LIG1       -0.0549
     23 O          -1.3859   -0.3515   -3.5822 O.3     1  LIG1       -0.4849
     24 C          -1.8005    1.0009   -3.8160 C.3     1  LIG1        0.1237
     25 C          -0.6080    1.8934   -4.1135 C.3     1  LIG1        0.1237
     26 O           0.2608    1.9616   -2.9793 O.3     1  LIG1       -0.4849
     27 O          -2.6528    0.5929   -0.3291 O.3     1  LIG1       -0.4849
     28 C          -3.6435   -0.3388   -0.7801 C.3     1  LIG1        0.1237
     29 C          -4.5926   -0.6773    0.3559 C.3     1  LIG1        0.1237
     30 O          -3.8992   -1.3685    1.4021 O.3     1  LIG1       -0.4849
     31 H          -2.5104   -1.9320    3.4847 H       1  LIG1        0.0655
     32 H          -0.4590    1.5286    0.5766 H       1  LIG1        0.0658
     33 H          -0.3395   -0.9478    4.1193 H       1  LIG1        0.0621
     34 H           1.4659    0.5086    3.7233 H       1  LIG1        0.0321
     35 H           0.9430    2.0193    3.0179 H       1  LIG1        0.0321
     36 H           3.4492   -1.1419    3.3191 H       1  LIG1        0.0700
     37 H           4.5294   -1.5067    1.9595 H       1  LIG1        0.0700
     38 H           3.5519   -1.7519   -0.2098 H       1  LIG1        0.0317
     39 H           3.8620   -0.0361   -0.3387 H       1  LIG1        0.0317
     40 H           2.2016    1.4713   -1.4173 H       1  LIG1        0.0658
     41 H          -0.5165   -2.5293   -2.5233 H       1  LIG1        0.0655
     42 H           1.4222   -2.7589   -1.0108 H       1  LIG1        0.0621
     43 H          -2.3534    1.3580   -2.9398 H       1  LIG1        0.0731
     44 H          -2.4871    0.9922   -4.6682 H       1  LIG1        0.0731
     45 H          -0.9410    2.9109   -4.3399 H       1  LIG1        0.0731
     46 H          -0.0320    1.5223   -4.9700 H       1  LIG1        0.0731
     47 H          -3.1398   -1.2343   -1.1660 H       1  LIG1        0.0731
     48 H          -4.1895    0.1275   -1.6060 H       1  LIG1        0.0731
     49 H          -5.3948   -1.3309   -0.0006 H       1  LIG1        0.0731
     50 H          -5.0492    0.2269    0.7777 H       1  LIG1        0.0731
@<TRIPOS>BOND
     1     1     2   ar
     2     2     3   ar
     3     3     4   ar
     4     4     5   ar
     5     5     6   ar
     6     1     6   ar
     7     5     7    1
     8     7     8    1
     9     8     9    1
    10     8    10    1
    11    10    11    2
    12    10    12    1
    13    12    13    1
    14    13    14    1
    15    14    15    1
    16     8    14    1
    17    14    16    1
    18    16    17    1
    19    17    18   ar
    20    18    19   ar
    21    19    20   ar
    22    20    21   ar
    23    21    22   ar
    24    17    22   ar
    25    20    23    1
    26    23    24    1
    27    24    25    1
    28    25    26    1
    29    19    26    1
    30     3    27    1
    31    27    28    1
    32    28    29    1
    33    29    30    1
    34     2    30    1
    35     1    31    1
    36     4    32    1
    37     6    33    1
    38     7    34    1
    39     7    35    1
    40    13    36    1
    41    13    37    1
    42    16    38    1
    43    16    39    1
    44    18    40    1
    45    21    41    1
    46    22    42    1
    47    24    43    1
    48    24    44    1
    49    25    45    1
    50    25    46    1
    51    28    47    1
    52    28    48    1
    53    29    49    1
    54    29    50    1
