REMARK  Name = NuBBE_2292
REMARK  4 active torsions:
REMARK  status: ('A' for Active; 'I' for Inactive)
REMARK    1  A    between atoms: C_1  and  C_2
REMARK    2  A    between atoms: C_3  and  C_4
REMARK    3  A    between atoms: C_9  and  C_10
REMARK    4  A    between atoms: C_14  and  C_15
REMARK                            x       y       z     vdW  Elec       q    Type
REMARK                         _______ _______ _______ _____ _____    ______ ____
ROOT
ATOM      1  C   LIG A   1      -2.202  -2.034   0.244  0.00  0.00    +0.048 C 
ATOM      2  C   LIG A   1      -0.734  -1.897   0.153  0.00  0.00    -0.002 A 
ATOM      3  C   LIG A   1       0.170  -2.960   0.090  0.00  0.00    +0.106 A 
ATOM      4  C   LIG A   1       0.010  -4.431   0.049  0.00  0.00    +0.086 C 
ATOM      5  O   LIG A   1       1.467  -2.521   0.067  0.00  0.00    -0.460 OA
ATOM      6  C   LIG A   1       1.431  -1.156   0.091  0.00  0.00    +0.136 A 
ATOM      7  C   LIG A   1       0.114  -0.789   0.107  0.00  0.00    +0.027 A 
ATOM      8  C   LIG A   1      -0.209   0.590   0.103  0.00  0.00    -0.030 A 
ATOM      9  C   LIG A   1      -1.502   1.345   0.119  0.00  0.00    +0.017 C 
ATOM     10  C   LIG A   1      -2.518   1.000  -0.959  0.00  0.00    +0.012 C 
ATOM     11  C   LIG A   1      -1.018   2.814  -0.112  0.00  0.00    +0.012 C 
ATOM     12  C   LIG A   1       0.478   2.891   0.240  0.00  0.00    +0.036 C 
ATOM     13  C   LIG A   1       0.922   1.464   0.156  0.00  0.00    -0.040 A 
ATOM     14  C   LIG A   1       2.270   1.073   0.157  0.00  0.00    -0.043 A 
ATOM     15  C   LIG A   1       3.414   2.039   0.208  0.00  0.00    +0.044 C 
ATOM     16  C   LIG A   1       2.524  -0.304   0.107  0.00  0.00    +0.050 A 
ENDROOT
TORSDOF 0
