REMARK  Name = NuBBE_383
REMARK  12 active torsions:
REMARK  status: ('A' for Active; 'I' for Inactive)
REMARK    1  A    between atoms: C_3  and  O_4
REMARK    2  A    between atoms: C_5  and  C_39
REMARK    3  A    between atoms: C_11  and  C_38
REMARK    4  A    between atoms: C_13  and  C_14
REMARK    5  A    between atoms: C_15  and  O_37
REMARK    6  A    between atoms: C_17  and  O_36
REMARK    7  A    between atoms: C_19  and  C_20
REMARK    8  A    between atoms: C_19  and  C_35
REMARK    9  A    between atoms: C_20  and  O_21
REMARK   10  A    between atoms: O_21  and  C_22
REMARK   11  A    between atoms: C_26  and  C_33
REMARK   12  A    between atoms: C_29  and  C_32
REMARK                            x       y       z     vdW  Elec       q    Type
REMARK                         _______ _______ _______ _____ _____    ______ ____
ROOT
ATOM      1  O   LIG A   1      -3.284  -4.521  -3.948  0.00  0.00    -0.284 OA
ATOM      2  C   LIG A   1      -2.513  -4.579  -2.993  0.00  0.00    +0.221 C 
ATOM      3  C   LIG A   1      -2.353  -5.861  -2.243  0.00  0.00    +0.167 C 
ATOM      4  C   LIG A   1      -1.595  -5.923  -1.130  0.00  0.00    +0.002 C 
ATOM      5  C   LIG A   1      -0.980  -4.683  -0.625  0.00  0.00    -0.014 C 
ATOM      6  C   LIG A   1      -0.496  -4.567   0.636  0.00  0.00    +0.009 C 
ATOM      7  C   LIG A   1      -0.141  -3.277   1.214  0.00  0.00    +0.005 C 
ATOM      8  C   LIG A   1      -0.005  -2.192   0.426  0.00  0.00    -0.034 C 
ATOM      9  C   LIG A   1      -0.139  -0.800   0.916  0.00  0.00    -0.038 C 
ATOM     10  C   LIG A   1      -1.154  -0.416   1.737  0.00  0.00    -0.068 C 
ATOM     11  C   LIG A   1      -1.432   1.026   2.132  0.00  0.00    +0.040 C 
ATOM     12  C   LIG A   1      -0.347   2.072   1.790  0.00  0.00    +0.004 C 
ATOM     13  C   LIG A   1       0.663   2.108   2.960  0.00  0.00    +0.014 C 
ATOM     14  C   LIG A   1      -0.987   3.496   1.681  0.00  0.00    +0.150 C 
ATOM     15  C   LIG A   1      -0.029   4.591   1.137  0.00  0.00    +0.160 C 
ATOM     16  C   LIG A   1       0.695   4.186  -0.167  0.00  0.00    +0.093 C 
ATOM     17  C   LIG A   1       1.282   2.760  -0.037  0.00  0.00    +0.025 C 
ATOM     18  C   LIG A   1       0.261   1.696   0.410  0.00  0.00    +0.009 C 
ATOM     19  C   LIG A   1       0.808   0.225   0.256  0.00  0.00    -0.003 C 
ATOM     20  C   LIG A   1       0.921  -0.026  -1.295  0.00  0.00    +0.013 C 
ATOM     21  C   LIG A   1      -0.048  -1.080  -1.825  0.00  0.00    +0.017 C 
ATOM     22  C   LIG A   1       0.123  -2.422  -1.086  0.00  0.00    +0.019 C 
ATOM     23  C   LIG A   1      -0.892  -3.497  -1.512  0.00  0.00    -0.026 C 
ATOM     24  C   LIG A   1      -1.661  -3.437  -2.612  0.00  0.00    +0.059 C 
ATOM     25  C   LIG A   1       1.537  -2.985  -1.431  0.00  0.00    +0.021 C 
ATOM     26  C   LIG A   1       2.223   0.046   0.863  0.00  0.00    +0.016 C 
ATOM     27  C   LIG A   1      -0.204   4.257  -1.423  0.00  0.00    +0.025 C 
ATOM     28  C   LIG A   1      -2.236  -1.333   2.273  0.00  0.00    +0.039 C 
ATOM     29  C   LIG A   1      -1.398  -7.211  -0.381  0.00  0.00    +0.048 C 
ENDROOT
BRANCH   3  30
ATOM     30  O   LIG A   1      -3.027  -6.958  -2.751  0.00  0.00    -0.503 OA
ATOM     31  H   LIG A   1      -3.525  -6.609  -3.522  0.00  0.00    +0.292 HD
ENDBRANCH   3  30
BRANCH  16  32
ATOM     32  C   LIG A   1       1.845   5.179  -0.404  0.00  0.00    +0.315 C 
ATOM     33  O   LIG A   1       1.723   6.243  -0.987  0.00  0.00    -0.250 OA
BRANCH  32  34
ATOM     34  O   LIG A   1       3.017   4.722   0.116  0.00  0.00    -0.468 OA
ATOM     35  C   LIG A   1       4.192   5.335  -0.411  0.00  0.00    +0.280 C 
ENDBRANCH  32  34
ENDBRANCH  16  32
BRANCH  15  36
ATOM     36  O   LIG A   1      -0.834   5.771   0.949  0.00  0.00    -0.388 OA
ATOM     37  H   LIG A   1      -0.279   6.461   0.536  0.00  0.00    +0.210 HD
ENDBRANCH  15  36
BRANCH  14  38
ATOM     38  O   LIG A   1      -2.143   3.469   0.829  0.00  0.00    -0.389 OA
ATOM     39  H   LIG A   1      -2.374   4.411   0.693  0.00  0.00    +0.210 HD
ENDBRANCH  14  38
TORSDOF 5
