@<TRIPOS>MOLECULE
NuBBE_1224
 38 40 0 0 0
SMALL
GASTEIGER

@<TRIPOS>ATOM
      1 O          -3.2536    1.5157   -0.1123 O.2     1  LIG1       -0.2830
      2 C          -2.0374    1.3412   -0.1833 C.ar    1  LIG1        0.2381
      3 C          -1.3945   -0.0005   -0.3213 C.ar    1  LIG1        0.2107
      4 O          -2.1207   -1.1823   -0.3725 O.3     1  LIG1       -0.4883
      5 C          -3.4208   -1.1053   -0.9458 C.3     1  LIG1        0.0791
      6 C          -0.0469   -0.0265   -0.3548 C.ar    1  LIG1        0.1809
      7 O           0.7857    1.0731   -0.2842 O.2     1  LIG1       -0.4507
      8 C           0.2210    2.3142   -0.1748 C.ar    1  LIG1        0.1465
      9 C          -1.1540    2.5141   -0.1237 C.ar    1  LIG1        0.1092
     10 C          -1.6607    3.8158   -0.0132 C.ar    1  LIG1        0.1348
     11 O          -3.0004    4.0942    0.0432 O.3     1  LIG1       -0.5058
     12 C          -0.7976    4.9081    0.0457 C.ar    1  LIG1        0.0223
     13 C           0.5755    4.6897   -0.0041 C.ar    1  LIG1        0.1239
     14 O           1.4608    5.7245    0.0532 O.3     1  LIG1       -0.5065
     15 C           1.0918    3.4024   -0.1138 C.ar    1  LIG1        0.0231
     16 C           0.7005   -1.2867   -0.4801 C.ar    1  LIG1        0.0247
     17 C           1.0761   -1.9981    0.6705 C.ar    1  LIG1       -0.0055
     18 C           1.8057   -3.1826    0.5574 C.ar    1  LIG1        0.1619
     19 O           2.2451   -3.9603    1.5990 O.3     1  LIG1       -0.4914
     20 C           1.8974   -3.5132    2.9053 C.3     1  LIG1        0.0790
     21 C           2.1446   -3.6480   -0.7185 C.ar    1  LIG1        0.1585
     22 C           1.7786   -2.9564   -1.8664 C.ar    1  LIG1       -0.0159
     23 C           1.0564   -1.7698   -1.7465 C.ar    1  LIG1       -0.0473
     24 O           2.8503   -4.8115   -0.8643 O.3     1  LIG1       -0.5033
     25 H          -3.7317   -2.1221   -1.2046 H       1  LIG1        0.0660
     26 H          -3.4256   -0.5101   -1.8651 H       1  LIG1        0.0660
     27 H          -4.1407   -0.7221   -0.2170 H       1  LIG1        0.0660
     28 H          -3.4912    3.2414    0.0095 H       1  LIG1        0.2922
     29 H          -1.2112    5.9081    0.1309 H       1  LIG1        0.0691
     30 H           0.9662    6.5585    0.1264 H       1  LIG1        0.2921
     31 H           2.1671    3.2498   -0.1514 H       1  LIG1        0.0691
     32 H           0.7866   -1.6018    1.6380 H       1  LIG1        0.0662
     33 H           2.3979   -4.1630    3.6288 H       1  LIG1        0.0660
     34 H           0.8172   -3.5957    3.0653 H       1  LIG1        0.0660
     35 H           2.2477   -2.4915    3.0870 H       1  LIG1        0.0660
     36 H           2.0539   -3.3390   -2.8444 H       1  LIG1        0.0655
     37 H           0.7731   -1.2251   -2.6436 H       1  LIG1        0.0626
     38 H           2.9878   -5.1391    0.0456 H       1  LIG1        0.2923
@<TRIPOS>BOND
     1     1     2    2
     2     2     3   ar
     3     3     4    1
     4     4     5    1
     5     3     6   ar
     6     6     7   ar
     7     7     8   ar
     8     8     9   ar
     9     2     9   ar
    10     9    10   ar
    11    10    11    1
    12    10    12   ar
    13    12    13   ar
    14    13    14    1
    15    13    15   ar
    16     8    15   ar
    17     6    16    1
    18    16    17   ar
    19    17    18   ar
    20    18    19    1
    21    19    20    1
    22    18    21   ar
    23    21    22   ar
    24    22    23   ar
    25    16    23   ar
    26    21    24    1
    27     5    25    1
    28     5    26    1
    29     5    27    1
    30    11    28    1
    31    12    29    1
    32    14    30    1
    33    15    31    1
    34    17    32    1
    35    20    33    1
    36    20    34    1
    37    20    35    1
    38    22    36    1
    39    23    37    1
    40    24    38    1
