REMARK  Name = NuBBE_217
REMARK  8 active torsions:
REMARK  status: ('A' for Active; 'I' for Inactive)
REMARK    1  A    between atoms: O_1  and  C_2
REMARK    2  A    between atoms: C_7  and  C_8
REMARK    3  A    between atoms: C_9  and  C_18
REMARK    4  A    between atoms: C_12  and  O_17
REMARK    5  A    between atoms: C_14  and  C_16
REMARK    6  A    between atoms: C_18  and  C_20
REMARK    7  A    between atoms: C_18  and  C_21
REMARK    8  A    between atoms: C_21  and  O_22
REMARK                            x       y       z     vdW  Elec       q    Type
REMARK                         _______ _______ _______ _____ _____    ______ ____
ROOT
ATOM      1  C   LIG A   1       1.739   2.284   1.329  0.00  0.00    +0.120 A 
ATOM      2  C   LIG A   1       0.693   2.439   0.418  0.00  0.00    +0.050 A 
ATOM      3  C   LIG A   1      -0.175   1.370   0.118  0.00  0.00    -0.035 A 
ATOM      4  C   LIG A   1       0.041   0.135   0.757  0.00  0.00    -0.040 A 
ATOM      5  C   LIG A   1       1.075   0.015   1.708  0.00  0.00    +0.011 A 
ATOM      6  C   LIG A   1       1.933   1.081   2.000  0.00  0.00    -0.009 A 
ATOM      7  C   LIG A   1       3.034   0.921   3.005  0.00  0.00    +0.048 C 
ATOM      8  C   LIG A   1      -0.828  -1.080   0.464  0.00  0.00    +0.027 C 
ATOM      9  C   LIG A   1      -2.265  -0.579   0.211  0.00  0.00    +0.040 C 
ATOM     10  C   LIG A   1      -2.352   0.417  -0.943  0.00  0.00    +0.122 C 
ATOM     11  C   LIG A   1      -1.392   1.625  -0.768  0.00  0.00    +0.045 C 
ATOM     12  C   LIG A   1      -1.018   2.253  -2.118  0.00  0.00    +0.015 C 
ENDROOT
BRANCH   1  13
ATOM     13  O   LIG A   1       2.583   3.326   1.594  0.00  0.00    -0.506 OA
ATOM     14  H   LIG A   1       2.372   4.058   0.993  0.00  0.00    +0.292 HD
ENDBRANCH   1  13
BRANCH  10  15
ATOM     15  O   LIG A   1      -2.155  -0.280  -2.173  0.00  0.00    -0.391 OA
ATOM     16  H   LIG A   1      -2.518   0.267  -2.891  0.00  0.00    +0.210 HD
ENDBRANCH  10  15
BRANCH   8  17
ATOM     17  C   LIG A   1      -0.227  -1.995  -0.656  0.00  0.00    +0.019 C 
ATOM     18  C   LIG A   1      -1.133  -3.205  -0.943  0.00  0.00    +0.010 C 
BRANCH  17  19
ATOM     19  C   LIG A   1       1.189  -2.501  -0.309  0.00  0.00    +0.159 C 
BRANCH  19  20
ATOM     20  O   LIG A   1       1.707  -3.344  -1.335  0.00  0.00    -0.395 OA
ATOM     21  H   LIG A   1       1.722  -2.818  -2.153  0.00  0.00    +0.209 HD
ENDBRANCH  19  20
ENDBRANCH  17  19
ENDBRANCH   8  17
TORSDOF 5
