@<TRIPOS>MOLECULE
NuBBE_1706
 99 103 0 0 0
SMALL
GASTEIGER

@<TRIPOS>ATOM
      1 C           2.8960   -0.6702   -2.4008 C.3     1  LIG1       -0.0562
      2 C           3.8414   -1.0009   -1.2537 C.3     1  LIG1        0.0119
      3 C           3.6971   -2.4531   -0.7199 C.ar    1  LIG1        0.0588
      4 N           4.9695   -2.8994   -0.4429 N.ar    1  LIG1       -0.2588
      5 C           5.2123   -4.1956   -0.1714 C.ar    1  LIG1        0.0279
      6 C           4.2228   -5.1403   -0.0991 C.ar    1  LIG1       -0.0428
      7 C           2.9230   -4.7168   -0.3200 C.ar    1  LIG1       -0.0446
      8 C           2.5951   -3.3710   -0.6437 C.ar    1  LIG1        0.0805
      9 C           1.0780   -3.2779   -0.7464 C.2     1  LIG1        0.3410
     10 O           0.5179   -2.7020    0.3400 O.3     1  LIG1       -0.4582
     11 C          -0.7525   -2.9031    1.0553 C.3     1  LIG1        0.1219
     12 C          -1.3029   -1.5825    1.8188 C.3     1  LIG1        0.1114
     13 C          -1.5338   -2.0088    3.2892 C.3     1  LIG1       -0.0321
     14 O          -0.3598   -0.4930    1.8216 O.3     1  LIG1       -0.3557
     15 O           0.4554   -4.0139   -1.5263 O.2     1  LIG1       -0.2449
     16 C           4.4414    0.1409   -0.2177 C.3     1  LIG1        0.0616
     17 C           5.9485    0.3332   -0.5342 C.3     1  LIG1       -0.0517
     18 C           3.8957    1.6275   -0.1251 C.2     1  LIG1        0.3110
     19 O           3.0834    1.9429    0.9626 O.3     1  LIG1       -0.4554
     20 C           1.6361    2.2870    0.7360 C.3     1  LIG1        0.1633
     21 H           1.6408    3.3820    0.7063 H       1  LIG1        0.0792
     22 C           0.3777    1.8931    1.9553 C.3     1  LIG1        0.1356
     23 C          -0.1611    3.2090    2.5377 C.3     1  LIG1       -0.0296
     24 O           0.9127    1.3485    3.1852 O.3     1  LIG1       -0.3821
     25 C          -0.8604    0.8742    1.4387 C.3     1  LIG1        0.1548
     26 C          -2.2632    0.6348    1.9912 C.3     1  LIG1        0.1446
     27 O          -3.2163    1.6460    1.6588 O.3     1  LIG1       -0.4580
     28 C          -3.9776    2.1720    2.6426 C.2     1  LIG1        0.3043
     29 C          -4.7666    3.3480    2.1653 C.3     1  LIG1        0.0332
     30 O          -4.0132    1.7519    3.8028 O.2     1  LIG1       -0.2512
     31 C          -2.5174   -0.8376    1.3092 C.3     1  LIG1        0.0715
     32 H          -3.4640   -1.2413    1.6892 H       1  LIG1        0.0404
     33 C          -2.5630   -0.8949   -0.2544 C.3     1  LIG1        0.1496
     34 H          -3.5829   -1.1945   -0.4808 H       1  LIG1        0.0777
     35 O          -1.6923   -1.7417   -1.0251 O.3     1  LIG1       -0.4573
     36 C          -2.3152   -2.6534   -1.8446 C.2     1  LIG1        0.3043
     37 C          -1.5375   -2.8533   -3.1161 C.3     1  LIG1        0.0332
     38 O          -3.3743   -3.1786   -1.5925 O.2     1  LIG1       -0.2512
     39 C          -2.2487    0.4485   -0.8443 C.3     1  LIG1        0.1552
     40 H          -1.9756    0.3724   -1.9075 H       1  LIG1        0.0781
     41 O          -3.5355    1.1429   -0.7868 O.3     1  LIG1       -0.4569
     42 C          -4.3831    0.8330   -1.8037 C.2     1  LIG1        0.3043
     43 C          -5.6663    0.2137   -1.3041 C.3     1  LIG1        0.0332
     44 O          -4.1067    0.9720   -3.0005 O.2     1  LIG1       -0.2512
     45 C          -1.0150    1.1308   -0.0939 C.3     1  LIG1        0.1197
     46 C          -1.3195    2.6773   -0.4534 C.3     1  LIG1        0.1080
     47 O          -1.5868    2.9206   -1.8636 O.3     1  LIG1       -0.4639
     48 C          -1.4660    4.2352   -2.2572 C.2     1  LIG1        0.3040
     49 C          -2.1085    4.4729   -3.6001 C.3     1  LIG1        0.0332
     50 O          -1.0248    5.1300   -1.5692 O.2     1  LIG1       -0.2512
     51 C           0.3942    0.5844   -0.5649 C.3     1  LIG1        0.1474
     52 H           0.2450    0.1089   -1.5364 H       1  LIG1        0.0770
     53 O           1.2253   -0.5625    0.2904 O.3     1  LIG1       -0.4579
     54 C           2.0082   -0.7239    1.4382 C.2     1  LIG1        0.3043
     55 C           2.1323   -2.0185    2.2161 C.3     1  LIG1        0.0332
     56 O           2.6039    0.1643    2.0506 O.2     1  LIG1       -0.2512
     57 C           1.3374    1.7237   -0.6624 C.3     1  LIG1        0.1324
     58 H           2.1605    1.2230   -1.1219 H       1  LIG1        0.0669
     59 O           1.0662    2.7223   -1.6252 O.3     1  LIG1       -0.3843
     60 O           4.0721    2.4494   -1.0266 O.2     1  LIG1       -0.2505
     61 H           3.0739   -1.3533   -3.2429 H       1  LIG1        0.0236
     62 H           3.0553    0.3392   -2.7896 H       1  LIG1        0.0236
     63 H           1.8559   -0.8301   -2.1462 H       1  LIG1        0.0236
     64 H           4.7372   -1.1466   -1.8854 H       1  LIG1        0.0369
     65 H           6.2568   -4.4539   -0.0262 H       1  LIG1        0.0829
     66 H           4.4516   -6.1760    0.1226 H       1  LIG1        0.0633
     67 H           2.1270   -5.4616   -0.2387 H       1  LIG1        0.0627
     68 H          -0.4822   -3.6422    1.8179 H       1  LIG1        0.0727
     69 H          -1.5065   -3.4249    0.4617 H       1  LIG1        0.0727
     70 H          -0.6269   -2.4523    3.7115 H       1  LIG1        0.0259
     71 H          -2.3434   -2.7423    3.3634 H       1  LIG1        0.0259
     72 H          -1.7686   -1.1767    3.9573 H       1  LIG1        0.0259
     73 H           4.4499   -0.2837    0.7881 H       1  LIG1        0.0417
     74 H           6.0897    0.6999   -1.5582 H       1  LIG1        0.0238
     75 H           6.5023   -0.6050   -0.4296 H       1  LIG1        0.0238
     76 H           6.4038    1.0651    0.1420 H       1  LIG1        0.0238
     77 H          -0.5191    3.9393    1.8172 H       1  LIG1        0.0259
     78 H           0.6346    3.6931    3.1216 H       1  LIG1        0.0259
     79 H          -0.9603    3.0008    3.2586 H       1  LIG1        0.0259
     80 H           1.8423    1.0888    3.0073 H       1  LIG1        0.2104
     81 H          -2.2085    0.5387    3.0778 H       1  LIG1        0.0769
     82 H          -4.6086    3.5216    1.0967 H       1  LIG1        0.0342
     83 H          -4.4492    4.2482    2.7061 H       1  LIG1        0.0342
     84 H          -5.8341    3.1730    2.3301 H       1  LIG1        0.0342
     85 H          -0.5977   -2.2937   -3.0996 H       1  LIG1        0.0342
     86 H          -2.1374   -2.4787   -3.9488 H       1  LIG1        0.0342
     87 H          -1.3199   -3.9137   -3.2593 H       1  LIG1        0.0342
     88 H          -5.4708   -0.5359   -0.5305 H       1  LIG1        0.0342
     89 H          -6.1485   -0.3243   -2.1285 H       1  LIG1        0.0342
     90 H          -6.3429    0.9687   -0.9058 H       1  LIG1        0.0342
     91 H          -2.2305    3.0114    0.0527 H       1  LIG1        0.0706
     92 H          -0.5481    3.3589   -0.1051 H       1  LIG1        0.0706
     93 H          -2.0410    3.5904   -4.2400 H       1  LIG1        0.0342
     94 H          -1.6120    5.3073   -4.1065 H       1  LIG1        0.0342
     95 H          -3.1552    4.7419   -3.4391 H       1  LIG1        0.0342
     96 H           1.4802   -1.9659    3.0928 H       1  LIG1        0.0342
     97 H           3.1636   -2.0765    2.5901 H       1  LIG1        0.0342
     98 H           1.9942   -2.9725    1.7398 H       1  LIG1        0.0342
     99 H           1.8940    3.2362   -1.7399 H       1  LIG1        0.2101
@<TRIPOS>BOND
     1     2     3    1
     2     3     4   ar
     3     4     5   ar
     4     5     6   ar
     5     6     7   ar
     6     7     8   ar
     7     3     8   ar
     8     8     9    1
     9     9    10    1
    10    10    11    1
    11    11    12    1
    12    12    14    1
    13     2    16    1
    14    16    18    1
    15    18    19    1
    16    19    20    1
    17    20    22    1
    18    22    25    1
    19    14    25    1
    20    25    26    1
    21    27    28    1
    22    28    29    1
    23    28    30    2
    24    26    31    1
    25    12    31    1
    26    31    33    1
    27    35    36    1
    28    36    37    1
    29    36    38    2
    30    33    39    1
    31    41    42    1
    32    42    43    1
    33    42    44    2
    34    39    45    1
    35    46    47    1
    36    47    48    1
    37    48    49    1
    38    48    50    2
    39    25    45    1
    40    45    51    1
    41    53    54    1
    42    54    55    1
    43    54    56    2
    44    51    57    1
    45    20    57    1
    46     1     2    1
    47     9    15    2
    48    12    13    1
    49    16    17    1
    50    18    60    2
    51    20    21    1
    52    22    23    1
    53    22    24    1
    54    26    27    1
    55    31    32    1
    56    33    34    1
    57    33    35    1
    58    45    46    1
    59    39    41    1
    60    39    40    1
    61    51    53    1
    62    51    52    1
    63    57    59    1
    64    57    58    1
    65     1    61    1
    66     1    62    1
    67     1    63    1
    68     2    64    1
    69     5    65    1
    70     6    66    1
    71     7    67    1
    72    11    68    1
    73    11    69    1
    74    13    70    1
    75    13    71    1
    76    13    72    1
    77    16    73    1
    78    17    74    1
    79    17    75    1
    80    17    76    1
    81    23    77    1
    82    23    78    1
    83    23    79    1
    84    24    80    1
    85    26    81    1
    86    29    82    1
    87    29    83    1
    88    29    84    1
    89    37    85    1
    90    37    86    1
    91    37    87    1
    92    43    88    1
    93    43    89    1
    94    43    90    1
    95    46    91    1
    96    46    92    1
    97    49    93    1
    98    49    94    1
    99    49    95    1
   100    55    96    1
   101    55    97    1
   102    55    98    1
   103    59    99    1
