@<TRIPOS>MOLECULE
NuBBE_2478
 58 60 0 0 0
SMALL
GASTEIGER

@<TRIPOS>ATOM
      1 C          -2.2743   -0.7422   -3.1669 C.3     1  LIG1        0.0053
      2 C          -2.7435   -0.7681   -1.7270 C.2     1  LIG1       -0.0876
      3 C          -2.9674    0.3352   -1.0011 C.2     1  LIG1       -0.1025
      4 C          -0.7333   -0.7569   -3.3741 C.3     1  LIG1        0.1564
      5 O          -0.4801   -0.6656   -4.7865 O.3     1  LIG1       -0.3642
      6 C           0.8979   -0.7227   -5.1531 C.3     1  LIG1        0.0382
      7 C          -0.1344    0.4595   -2.7215 C.2     1  LIG1       -0.0375
      8 C           0.7533    0.3428   -1.7354 C.2     1  LIG1        0.0039
      9 C           1.1988   -0.9265   -1.2358 C.2     1  LIG1        0.1698
     10 C           0.7885   -2.1216   -1.6901 C.2     1  LIG1        0.2079
     11 C          -0.2432   -2.1204   -2.8035 C.2     1  LIG1        0.2366
     12 O          -0.6926   -3.1634   -3.2597 O.2     1  LIG1       -0.2852
     13 O           1.2331   -3.3055   -1.1052 O.2     1  LIG1       -0.4885
     14 C           1.3580   -4.4261   -1.9791 C.3     1  LIG1        0.0791
     15 O           2.0866   -0.7416   -0.1835 O.2     1  LIG1       -0.4796
     16 C           1.8885    0.6240    0.2747 C.3     1  LIG1        0.1322
     17 H           2.8635    0.9897    0.6227 H       1  LIG1        0.0790
     18 C           1.3997    1.4225   -0.9452 C.3     1  LIG1        0.0260
     19 H           0.6812    2.2071   -0.6798 H       1  LIG1        0.0387
     20 C           2.5513    2.0623   -1.7176 C.3     1  LIG1       -0.0546
     21 C           0.9432    0.6915    1.4712 C.ar    1  LIG1        0.0004
     22 C           0.3712   -0.4659    2.0085 C.ar    1  LIG1       -0.0094
     23 C          -0.5023   -0.4058    3.0957 C.ar    1  LIG1        0.1655
     24 O          -1.1215   -1.5263    3.6003 O.3     1  LIG1       -0.4913
     25 C          -1.4000   -2.5548    2.6480 C.3     1  LIG1        0.0790
     26 C          -0.7335    0.8274    3.7375 C.ar    1  LIG1        0.2035
     27 C          -0.1929    2.0128    3.1944 C.ar    1  LIG1        0.1655
     28 C           0.6352    1.9261    2.0652 C.ar    1  LIG1       -0.0094
     29 O          -0.5534    3.2224    3.7452 O.3     1  LIG1       -0.4913
     30 C           0.3182    4.3245    3.4866 C.3     1  LIG1        0.0790
     31 O          -1.5690    0.7927    4.8282 O.3     1  LIG1       -0.4885
     32 C          -1.0881    1.4564    5.9936 C.3     1  LIG1        0.0791
     33 H          -2.7031    0.1311   -3.6769 H       1  LIG1        0.0343
     34 H          -2.7251   -1.6029   -3.6806 H       1  LIG1        0.0343
     35 H          -2.9203   -1.7457   -1.2793 H       1  LIG1        0.0567
     36 H          -2.7934    1.3252   -1.4115 H       1  LIG1        0.0532
     37 H          -3.3156    0.2769    0.0260 H       1  LIG1        0.0532
     38 H           0.9612   -0.7184   -6.2440 H       1  LIG1        0.0524
     39 H           1.3805   -1.6339   -4.7870 H       1  LIG1        0.0524
     40 H           1.4370    0.1566   -4.7865 H       1  LIG1        0.0524
     41 H          -0.4577    1.4335   -3.0744 H       1  LIG1        0.0609
     42 H           1.7762   -5.2605   -1.4095 H       1  LIG1        0.0660
     43 H           2.0337   -4.2001   -2.8108 H       1  LIG1        0.0660
     44 H           0.3935   -4.7877   -2.3425 H       1  LIG1        0.0660
     45 H           3.0557    2.8133   -1.1005 H       1  LIG1        0.0237
     46 H           2.1813    2.5655   -2.6182 H       1  LIG1        0.0237
     47 H           3.2963    1.3223   -2.0289 H       1  LIG1        0.0237
     48 H           0.6223   -1.4259    1.5692 H       1  LIG1        0.0659
     49 H          -2.0820   -3.2727    3.1137 H       1  LIG1        0.0660
     50 H          -0.4899   -3.1010    2.3782 H       1  LIG1        0.0660
     51 H          -1.8956   -2.1579    1.7536 H       1  LIG1        0.0660
     52 H           1.0435    2.8251    1.6157 H       1  LIG1        0.0659
     53 H          -0.0133    5.1789    4.0849 H       1  LIG1        0.0660
     54 H           0.2773    4.6370    2.4369 H       1  LIG1        0.0660
     55 H           1.3462    4.0876    3.7831 H       1  LIG1        0.0660
     56 H          -0.8145    0.7126    6.7506 H       1  LIG1        0.0660
     57 H          -1.9120    2.0543    6.3941 H       1  LIG1        0.0660
     58 H          -0.2209    2.1034    5.8380 H       1  LIG1        0.0660
@<TRIPOS>BOND
     1     1     2    1
     2     2     3    2
     3     1     4    1
     4     4     5    1
     5     5     6    1
     6     4     7    1
     7     7     8    2
     8     8     9    1
     9     9    10    2
    10    10    11    1
    11     4    11    1
    12    11    12    2
    13    10    13    1
    14    13    14    1
    15     9    15    1
    16    15    16    1
    17    16    18    1
    18    18    19    1
    19     8    18    1
    20    18    20    1
    21    21    22   ar
    22    22    23   ar
    23    23    24    1
    24    24    25    1
    25    23    26   ar
    26    26    27   ar
    27    27    28   ar
    28    21    28   ar
    29    27    29    1
    30    29    30    1
    31    26    31    1
    32    31    32    1
    33    16    21    1
    34    16    17    1
    35     1    33    1
    36     1    34    1
    37     2    35    1
    38     3    36    1
    39     3    37    1
    40     6    38    1
    41     6    39    1
    42     6    40    1
    43     7    41    1
    44    14    42    1
    45    14    43    1
    46    14    44    1
    47    20    45    1
    48    20    46    1
    49    20    47    1
    50    22    48    1
    51    25    49    1
    52    25    50    1
    53    25    51    1
    54    28    52    1
    55    30    53    1
    56    30    54    1
    57    30    55    1
    58    32    56    1
    59    32    57    1
    60    32    58    1
