REMARK  Name = NuBBE_2288
REMARK  3 active torsions:
REMARK  status: ('A' for Active; 'I' for Inactive)
REMARK    1  A    between atoms: C_1  and  C_2
REMARK    2  A    between atoms: C_18  and  C_19
REMARK    3  A    between atoms: C_18  and  C_20
REMARK                            x       y       z     vdW  Elec       q    Type
REMARK                         _______ _______ _______ _____ _____    ______ ____
ROOT
ATOM      1  C   LIG A   1       1.185   2.811   0.049  0.00  0.00    +0.016 C 
ATOM      2  C   LIG A   1       0.800   1.370   0.503  0.00  0.00    -0.007 C 
ATOM      3  C   LIG A   1      -0.737   1.280   0.372  0.00  0.00    -0.054 C 
ATOM      4  C   LIG A   1      -1.607   1.404   1.399  0.00  0.00    +0.047 C 
ATOM      5  C   LIG A   1      -2.805   0.465   1.400  0.00  0.00    +0.163 C 
ATOM      6  O   LIG A   1      -3.611   0.536   2.261  0.00  0.00    -0.292 OA
ATOM      7  C   LIG A   1      -2.862  -0.594   0.246  0.00  0.00    +0.086 C 
ATOM      8  C   LIG A   1      -1.515  -0.752  -0.433  0.00  0.00    +0.027 C 
ATOM      9  C   LIG A   1      -1.259   0.664  -0.932  0.00  0.00    -0.003 C 
ATOM     10  C   LIG A   1      -2.679   1.124  -1.421  0.00  0.00    +0.042 C 
ATOM     11  C   LIG A   1      -3.550  -0.010  -0.938  0.00  0.00    -0.065 C 
ATOM     12  C   LIG A   1      -4.524  -0.624  -1.618  0.00  0.00    +0.008 C 
ATOM     13  C   LIG A   1      -0.281   0.798  -2.087  0.00  0.00    +0.012 C 
ATOM     14  C   LIG A   1       1.094   0.222  -1.813  0.00  0.00    +0.006 C 
ATOM     15  C   LIG A   1       1.532   0.186  -0.339  0.00  0.00    +0.005 C 
ATOM     16  C   LIG A   1       1.810  -1.362   0.247  0.00  0.00    -0.031 C 
ATOM     17  C   LIG A   1       2.784  -2.093  -0.737  0.00  0.00    +0.011 C 
ATOM     18  C   LIG A   1       0.768  -2.492   0.559  0.00  0.00    +0.011 C 
ATOM     19  C   LIG A   1       2.471  -1.200   1.605  0.00  0.00    +0.007 C 
ATOM     20  C   LIG A   1       2.087   0.081   2.304  0.00  0.00    +0.001 C 
ATOM     21  C   LIG A   1       1.321   1.325   1.929  0.00  0.00    +0.011 C 
ENDROOT
TORSDOF 0
