@<TRIPOS>MOLECULE
NuBBE_2149
 62 64 0 0 0
SMALL
GASTEIGER

@<TRIPOS>ATOM
      1 C          -4.4365    3.3302    0.0308 C.3     1  LIG1        0.0790
      2 O          -3.1293    2.9248   -0.3746 O.3     1  LIG1       -0.4913
      3 C          -2.7700    1.5961   -0.2189 C.ar    1  LIG1        0.1654
      4 C          -3.5590    0.5610    0.3471 C.ar    1  LIG1        0.2035
      5 O          -4.8524    0.9092    0.6124 O.3     1  LIG1       -0.4885
      6 C          -5.8381   -0.0449    0.9079 C.3     1  LIG1        0.0791
      7 C          -2.9890   -0.7154    0.4897 C.ar    1  LIG1        0.1654
      8 O          -3.5554   -1.8167    1.1003 O.3     1  LIG1       -0.4913
      9 C          -4.1054   -1.6845    2.4218 C.3     1  LIG1        0.0790
     10 C          -1.7521   -0.9914   -0.1530 C.ar    1  LIG1       -0.0125
     11 C          -0.9631    0.0100   -0.7613 C.ar    1  LIG1       -0.0336
     12 C           0.3778   -0.3215   -1.4808 C.3     1  LIG1        0.0264
     13 H           0.0414   -0.3949   -2.5141 H       1  LIG1        0.0385
     14 C           1.6024    0.7993   -1.4530 C.3     1  LIG1       -0.0211
     15 H           1.1332    1.6927   -1.0390 H       1  LIG1        0.0314
     16 C           2.1446    1.3021   -2.7892 C.3     1  LIG1       -0.0609
     17 C           2.6812    0.3389   -0.3641 C.3     1  LIG1        0.0410
     18 C           3.2513    1.5247    0.4143 C.3     1  LIG1       -0.0222
     19 C           2.3119    2.2386    1.3448 C.2     1  LIG1       -0.0902
     20 C           1.6231    3.3590    1.0881 C.2     1  LIG1       -0.1026
     21 C           1.6221   -0.5062    0.0552 C.2     1  LIG1        0.1748
     22 O           1.0304   -0.3286    1.1349 O.2     1  LIG1       -0.2936
     23 C           3.7212   -0.9368   -0.3895 C.3     1  LIG1       -0.0110
     24 C           3.1713   -2.3006    0.3790 C.3     1  LIG1        0.0882
     25 H           3.7532   -3.1269   -0.0544 H       1  LIG1        0.0623
     26 O           3.5194   -2.3805    1.7763 O.3     1  LIG1       -0.3771
     27 C           3.1345   -1.3514    2.6741 C.3     1  LIG1        0.0369
     28 C           1.6062   -2.6414    0.0133 C.3     1  LIG1        0.1176
     29 H           1.6400   -3.6187   -0.4967 H       1  LIG1        0.0653
     30 O           0.7432   -2.8945    1.1146 O.3     1  LIG1       -0.3859
     31 C           1.1716   -1.5615   -1.0278 C.3     1  LIG1        0.1621
     32 O           1.9841   -2.0566   -2.1211 O.3     1  LIG1       -0.3658
     33 C           1.7841   -1.7626   -3.4883 C.3     1  LIG1        0.0379
     34 C          -1.4844    1.3135   -0.7403 C.ar    1  LIG1       -0.0125
     35 H          -4.5528    3.2558    1.1192 H       1  LIG1        0.0660
     36 H          -5.2102    2.7753   -0.5108 H       1  LIG1        0.0660
     37 H          -4.5930    4.3782   -0.2405 H       1  LIG1        0.0660
     38 H          -6.7702    0.1033    0.3667 H       1  LIG1        0.0660
     39 H          -6.0667    0.0924    1.9713 H       1  LIG1        0.0660
     40 H          -5.5526   -1.0498    0.6111 H       1  LIG1        0.0660
     41 H          -3.6290   -0.9080    3.0238 H       1  LIG1        0.0660
     42 H          -4.0760   -2.6662    2.8971 H       1  LIG1        0.0660
     43 H          -5.1844   -1.5255    2.4441 H       1  LIG1        0.0660
     44 H          -1.4168   -2.0278   -0.1640 H       1  LIG1        0.0658
     45 H           3.1138    0.8687   -3.0478 H       1  LIG1        0.0233
     46 H           2.3080    2.3860   -2.7408 H       1  LIG1        0.0233
     47 H           1.4306    1.1408   -3.6058 H       1  LIG1        0.0233
     48 H           4.1099    1.2084    1.0156 H       1  LIG1        0.0317
     49 H           3.6817    2.2403   -0.2986 H       1  LIG1        0.0317
     50 H           2.1954    1.7952    2.3318 H       1  LIG1        0.0567
     51 H           1.6635    3.8719    0.1340 H       1  LIG1        0.0532
     52 H           0.9614    3.7748    1.8449 H       1  LIG1        0.0532
     53 H           4.6680   -0.6700    0.0954 H       1  LIG1        0.0301
     54 H           4.0126   -1.2040   -1.4190 H       1  LIG1        0.0301
     55 H           2.0655   -1.3558    2.8813 H       1  LIG1        0.0524
     56 H           3.4702   -0.3761    2.3308 H       1  LIG1        0.0524
     57 H           3.6036   -1.5202    3.6486 H       1  LIG1        0.0524
     58 H           0.7472   -2.0976    1.6785 H       1  LIG1        0.2100
     59 H           2.2021   -2.5659   -4.1026 H       1  LIG1        0.0524
     60 H           2.3822   -0.8944   -3.7432 H       1  LIG1        0.0524
     61 H           0.7446   -1.6362   -3.7918 H       1  LIG1        0.0524
     62 H          -0.9222    2.1415   -1.1679 H       1  LIG1        0.0658
@<TRIPOS>BOND
     1     1     2    1
     2     2     3    1
     3     3     4   ar
     4     4     5    1
     5     5     6    1
     6     4     7   ar
     7     7     8    1
     8     8     9    1
     9     7    10   ar
    10    10    11   ar
    11    12    14    1
    12    14    17    1
    13    18    19    1
    14    19    20    2
    15    17    21    1
    16    17    23    1
    17    23    24    1
    18    26    27    1
    19    24    28    1
    20    28    31    1
    21    21    31    1
    22    12    31    1
    23    32    33    1
    24    11    34   ar
    25     3    34   ar
    26    11    12    1
    27    12    13    1
    28    14    15    1
    29    14    16    1
    30    17    18    1
    31    21    22    2
    32    31    32    1
    33    24    26    1
    34    24    25    1
    35    28    30    1
    36    28    29    1
    37     1    35    1
    38     1    36    1
    39     1    37    1
    40     6    38    1
    41     6    39    1
    42     6    40    1
    43     9    41    1
    44     9    42    1
    45     9    43    1
    46    10    44    1
    47    16    45    1
    48    16    46    1
    49    16    47    1
    50    18    48    1
    51    18    49    1
    52    19    50    1
    53    20    51    1
    54    20    52    1
    55    23    53    1
    56    23    54    1
    57    27    55    1
    58    27    56    1
    59    27    57    1
    60    30    58    1
    61    33    59    1
    62    33    60    1
    63    33    61    1
    64    34    62    1
