REMARK  Name = NuBBE_1457
REMARK  6 active torsions:
REMARK  status: ('A' for Active; 'I' for Inactive)
REMARK    1  A    between atoms: C_10  and  C_11
REMARK    2  A    between atoms: C_10  and  C_13
REMARK    3  A    between atoms: C_20  and  O_21
REMARK    4  A    between atoms: O_21  and  C_22
REMARK    5  A    between atoms: C_23  and  O_28
REMARK    6  A    between atoms: O_28  and  C_29
REMARK                            x       y       z     vdW  Elec       q    Type
REMARK                         _______ _______ _______ _____ _____    ______ ____
ROOT
ATOM      1  O   LIG A   1       0.237  -2.554   0.627  0.00  0.00    -0.286 OA
ATOM      2  C   LIG A   1      -0.008  -1.462   0.128  0.00  0.00    +0.201 A 
ATOM      3  C   LIG A   1      -1.382  -0.933   0.169  0.00  0.00    +0.065 A 
ATOM      4  C   LIG A   1      -2.382  -1.626   0.859  0.00  0.00    +0.019 A 
ATOM      5  C   LIG A   1      -3.663  -1.084   0.945  0.00  0.00    +0.047 A 
ATOM      6  C   LIG A   1      -3.938   0.149   0.353  0.00  0.00    +0.132 A 
ATOM      7  C   LIG A   1      -2.953   0.832  -0.372  0.00  0.00    +0.059 A 
ATOM      8  C   LIG A   1      -3.306   2.098  -1.010  0.00  0.00    +0.015 C 
ATOM      9  C   LIG A   1      -4.476   2.658  -0.689  0.00  0.00    +0.020 C 
ATOM     10  C   LIG A   1      -5.441   2.023   0.287  0.00  0.00    +0.123 C 
ATOM     11  C   LIG A   1      -6.868   2.135  -0.262  0.00  0.00    +0.060 C 
ATOM     12  O   LIG A   1      -5.216   0.615   0.510  0.00  0.00    -0.481 OA
ATOM     13  C   LIG A   1      -5.357   2.734   1.644  0.00  0.00    +0.060 C 
ATOM     14  C   LIG A   1      -1.665   0.279  -0.460  0.00  0.00    +0.150 A 
ATOM     15  O   LIG A   1      -0.707   0.965  -1.163  0.00  0.00    -0.455 OA
ATOM     16  C   LIG A   1       0.604   0.535  -1.097  0.00  0.00    +0.154 A 
ATOM     17  C   LIG A   1       1.024  -0.596  -0.503  0.00  0.00    +0.074 A 
ATOM     18  C   LIG A   1       2.478  -0.846  -0.495  0.00  0.00    +0.035 A 
ATOM     19  C   LIG A   1       3.055  -2.074  -0.142  0.00  0.00    +0.061 A 
ATOM     20  C   LIG A   1       4.447  -2.222  -0.043  0.00  0.00    +0.162 A 
ATOM     21  C   LIG A   1       5.287  -1.133  -0.323  0.00  0.00    +0.165 A 
ATOM     22  C   LIG A   1       4.727   0.082  -0.717  0.00  0.00    +0.095 A 
ATOM     23  C   LIG A   1       3.340   0.216  -0.808  0.00  0.00    +0.133 A 
ATOM     24  O   LIG A   1       2.888   1.459  -1.170  0.00  0.00    -0.484 OA
ATOM     25  C   LIG A   1       1.579   1.472  -1.749  0.00  0.00    +0.303 C 
ENDROOT
BRANCH  20  26
ATOM     26  O   LIG A   1       5.064  -3.397   0.311  0.00  0.00    -0.491 OA
ATOM     27  C   LIG A   1       4.302  -4.292   1.112  0.00  0.00    +0.277 C 
ENDBRANCH  20  26
BRANCH  21  28
ATOM     28  O   LIG A   1       6.639  -1.345  -0.215  0.00  0.00    -0.491 OA
ATOM     29  C   LIG A   1       7.416  -0.208   0.143  0.00  0.00    +0.277 C 
ENDBRANCH  21  28
TORSDOF 2
