@<TRIPOS>MOLECULE
NuBBE_1812
 23 24 0 0 0
SMALL
GASTEIGER

@<TRIPOS>ATOM
      1 C          -1.6820   -0.0223   -0.1138 C.2     1  LIG1       -0.0563
      2 C          -2.3931   -1.0218    0.4311 C.2     1  LIG1       -0.0584
      3 C          -3.8798   -1.1313    0.3647 C.3     1  LIG1        0.0627
      4 O          -4.2045   -2.3402   -0.3024 O.3     1  LIG1       -0.3910
      5 C          -0.2139    0.0730   -0.0619 C.ar    1  LIG1       -0.0216
      6 C           0.3843    1.3423   -0.0734 C.ar    1  LIG1       -0.0090
      7 C           1.7629    1.4163   -0.0582 C.ar    1  LIG1        0.1668
      8 C           2.5502    0.2902   -0.0410 C.ar    1  LIG1        0.1663
      9 C           2.0045   -0.9728   -0.0446 C.ar    1  LIG1       -0.0156
     10 C           0.6091   -1.0773   -0.0627 C.ar    1  LIG1       -0.0509
     11 O           3.8776    0.5820   -0.0297 O.3     1  LIG1       -0.4526
     12 C           3.8375    2.0237   -0.0426 C.3     1  LIG1        0.2332
     13 O           2.4981    2.5610   -0.0617 O.3     1  LIG1       -0.4526
     14 H          -2.1912    0.7910   -0.6277 H       1  LIG1        0.0621
     15 H          -1.9003   -1.8230    0.9768 H       1  LIG1        0.0595
     16 H          -4.3420   -0.2987   -0.1745 H       1  LIG1        0.0601
     17 H          -4.3025   -1.1681    1.3732 H       1  LIG1        0.0601
     18 H          -3.7337   -2.3268   -1.1534 H       1  LIG1        0.2098
     19 H          -0.2064    2.2526   -0.0883 H       1  LIG1        0.0661
     20 H           2.6336   -1.8552   -0.0406 H       1  LIG1        0.0655
     21 H           0.1676   -2.0712   -0.0885 H       1  LIG1        0.0625
     22 H           4.3713    2.3802   -0.9312 H       1  LIG1        0.1166
     23 H           4.3528    2.3965    0.8501 H       1  LIG1        0.1166
@<TRIPOS>BOND
     1     1     2    2
     2     2     3    1
     3     3     4    1
     4     1     5    1
     5     5     6   ar
     6     6     7   ar
     7     7     8   ar
     8     8     9   ar
     9     9    10   ar
    10     5    10   ar
    11     8    11    1
    12    11    12    1
    13    12    13    1
    14     7    13    1
    15     1    14    1
    16     2    15    1
    17     3    16    1
    18     3    17    1
    19     4    18    1
    20     6    19    1
    21     9    20    1
    22    10    21    1
    23    12    22    1
    24    12    23    1
