@<TRIPOS>MOLECULE
NuBBE_1771
 34 37 0 0 0
SMALL
GASTEIGER

@<TRIPOS>ATOM
      1 O          -3.5007   -0.8906   -0.4697 O.2     1  LIG1       -0.2890
      2 C          -2.2755   -0.8825   -0.3759 C.2     1  LIG1        0.1991
      3 C          -1.4769    0.3771   -0.1611 C.3     1  LIG1        0.1622
      4 H          -2.1324    1.1122    0.3257 H       1  LIG1        0.0721
      5 C          -0.2866    0.0302    0.7325 C.3     1  LIG1        0.1588
      6 H          -0.6366   -0.3138    1.7160 H       1  LIG1        0.0816
      7 C           0.5566    1.2793    0.9103 C.ar    1  LIG1        0.0047
      8 C           0.5063    2.3067   -0.0643 C.ar    1  LIG1        0.0299
      9 C          -0.4043    2.1671   -1.2636 C.3     1  LIG1        0.0777
     10 O          -1.0199    0.8863   -1.4132 O.3     1  LIG1       -0.3599
     11 C           1.2585    3.4669    0.1560 C.ar    1  LIG1        0.1641
     12 O           1.2741    4.5431   -0.6936 O.3     1  LIG1       -0.5031
     13 C           2.0390    3.5972    1.3069 C.ar    1  LIG1        0.1586
     14 C           2.1034    2.5869    2.2525 C.ar    1  LIG1       -0.0161
     15 C           1.3677    1.4212    2.0508 C.ar    1  LIG1       -0.0510
     16 O           2.7516    4.7447    1.5178 O.3     1  LIG1       -0.5033
     17 O           0.5521   -0.9887    0.1623 O.3     1  LIG1       -0.4803
     18 C          -0.1333   -2.1097   -0.2298 C.ar    1  LIG1        0.1355
     19 C          -1.5057   -2.1341   -0.4834 C.ar    1  LIG1        0.0620
     20 C          -2.1442   -3.3211   -0.8621 C.ar    1  LIG1       -0.0442
     21 C          -1.3987   -4.4907   -1.0091 C.ar    1  LIG1       -0.0193
     22 C          -0.0253   -4.4552   -0.7811 C.ar    1  LIG1        0.1204
     23 C           0.6123   -3.2757   -0.3975 C.ar    1  LIG1        0.0223
     24 O           0.7401   -5.5748   -0.9226 O.3     1  LIG1       -0.5066
     25 H           0.1653    2.3467   -2.1814 H       1  LIG1        0.0611
     26 H          -1.2015    2.9168   -1.2006 H       1  LIG1        0.0611
     27 H           0.7837    4.3379   -1.5051 H       1  LIG1        0.2923
     28 H           2.7161    2.7105    3.1404 H       1  LIG1        0.0655
     29 H           1.4179    0.6283    2.7945 H       1  LIG1        0.0623
     30 H           2.5551    5.3008    0.7378 H       1  LIG1        0.2923
     31 H          -3.2153   -3.3322   -1.0545 H       1  LIG1        0.0627
     32 H          -1.9001   -5.4063   -1.3074 H       1  LIG1        0.0654
     33 H           1.6849   -3.2719   -0.2263 H       1  LIG1        0.0691
     34 H           0.1725   -6.3126   -1.2014 H       1  LIG1        0.2921
@<TRIPOS>BOND
     1     1     2    2
     2     2     3    1
     3     3     4    1
     4     3     5    1
     5     5     6    1
     6     5     7    1
     7     7     8   ar
     8     8     9    1
     9     9    10    1
    10     3    10    1
    11     8    11   ar
    12    11    12    1
    13    11    13   ar
    14    13    14   ar
    15    14    15   ar
    16     7    15   ar
    17    13    16    1
    18     5    17    1
    19    17    18    1
    20    18    19   ar
    21     2    19    1
    22    19    20   ar
    23    20    21   ar
    24    21    22   ar
    25    22    23   ar
    26    18    23   ar
    27    22    24    1
    28     9    25    1
    29     9    26    1
    30    12    27    1
    31    14    28    1
    32    15    29    1
    33    16    30    1
    34    20    31    1
    35    21    32    1
    36    23    33    1
    37    24    34    1
