@<TRIPOS>MOLECULE
NuBBE_1292
 64 69 0 0 0
SMALL
GASTEIGER

@<TRIPOS>ATOM
      1 C          -4.3217   -1.8696    1.8434 C.3     1  LIG1       -0.0454
      2 C          -2.8277   -2.1544    2.0375 C.3     1  LIG1        0.0905
      3 C          -1.7978   -1.3279    1.2885 C.3     1  LIG1        0.0303
      4 C          -1.7250    0.1698    1.5405 C.3     1  LIG1        0.0419
      5 C          -2.9841    0.9591    1.1127 C.3     1  LIG1       -0.0518
      6 C          -0.4364    0.6934    0.7550 C.3     1  LIG1       -0.0065
      7 H          -0.4586    1.7915    0.7860 H       1  LIG1        0.0325
      8 C           0.9228    0.2950    1.4347 C.3     1  LIG1        0.0495
      9 C           1.2118    0.8301    2.8310 C.2     1  LIG1        0.3071
     10 O           1.7246    2.0927    2.7396 O.3     1  LIG1       -0.4679
     11 C           1.9277    2.7489    3.9980 C.3     1  LIG1        0.0817
     12 O           1.0359    0.1917    3.8642 O.2     1  LIG1       -0.2509
     13 C          -0.4802    0.2499   -0.8144 C.3     1  LIG1        0.0255
     14 C           0.8669    0.1766   -1.4947 C.2     1  LIG1       -0.0328
     15 C           1.8944    0.9909   -1.7663 C.2     1  LIG1       -0.0628
     16 C           1.9976    2.4569   -1.5435 C.3     1  LIG1       -0.0429
     17 C           3.0910    0.1731   -2.2401 C.3     1  LIG1        0.0109
     18 H           3.9925    0.4578   -1.6822 H       1  LIG1        0.0396
     19 C           3.3498    0.3384   -3.7119 C.ar    1  LIG1       -0.0025
     20 C           4.1790    1.2802   -4.2966 C.ar    1  LIG1        0.0954
     21 O           4.1898    1.1556   -5.6476 O.2     1  LIG1       -0.4707
     22 C           3.3655    0.1253   -5.9541 C.ar    1  LIG1        0.0920
     23 C           2.8254   -0.4095   -4.8092 C.ar    1  LIG1       -0.0202
     24 C           2.6867   -1.2627   -1.8009 C.3     1  LIG1       -0.0121
     25 C           1.1728   -1.2334   -1.8696 C.3     1  LIG1        0.0819
     26 O           0.3857   -1.9696   -0.9353 O.3     1  LIG1       -0.3645
     27 C          -1.3964    1.1551   -1.6515 C.3     1  LIG1       -0.0530
     28 C          -0.8801   -1.2621   -1.0331 C.3     1  LIG1        0.1059
     29 H          -1.2435   -1.4293   -2.0598 H       1  LIG1        0.0642
     30 C          -1.9885   -1.7699   -0.1209 C.3     1  LIG1        0.1349
     31 H          -2.9372   -1.4206   -0.5430 H       1  LIG1        0.0764
     32 O          -2.0908   -3.1945    0.0220 O.3     1  LIG1       -0.4577
     33 C          -2.5332   -3.4771    1.3099 C.2     1  LIG1        0.3176
     34 O          -2.7193   -4.6006    1.7444 O.2     1  LIG1       -0.2499
     35 C          -2.4815   -1.9829    3.4889 C.2     1  LIG1       -0.0639
     36 C          -1.9734   -0.8308    3.9652 C.2     1  LIG1       -0.0215
     37 C          -1.7018    0.3558    3.0756 C.2     1  LIG1        0.1624
     38 O          -1.5509    1.4662    3.5799 O.2     1  LIG1       -0.2921
     39 H          -4.6182   -1.8263    0.7916 H       1  LIG1        0.0243
     40 H          -4.6385   -0.9358    2.3202 H       1  LIG1        0.0243
     41 H          -4.9233   -2.6677    2.2993 H       1  LIG1        0.0243
     42 H          -0.8196   -1.7392    1.5982 H       1  LIG1        0.0361
     43 H          -2.7343    2.0043    0.8960 H       1  LIG1        0.0239
     44 H          -3.7366    1.0029    1.9090 H       1  LIG1        0.0239
     45 H          -3.4864    0.5414    0.2404 H       1  LIG1        0.0239
     46 H           1.0722   -0.7877    1.4596 H       1  LIG1        0.0381
     47 H           1.7580    0.6763    0.8398 H       1  LIG1        0.0381
     48 H           0.9489    3.0241    4.4166 H       1  LIG1        0.0661
     49 H           2.4923    3.6628    3.8103 H       1  LIG1        0.0661
     50 H           2.4891    2.1312    4.7015 H       1  LIG1        0.0661
     51 H           1.1046    2.8558   -1.0540 H       1  LIG1        0.0275
     52 H           2.1154    2.9783   -2.4983 H       1  LIG1        0.0275
     53 H           2.8576    2.6913   -0.9094 H       1  LIG1        0.0275
     54 H           4.8003    2.0742   -3.9050 H       1  LIG1        0.1032
     55 H           3.2691   -0.1046   -7.0062 H       1  LIG1        0.1029
     56 H           2.1406   -1.2442   -4.7801 H       1  LIG1        0.0652
     57 H           3.0240   -1.4724   -0.7781 H       1  LIG1        0.0302
     58 H           3.1093   -2.0440   -2.4430 H       1  LIG1        0.0302
     59 H           0.8237   -1.4598   -2.8858 H       1  LIG1        0.0644
     60 H          -1.2416    2.2119   -1.4087 H       1  LIG1        0.0239
     61 H          -2.4533    0.9234   -1.5152 H       1  LIG1        0.0239
     62 H          -1.2029    1.0411   -2.7255 H       1  LIG1        0.0239
     63 H          -2.6913   -2.8113    4.1685 H       1  LIG1        0.0584
     64 H          -1.7512   -0.6855    5.0158 H       1  LIG1        0.0650
@<TRIPOS>BOND
     1     1     2    1
     2     2     3    1
     3     3     4    1
     4     4     5    1
     5     4     6    1
     6     8     9    1
     7     9    10    1
     8    10    11    1
     9     9    12    2
    10     6    13    1
    11    13    14    1
    12    14    15    2
    13    15    16    1
    14    15    17    1
    15    17    18    1
    16    17    19    1
    17    19    20   ar
    18    20    21   ar
    19    21    22   ar
    20    22    23   ar
    21    19    23   ar
    22    17    24    1
    23    24    25    1
    24    14    25    1
    25    25    26    1
    26    13    27    1
    27    13    28    1
    28    28    29    1
    29    26    28    1
    30    28    30    1
    31    30    31    1
    32     3    30    1
    33    30    32    1
    34    32    33    1
    35     2    33    1
    36    33    34    2
    37     2    35    1
    38    35    36    2
    39    36    37    1
    40     4    37    1
    41    37    38    2
    42     6     8    1
    43     6     7    1
    44     1    39    1
    45     1    40    1
    46     1    41    1
    47     3    42    1
    48     5    43    1
    49     5    44    1
    50     5    45    1
    51     8    46    1
    52     8    47    1
    53    11    48    1
    54    11    49    1
    55    11    50    1
    56    16    51    1
    57    16    52    1
    58    16    53    1
    59    20    54    1
    60    22    55    1
    61    23    56    1
    62    24    57    1
    63    24    58    1
    64    25    59    1
    65    27    60    1
    66    27    61    1
    67    27    62    1
    68    35    63    1
    69    36    64    1
