@<TRIPOS>MOLECULE
NuBBE_2200
 56 58 0 0 0
SMALL
GASTEIGER

@<TRIPOS>ATOM
      1 C          -1.8751   -0.4689    1.4503 C.3     1  LIG1       -0.0551
      2 C          -0.5069    0.2047    1.2007 C.3     1  LIG1        0.0004
      3 C          -0.6050    1.7735    1.1636 C.3     1  LIG1       -0.0194
      4 C          -1.2975    2.2503   -0.1131 C.3     1  LIG1        0.0143
      5 C          -0.4417    1.8369   -1.2845 C.2     1  LIG1        0.1599
      6 C           0.1963    0.4836   -1.2469 C.2     1  LIG1        0.0031
      7 C           0.9586    0.1059   -2.4903 C.3     1  LIG1       -0.0113
      8 C           1.7962   -1.1902   -2.3336 C.3     1  LIG1        0.0341
      9 C           3.0670   -0.9214   -1.5104 C.2     1  LIG1       -0.0810
     10 C           3.6944   -1.7897   -0.7015 C.2     1  LIG1       -0.1020
     11 C           2.2410   -1.6300   -3.7426 C.3     1  LIG1       -0.0520
     12 C           0.8839   -2.2499   -1.6774 C.3     1  LIG1        0.1737
     13 H           1.4312   -3.1864   -1.5242 H       1  LIG1        0.0827
     14 O          -0.3237   -2.4566   -2.4357 O.3     1  LIG1       -0.4526
     15 C          -0.5218   -3.7094   -2.9219 C.2     1  LIG1        0.3046
     16 C          -1.8646   -3.7945   -3.5753 C.3     1  LIG1        0.0333
     17 O           0.2759   -4.6376   -2.8592 O.2     1  LIG1       -0.2511
     18 C           0.0389   -0.2932   -0.1551 C.2     1  LIG1        0.0115
     19 C           0.4271   -1.7482   -0.3053 C.2     1  LIG1        0.2012
     20 O           0.2972   -2.5316    0.6357 O.2     1  LIG1       -0.2884
     21 O          -0.3275    2.5505   -2.2786 O.2     1  LIG1       -0.2924
     22 H           0.4399    2.1129    1.0483 H       1  LIG1        0.0319
     23 C          -1.1007    2.4610    2.4821 C.3     1  LIG1       -0.0309
     24 C          -0.5677    3.9192    2.5056 C.3     1  LIG1       -0.0595
     25 C          -2.6338    2.5657    2.6108 C.3     1  LIG1       -0.0595
     26 C          -0.5333    1.7112    3.7172 C.3     1  LIG1       -0.0476
     27 C           0.7309    0.9244    3.3913 C.3     1  LIG1       -0.0518
     28 C           0.4802   -0.1774    2.3537 C.3     1  LIG1       -0.0432
     29 H          -2.6427   -0.1186    0.7539 H       1  LIG1        0.0238
     30 H          -2.2315   -0.2981    2.4687 H       1  LIG1        0.0238
     31 H          -1.8293   -1.5576    1.3422 H       1  LIG1        0.0238
     32 H          -1.3747    3.3414   -0.1352 H       1  LIG1        0.0348
     33 H          -2.3021    1.8377   -0.2416 H       1  LIG1        0.0348
     34 H           1.6289    0.9314   -2.7691 H       1  LIG1        0.0324
     35 H           0.2399    0.0025   -3.3142 H       1  LIG1        0.0324
     36 H           3.4989    0.0767   -1.5930 H       1  LIG1        0.0573
     37 H           3.3721   -2.8181   -0.5627 H       1  LIG1        0.0532
     38 H           4.5818   -1.4944   -0.1481 H       1  LIG1        0.0532
     39 H           2.9422   -0.9087   -4.1813 H       1  LIG1        0.0239
     40 H           1.3905   -1.7100   -4.4292 H       1  LIG1        0.0239
     41 H           2.7393   -2.6055   -3.7195 H       1  LIG1        0.0239
     42 H          -2.0434   -4.8210   -3.9071 H       1  LIG1        0.0342
     43 H          -1.8978   -3.1304   -4.4401 H       1  LIG1        0.0342
     44 H          -2.6418   -3.5265   -2.8523 H       1  LIG1        0.0342
     45 H          -0.9945    4.5191    1.6947 H       1  LIG1        0.0235
     46 H           0.5227    3.9514    2.4074 H       1  LIG1        0.0235
     47 H          -0.8290    4.4222    3.4439 H       1  LIG1        0.0235
     48 H          -3.0785    3.1051    1.7685 H       1  LIG1        0.0235
     49 H          -2.9068    3.1107    3.5229 H       1  LIG1        0.0235
     50 H          -3.1224    1.5923    2.6730 H       1  LIG1        0.0235
     51 H          -1.2767    1.0154    4.1241 H       1  LIG1        0.0271
     52 H          -0.3142    2.4177    4.5278 H       1  LIG1        0.0271
     53 H           1.1355    0.4727    4.3044 H       1  LIG1        0.0266
     54 H           1.5075    1.6068    3.0227 H       1  LIG1        0.0266
     55 H           0.1052   -1.0640    2.8822 H       1  LIG1        0.0274
     56 H           1.4614   -0.4649    1.9534 H       1  LIG1        0.0274
@<TRIPOS>BOND
     1     1     2    1
     2     2     3    1
     3     3     4    1
     4     4     5    1
     5     5     6    1
     6     6     7    1
     7     7     8    1
     8     8     9    1
     9     9    10    2
    10     8    11    1
    11     8    12    1
    12    12    13    1
    13    12    14    1
    14    14    15    1
    15    15    16    1
    16    15    17    2
    17     6    18    2
    18     2    18    1
    19    18    19    1
    20    12    19    1
    21    19    20    2
    22     5    21    2
    23     3    22    1
    24     3    23    1
    25    23    24    1
    26    23    25    1
    27    23    26    1
    28    26    27    1
    29    27    28    1
    30     2    28    1
    31     1    29    1
    32     1    30    1
    33     1    31    1
    34     4    32    1
    35     4    33    1
    36     7    34    1
    37     7    35    1
    38     9    36    1
    39    10    37    1
    40    10    38    1
    41    11    39    1
    42    11    40    1
    43    11    41    1
    44    16    42    1
    45    16    43    1
    46    16    44    1
    47    24    45    1
    48    24    46    1
    49    24    47    1
    50    25    48    1
    51    25    49    1
    52    25    50    1
    53    26    51    1
    54    26    52    1
    55    27    53    1
    56    27    54    1
    57    28    55    1
    58    28    56    1
