REMARK  Name = NuBBE_1278
REMARK  6 active torsions:
REMARK  status: ('A' for Active; 'I' for Inactive)
REMARK    1  A    between atoms: C_1  and  C_2
REMARK    2  A    between atoms: C_6  and  C_7
REMARK    3  A    between atoms: C_11  and  C_13
REMARK    4  A    between atoms: C_13  and  C_14
REMARK    5  A    between atoms: C_13  and  O_15
REMARK    6  A    between atoms: C_13  and  C_16
REMARK                            x       y       z     vdW  Elec       q    Type
REMARK                         _______ _______ _______ _____ _____    ______ ____
ROOT
ATOM      1  C   LIG A   1      -0.817   0.818   3.193  0.00  0.00    +0.039 C 
ATOM      2  C   LIG A   1       0.155   1.343   2.173  0.00  0.00    -0.073 C 
ATOM      3  C   LIG A   1       1.114   2.220   2.532  0.00  0.00    -0.027 C 
ATOM      4  C   LIG A   1       2.094   2.845   1.580  0.00  0.00    +0.028 C 
ATOM      5  C   LIG A   1       1.812   2.533   0.107  0.00  0.00    +0.011 C 
ATOM      6  C   LIG A   1       1.295   1.091  -0.108  0.00  0.00    -0.025 C 
ATOM      7  C   LIG A   1       2.403   0.089   0.309  0.00  0.00    +0.012 C 
ATOM      8  C   LIG A   1      -0.018   0.925   0.715  0.00  0.00    +0.021 C 
ATOM      9  C   LIG A   1      -0.635  -0.471   0.488  0.00  0.00    +0.014 C 
ATOM     10  C   LIG A   1      -0.941  -0.744  -1.008  0.00  0.00    +0.021 C 
ATOM     11  C   LIG A   1       0.301  -0.471  -1.884  0.00  0.00    +0.007 C 
ATOM     12  C   LIG A   1       0.958   0.882  -1.599  0.00  0.00    +0.007 C 
ENDROOT
BRANCH  10  13
ATOM     13  C   LIG A   1      -1.546  -2.169  -1.239  0.00  0.00    +0.063 C 
ATOM     14  C   LIG A   1      -1.823  -2.452  -2.723  0.00  0.00    +0.041 C 
ATOM     15  C   LIG A   1      -2.855  -2.362  -0.460  0.00  0.00    +0.041 C 
BRANCH  13  16
ATOM     16  O   LIG A   1      -0.641  -3.169  -0.761  0.00  0.00    -0.389 OA
ATOM     17  H   LIG A   1       0.141  -3.176  -1.336  0.00  0.00    +0.210 HD
ENDBRANCH  13  16
ENDBRANCH  10  13
TORSDOF 2
