REMARK  Name = NuBBE_1730
REMARK  14 active torsions:
REMARK  status: ('A' for Active; 'I' for Inactive)
REMARK    1  A    between atoms: C_1  and  C_2
REMARK    2  A    between atoms: C_5  and  C_6
REMARK    3  A    between atoms: C_11  and  C_12
REMARK    4  A    between atoms: C_11  and  C_13
REMARK    5  A    between atoms: C_14  and  O_18
REMARK    6  A    between atoms: O_18  and  C_19
REMARK    7  A    between atoms: C_19  and  C_21
REMARK    8  A    between atoms: C_26  and  C_27
REMARK    9  A    between atoms: C_30  and  C_32
REMARK   10  A    between atoms: C_32  and  C_33
REMARK   11  A    between atoms: C_35  and  C_39
REMARK   12  A    between atoms: C_39  and  C_40
REMARK   13  A    between atoms: C_39  and  C_41
REMARK   14  A    between atoms: C_39  and  O_42
REMARK                            x       y       z     vdW  Elec       q    Type
REMARK                         _______ _______ _______ _____ _____    ______ ____
ROOT
ATOM      1  C   LIG A   1      -1.533  -0.160   0.013  0.00  0.00    +0.012 C 
ATOM      2  C   LIG A   1      -0.383  -0.635  -0.930  0.00  0.00    -0.023 C 
ATOM      3  C   LIG A   1       0.778  -1.347  -0.144  0.00  0.00    +0.002 C 
ATOM      4  C   LIG A   1       0.392  -2.703   0.590  0.00  0.00    -0.025 C 
ATOM      5  C   LIG A   1      -0.523  -2.431   1.805  0.00  0.00    +0.012 C 
ATOM      6  C   LIG A   1      -0.237  -3.669  -0.485  0.00  0.00    +0.004 C 
ATOM      7  C   LIG A   1      -1.399  -3.002  -1.253  0.00  0.00    +0.005 C 
ATOM      8  C   LIG A   1      -0.989  -1.678  -1.911  0.00  0.00    +0.008 C 
ATOM      9  C   LIG A   1      -0.556  -5.125   0.017  0.00  0.00    +0.005 C 
ATOM     10  C   LIG A   1      -1.878  -5.219   0.818  0.00  0.00    +0.015 C 
ATOM     11  C   LIG A   1      -0.769  -6.058  -1.215  0.00  0.00    +0.015 C 
ATOM     12  C   LIG A   1       0.661  -5.726   0.800  0.00  0.00    +0.182 C 
ATOM     13  C   LIG A   1       1.422  -4.774   1.719  0.00  0.00    +0.046 C 
ATOM     14  C   LIG A   1       1.684  -3.404   1.102  0.00  0.00    +0.011 C 
ATOM     15  C   LIG A   1       1.640  -0.365   0.691  0.00  0.00    +0.005 C 
ATOM     16  C   LIG A   1       1.250   1.111   0.635  0.00  0.00    +0.005 C 
ATOM     17  C   LIG A   1       0.906   1.648  -0.756  0.00  0.00    +0.001 C 
ATOM     18  C   LIG A   1       0.240   0.609  -1.723  0.00  0.00    -0.023 C 
ATOM     19  C   LIG A   1       1.338   0.195  -2.748  0.00  0.00    +0.012 C 
ATOM     20  C   LIG A   1      -0.820   1.420  -2.525  0.00  0.00    +0.008 C 
ATOM     21  C   LIG A   1      -0.590   2.886  -2.181  0.00  0.00    +0.007 C 
ATOM     22  C   LIG A   1      -0.032   2.882  -0.751  0.00  0.00    +0.024 C 
ENDROOT
BRANCH  22  23
ATOM     23  C   LIG A   1       0.582   4.245  -0.317  0.00  0.00    +0.070 C 
ATOM     24  C   LIG A   1       1.758   4.695  -1.200  0.00  0.00    +0.042 C 
ATOM     25  O   LIG A   1      -0.436   5.274  -0.448  0.00  0.00    -0.367 OA
ATOM     26  C   LIG A   1      -0.500   6.060   0.769  0.00  0.00    +0.150 C 
ATOM     27  C   LIG A   1       0.750   5.706   1.560  0.00  0.00    +0.037 C 
ATOM     28  C   LIG A   1       0.977   4.269   1.163  0.00  0.00    +0.037 C 
BRANCH  26  29
ATOM     29  C   LIG A   1      -0.648   7.564   0.430  0.00  0.00    +0.086 C 
ATOM     30  C   LIG A   1      -1.927   7.831  -0.368  0.00  0.00    +0.043 C 
ATOM     31  C   LIG A   1      -0.629   8.433   1.690  0.00  0.00    +0.043 C 
BRANCH  29  32
ATOM     32  O   LIG A   1       0.454   7.973  -0.393  0.00  0.00    -0.387 OA
ATOM     33  H   LIG A   1       0.470   7.341  -1.137  0.00  0.00    +0.210 HD
ENDBRANCH  29  32
ENDBRANCH  26  29
ENDBRANCH  22  23
BRANCH  12  34
ATOM     34  O   LIG A   1       0.167  -6.806   1.622  0.00  0.00    -0.461 OA
BRANCH  34  35
ATOM     35  C   LIG A   1       0.664  -8.053   1.424  0.00  0.00    +0.304 C 
ATOM     36  O   LIG A   1       1.660  -8.332   0.786  0.00  0.00    -0.251 OA
ATOM     37  C   LIG A   1      -0.222  -9.052   2.107  0.00  0.00    +0.136 C 
ENDBRANCH  34  35
ENDBRANCH  12  34
TORSDOF 5
