REMARK  Name = NuBBE_330
REMARK  19 active torsions:
REMARK  status: ('A' for Active; 'I' for Inactive)
REMARK    1  A    between atoms: C_2  and  O_3
REMARK    2  A    between atoms: C_2  and  C_5
REMARK    3  A    between atoms: O_3  and  C_4
REMARK    4  A    between atoms: C_8  and  O_10
REMARK    5  A    between atoms: O_10  and  C_11
REMARK    6  A    between atoms: C_13  and  O_15
REMARK    7  A    between atoms: C_17  and  C_19
REMARK    8  A    between atoms: C_19  and  O_20
REMARK    9  A    between atoms: C_21  and  O_23
REMARK   10  A    between atoms: C_24  and  O_26
REMARK   11  A    between atoms: C_27  and  C_35
REMARK   12  A    between atoms: C_28  and  C_30
REMARK   13  A    between atoms: C_30  and  C_31
REMARK   14  A    between atoms: C_31  and  O_32
REMARK   15  A    between atoms: O_32  and  C_33
REMARK   16  A    between atoms: C_35  and  O_37
REMARK   17  A    between atoms: C_35  and  C_41
REMARK   18  A    between atoms: O_37  and  C_38
REMARK   19  A    between atoms: C_38  and  C_39
REMARK                            x       y       z     vdW  Elec       q    Type
REMARK                         _______ _______ _______ _____ _____    ______ ____
ROOT
ATOM      1  C   LIG A   1      -2.149  -1.907   1.472  0.00  0.00    +0.075 C 
ATOM      2  C   LIG A   1      -1.010  -1.805   2.183  0.00  0.00    +0.201 C 
ATOM      3  O   LIG A   1       0.085  -1.053   1.847  0.00  0.00    -0.470 OA
ATOM      4  C   LIG A   1      -0.036  -0.138   0.748  0.00  0.00    +0.316 C 
ATOM      5  C   LIG A   1      -1.507   0.128   0.307  0.00  0.00    +0.106 C 
ATOM      6  C   LIG A   1      -2.196  -1.248   0.107  0.00  0.00    +0.052 C 
ENDROOT
BRANCH   1   8
ATOM      7  O   LIG A   1      -3.247  -3.012   3.295  0.00  0.00    -0.245 OA
ATOM      8  C   LIG A   1      -3.228  -2.690   2.134  0.00  0.00    +0.338 C 
BRANCH   8   9
ATOM      9  O   LIG A   1      -4.135  -3.056   1.198  0.00  0.00    -0.465 OA
ATOM     10  C   LIG A   1      -4.552  -4.414   1.278  0.00  0.00    +0.280 C 
ENDBRANCH   8   9
ENDBRANCH   1   8
BRANCH   5  11
ATOM     11  C   LIG A   1      -2.186   1.126   1.302  0.00  0.00    +0.183 C 
ATOM     12  C   LIG A   1      -3.696   1.357   1.215  0.00  0.00    +0.052 C 
BRANCH  11  13
ATOM     13  O   LIG A   1      -1.462   2.394   1.302  0.00  0.00    -0.461 OA
BRANCH  13  14
ATOM     14  C   LIG A   1      -1.356   3.134   0.162  0.00  0.00    +0.304 C 
ATOM     15  C   LIG A   1      -0.228   4.126   0.325  0.00  0.00    +0.136 C 
ATOM     16  O   LIG A   1      -1.965   2.967  -0.868  0.00  0.00    -0.251 OA
ENDBRANCH  13  14
ENDBRANCH  11  13
ENDBRANCH   5  11
BRANCH   4  17
ATOM     17  O   LIG A   1       0.730  -0.565  -0.395  0.00  0.00    -0.309 OA
BRANCH  17  18
ATOM     18  C   LIG A   1       2.147  -0.617  -0.125  0.00  0.00    +0.286 C 
ATOM     19  C   LIG A   1       2.896  -1.033  -1.426  0.00  0.00    +0.201 C 
ATOM     20  O   LIG A   1       2.585   0.662   0.353  0.00  0.00    -0.340 OA
ATOM     21  C   LIG A   1       3.999   0.729   0.570  0.00  0.00    +0.178 C 
ATOM     22  C   LIG A   1       4.689   0.670  -0.798  0.00  0.00    +0.177 C 
ATOM     23  C   LIG A   1       4.396  -0.707  -1.387  0.00  0.00    +0.179 C 
BRANCH  19  24
ATOM     24  O   LIG A   1       2.775  -2.452  -1.657  0.00  0.00    -0.384 OA
ATOM     25  H   LIG A   1       3.407  -2.653  -2.376  0.00  0.00    +0.210 HD
ENDBRANCH  19  24
BRANCH  22  26
ATOM     26  O   LIG A   1       6.110   0.828  -0.765  0.00  0.00    -0.387 OA
ATOM     27  H   LIG A   1       6.298   1.633  -0.240  0.00  0.00    +0.210 HD
ENDBRANCH  22  26
BRANCH  23  28
ATOM     28  O   LIG A   1       4.940  -0.793  -2.717  0.00  0.00    -0.386 OA
ATOM     29  H   LIG A   1       5.842  -0.417  -2.643  0.00  0.00    +0.210 HD
ENDBRANCH  23  28
BRANCH  21  30
ATOM     30  C   LIG A   1       4.309   2.017   1.337  0.00  0.00    +0.190 C 
BRANCH  30  31
ATOM     31  O   LIG A   1       5.705   2.142   1.583  0.00  0.00    -0.392 OA
ATOM     32  H   LIG A   1       5.823   2.895   2.191  0.00  0.00    +0.209 HD
ENDBRANCH  30  31
ENDBRANCH  21  30
ENDBRANCH  17  18
ENDBRANCH   4  17
BRANCH   6  33
ATOM     33  C   LIG A   1      -3.489  -1.228  -0.754  0.00  0.00    +0.129 C 
BRANCH  33  34
ATOM     34  C   LIG A   1      -3.254  -0.786  -2.190  0.00  0.00    +0.307 C 
ATOM     35  O   LIG A   1      -3.444  -1.495  -3.163  0.00  0.00    -0.251 OA
BRANCH  34  36
ATOM     36  O   LIG A   1      -2.794   0.486  -2.234  0.00  0.00    -0.468 OA
ATOM     37  C   LIG A   1      -1.968   0.840  -3.348  0.00  0.00    +0.280 C 
ENDBRANCH  34  36
ENDBRANCH  33  34
ENDBRANCH   6  33
TORSDOF 15
