REMARK  Name = NuBBE_372
REMARK  13 active torsions:
REMARK  status: ('A' for Active; 'I' for Inactive)
REMARK    1  A    between atoms: O_1  and  C_2
REMARK    2  A    between atoms: C_8  and  O_37
REMARK    3  A    between atoms: C_9  and  C_10
REMARK    4  A    between atoms: C_13  and  C_33
REMARK    5  A    between atoms: C_15  and  O_32
REMARK    6  A    between atoms: C_17  and  O_31
REMARK    7  A    between atoms: C_19  and  O_21
REMARK    8  A    between atoms: O_21  and  C_22
REMARK    9  A    between atoms: C_22  and  C_23
REMARK   10  A    between atoms: C_26  and  O_29
REMARK   11  A    between atoms: C_33  and  O_34
REMARK   12  A    between atoms: C_35  and  O_36
REMARK   13  A    between atoms: C_43  and  O_44
REMARK                            x       y       z     vdW  Elec       q    Type
REMARK                         _______ _______ _______ _____ _____    ______ ____
ROOT
ATOM      1  C   LIG A   1       0.008   0.925  -1.635  0.00  0.00    +0.199 C 
ATOM      2  O   LIG A   1       0.554   0.876  -2.968  0.00  0.00    -0.360 OA
ATOM      3  C   LIG A   1      -0.185   1.686  -3.897  0.00  0.00    +0.175 C 
ATOM      4  C   LIG A   1       0.043   3.156  -3.545  0.00  0.00    +0.177 C 
ATOM      5  C   LIG A   1      -0.615   3.421  -2.195  0.00  0.00    +0.189 C 
ATOM      6  C   LIG A   1      -0.231   2.381  -1.115  0.00  0.00    +0.241 C 
ENDROOT
BRANCH   1  14
ATOM      7  C   LIG A   1       3.814  -5.294   3.550  0.00  0.00    +0.162 A 
ATOM      8  C   LIG A   1       4.177  -4.156   2.827  0.00  0.00    +0.096 A 
ATOM      9  C   LIG A   1       3.208  -3.466   2.094  0.00  0.00    +0.143 A 
ATOM     10  O   LIG A   1       3.632  -2.348   1.419  0.00  0.00    -0.454 OA
ATOM     11  C   LIG A   1       2.702  -1.599   0.737  0.00  0.00    +0.146 A 
ATOM     12  C   LIG A   1       3.177  -0.443   0.122  0.00  0.00    +0.093 A 
ATOM     13  C   LIG A   1       2.304   0.381  -0.604  0.00  0.00    +0.130 A 
ATOM     14  C   LIG A   1       0.938   0.077  -0.749  0.00  0.00    +0.068 A 
ATOM     15  C   LIG A   1       0.479  -1.094  -0.105  0.00  0.00    +0.141 A 
ATOM     16  C   LIG A   1       1.355  -1.926   0.630  0.00  0.00    +0.106 A 
ATOM     17  C   LIG A   1       0.899  -3.156   1.305  0.00  0.00    +0.204 A 
ATOM     18  O   LIG A   1      -0.271  -3.515   1.222  0.00  0.00    -0.286 OA
ATOM     19  C   LIG A   1       1.891  -3.921   2.083  0.00  0.00    +0.068 A 
ATOM     20  C   LIG A   1       1.522  -5.064   2.799  0.00  0.00    +0.064 A 
ATOM     21  C   LIG A   1       2.492  -5.745   3.537  0.00  0.00    +0.159 A 
BRANCH   7  22
ATOM     22  O   LIG A   1       4.744  -5.976   4.282  0.00  0.00    -0.503 OA
ATOM     23  H   LIG A   1       5.609  -5.547   4.200  0.00  0.00    +0.292 HD
ENDBRANCH   7  22
BRANCH  15  24
ATOM     24  O   LIG A   1      -0.853  -1.413  -0.217  0.00  0.00    -0.505 OA
ATOM     25  H   LIG A   1      -1.009  -2.277   0.229  0.00  0.00    +0.292 HD
ENDBRANCH  15  24
BRANCH  13  26
ATOM     26  O   LIG A   1       2.807   1.509  -1.194  0.00  0.00    -0.506 OA
ATOM     27  H   LIG A   1       3.771   1.536  -1.066  0.00  0.00    +0.292 HD
ENDBRANCH  13  26
BRANCH  21  28
ATOM     28  O   LIG A   1       2.162  -6.858   4.258  0.00  0.00    -0.503 OA
ATOM     29  H   LIG A   1       1.216  -7.048   4.154  0.00  0.00    +0.292 HD
ENDBRANCH  21  28
ENDBRANCH   1  14
BRANCH   5  30
ATOM     30  O   LIG A   1      -0.269   4.755  -1.769  0.00  0.00    -0.385 OA
ATOM     31  H   LIG A   1      -0.495   5.323  -2.534  0.00  0.00    +0.210 HD
ENDBRANCH   5  30
BRANCH   4  32
ATOM     32  O   LIG A   1      -0.540   4.071  -4.484  0.00  0.00    -0.387 OA
ATOM     33  H   LIG A   1      -0.096   3.962  -5.342  0.00  0.00    +0.210 HD
ENDBRANCH   4  32
BRANCH   6  34
ATOM     34  O   LIG A   1      -1.227   2.376  -0.050  0.00  0.00    -0.452 OA
BRANCH  34  35
ATOM     35  C   LIG A   1      -2.505   2.054  -0.371  0.00  0.00    +0.340 C 
ATOM     36  O   LIG A   1      -2.943   1.795  -1.484  0.00  0.00    -0.245 OA
BRANCH  35  37
ATOM     37  C   LIG A   1      -3.333   2.072   0.849  0.00  0.00    +0.059 A 
ATOM     38  C   LIG A   1      -2.766   1.766   2.092  0.00  0.00    +0.018 A 
ATOM     39  C   LIG A   1      -3.563   1.741   3.234  0.00  0.00    +0.046 A 
ATOM     40  C   LIG A   1      -4.920   2.024   3.127  0.00  0.00    +0.117 A 
ATOM     41  C   LIG A   1      -5.496   2.331   1.895  0.00  0.00    +0.046 A 
ATOM     42  C   LIG A   1      -4.702   2.354   0.748  0.00  0.00    +0.018 A 
BRANCH  40  43
ATOM     43  O   LIG A   1      -5.730   2.006   4.221  0.00  0.00    -0.507 OA
ATOM     44  H   LIG A   1      -5.194   1.793   5.001  0.00  0.00    +0.292 HD
ENDBRANCH  40  43
ENDBRANCH  35  37
ENDBRANCH  34  35
ENDBRANCH   6  34
BRANCH   3  45
ATOM     45  C   LIG A   1       0.326   1.350  -5.298  0.00  0.00    +0.190 C 
BRANCH  45  46
ATOM     46  O   LIG A   1       0.147  -0.039  -5.567  0.00  0.00    -0.392 OA
ATOM     47  H   LIG A   1       0.488  -0.503  -4.777  0.00  0.00    +0.209 HD
ENDBRANCH  45  46
ENDBRANCH   3  45
TORSDOF 13
