@<TRIPOS>MOLECULE
NuBBE_671
 24 25 0 0 0
SMALL
GASTEIGER

@<TRIPOS>ATOM
      1 O          -2.9974   -1.8509   -0.0498 O.3     1  LIG1       -0.5059
      2 C          -1.6290   -1.7913   -0.0520 C.ar    1  LIG1        0.1312
      3 C          -0.9056   -0.5903   -0.0141 C.ar    1  LIG1        0.1060
      4 C           0.4982   -0.6257   -0.0131 C.ar    1  LIG1        0.0019
      5 C           1.2833    0.6532    0.0489 C.3     1  LIG1        0.1176
      6 O           1.6701    0.8661    1.4029 O.3     1  LIG1       -0.3835
      7 C           0.4316    1.8060   -0.4976 C.3     1  LIG1        0.1304
      8 C           1.0709    3.1680   -0.2528 C.3     1  LIG1       -0.0249
      9 O          -0.8637    1.8269    0.1395 O.3     1  LIG1       -0.4551
     10 C          -1.6254    0.7043    0.0986 C.2     1  LIG1        0.3434
     11 O          -2.8422    0.7341    0.2159 O.2     1  LIG1       -0.2448
     12 C           1.1581   -1.8643   -0.0241 C.ar    1  LIG1       -0.0550
     13 C           0.4281   -3.0525   -0.0580 C.ar    1  LIG1       -0.0579
     14 C          -0.9649   -3.0156   -0.0789 C.ar    1  LIG1       -0.0193
     15 H          -3.3544   -0.9392    0.0428 H       1  LIG1        0.2922
     16 H           2.1971    0.5685   -0.5505 H       1  LIG1        0.0681
     17 H           0.8601    1.0057    1.9252 H       1  LIG1        0.2104
     18 H           0.2634    1.6821   -1.5757 H       1  LIG1        0.0761
     19 H           1.1848    3.3699    0.8179 H       1  LIG1        0.0266
     20 H           0.4307    3.9644   -0.6481 H       1  LIG1        0.0266
     21 H           2.0519    3.2381   -0.7317 H       1  LIG1        0.0266
     22 H           2.2457   -1.9067    0.0096 H       1  LIG1        0.0621
     23 H           0.9442   -4.0099   -0.0576 H       1  LIG1        0.0619
     24 H          -1.5357   -3.9408   -0.0974 H       1  LIG1        0.0654
@<TRIPOS>BOND
     1     1     2    1
     2     2     3   ar
     3     3     4   ar
     4     4     5    1
     5     5     6    1
     6     5     7    1
     7     7     8    1
     8     7     9    1
     9     9    10    1
    10     3    10    1
    11    10    11    2
    12     4    12   ar
    13    12    13   ar
    14    13    14   ar
    15     2    14   ar
    16     1    15    1
    17     5    16    1
    18     6    17    1
    19     7    18    1
    20     8    19    1
    21     8    20    1
    22     8    21    1
    23    12    22    1
    24    13    23    1
    25    14    24    1
