REMARK  Name = NuBBE_548
REMARK  5 active torsions:
REMARK  status: ('A' for Active; 'I' for Inactive)
REMARK    1  A    between atoms: C_1  and  O_2
REMARK    2  A    between atoms: O_2  and  C_3
REMARK    3  A    between atoms: C_6  and  C_7
REMARK    4  A    between atoms: C_7  and  C_8
REMARK    5  A    between atoms: C_7  and  O_21
REMARK                            x       y       z     vdW  Elec       q    Type
REMARK                         _______ _______ _______ _____ _____    ______ ____
ROOT
ATOM      1  C   LIG A   1       0.735   0.505   1.990  0.00  0.00    +0.082 A 
ATOM      2  N   LIG A   1       0.939  -0.220   3.136  0.00  0.00    -0.256 NA
ATOM      3  C   LIG A   1      -0.129  -0.469   3.920  0.00  0.00    +0.112 A 
ATOM      4  C   LIG A   1      -1.414  -0.068   3.617  0.00  0.00    +0.028 A 
ATOM      5  C   LIG A   1      -1.637   0.668   2.454  0.00  0.00    -0.011 A 
ATOM      6  C   LIG A   1      -2.943   1.032   2.087  0.00  0.00    +0.058 A 
ATOM      7  C   LIG A   1      -3.128   1.734   0.920  0.00  0.00    +0.167 A 
ATOM      8  C   LIG A   1      -2.066   2.140   0.150  0.00  0.00    +0.167 A 
ATOM      9  C   LIG A   1      -0.769   1.828   0.486  0.00  0.00    +0.060 A 
ATOM     10  C   LIG A   1      -0.527   1.022   1.621  0.00  0.00    +0.010 A 
ATOM     11  O   LIG A   1      -2.458   2.827  -0.955  0.00  0.00    -0.453 OA
ATOM     12  C   LIG A   1      -3.891   2.695  -0.858  0.00  0.00    +0.466 C 
ATOM     13  O   LIG A   1      -4.323   2.095   0.382  0.00  0.00    -0.453 OA
ENDROOT
BRANCH   1  14
ATOM     14  C   LIG A   1       1.975   0.641   1.093  0.00  0.00    +0.194 C 
BRANCH  14  18
ATOM     15  C   LIG A   1       1.611  -1.515  -2.666  0.00  0.00    +0.120 A 
ATOM     16  C   LIG A   1       1.870  -0.143  -2.664  0.00  0.00    +0.046 A 
ATOM     17  C   LIG A   1       2.014   0.553  -1.456  0.00  0.00    +0.010 A 
ATOM     18  C   LIG A   1       1.879  -0.110  -0.226  0.00  0.00    -0.013 A 
ATOM     19  C   LIG A   1       1.634  -1.491  -0.244  0.00  0.00    +0.010 A 
ATOM     20  C   LIG A   1       1.485  -2.183  -1.450  0.00  0.00    +0.046 A 
BRANCH  15  22
ATOM     21  C   LIG A   1       1.734  -3.492  -3.954  0.00  0.00    +0.277 C 
ATOM     22  O   LIG A   1       1.458  -2.095  -3.897  0.00  0.00    -0.495 OA
ENDBRANCH  15  22
ENDBRANCH  14  18
BRANCH  14  23
ATOM     23  O   LIG A   1       3.128   0.122   1.778  0.00  0.00    -0.381 OA
ATOM     24  H   LIG A   1       2.764  -0.246   2.610  0.00  0.00    +0.211 HD
ENDBRANCH  14  23
ENDBRANCH   1  14
TORSDOF 4
