@<TRIPOS>MOLECULE
NuBBE_223
 100 102 0 0 0
SMALL
GASTEIGER

@<TRIPOS>ATOM
      1 C           1.3275    0.9344    1.2293 C.3     1  LIG1       -0.0584
      2 C           0.5043    0.0296    0.3061 C.3     1  LIG1        0.0029
      3 H          -0.5277    0.2740    0.5895 H       1  LIG1        0.0340
      4 C           0.7237   -1.4564    0.6796 C.3     1  LIG1        0.1438
      5 H           0.8601   -1.5010    1.7687 H       1  LIG1        0.0775
      6 O          -0.4623   -2.2229    0.4129 O.3     1  LIG1       -0.4573
      7 C          -1.4181   -1.9690    1.3751 C.2     1  LIG1        0.3075
      8 C          -2.7438   -2.6055    1.0548 C.3     1  LIG1        0.0450
      9 C          -3.7869   -2.3291    2.1533 C.3     1  LIG1       -0.0430
     10 C          -4.1320   -0.8368    2.2691 C.3     1  LIG1       -0.0526
     11 C          -5.1433   -0.5437    3.3635 C.3     1  LIG1       -0.0530
     12 C          -5.4470    0.9480    3.4998 C.3     1  LIG1       -0.0531
     13 C          -4.2861    1.8427    3.9414 C.3     1  LIG1       -0.0531
     14 C          -4.6500    3.3333    4.0464 C.3     1  LIG1       -0.0533
     15 C          -5.6194    3.7436    5.1644 C.3     1  LIG1       -0.0559
     16 C          -7.0680    3.2882    5.0553 C.3     1  LIG1       -0.0653
     17 O          -1.2243   -1.2633    2.3615 O.2     1  LIG1       -0.2508
     18 C           2.0429   -2.0463    0.1607 C.3     1  LIG1        0.1554
     19 H           2.0502   -3.1247    0.3691 H       1  LIG1        0.0783
     20 O           3.0438   -1.3845    1.0121 O.3     1  LIG1       -0.4567
     21 C           3.4158   -2.0317    2.1580 C.2     1  LIG1        0.3043
     22 C           3.6970   -1.0328    3.2460 C.3     1  LIG1        0.0332
     23 O           3.3823   -3.2378    2.3166 O.2     1  LIG1       -0.2512
     24 C           2.4005   -1.8350   -1.3501 C.3     1  LIG1        0.1036
     25 C           2.1452   -3.1073   -2.2019 C.2     1  LIG1        0.0125
     26 C           3.4626   -3.8110   -2.4508 C.3     1  LIG1        0.2315
     27 H           3.6874   -4.5014   -1.6310 H       1  LIG1        0.1111
     28 O           3.5934   -4.5412   -3.6744 O.3     1  LIG1       -0.4311
     29 C           3.8596   -3.8018   -4.7892 C.2     1  LIG1        0.3063
     30 C           4.6389   -4.5815   -5.7837 C.3     1  LIG1        0.0333
     31 O           3.6068   -2.6073   -4.9629 O.2     1  LIG1       -0.2511
     32 O           4.4107   -2.7534   -2.4307 O.3     1  LIG1       -0.2971
     33 C           3.9983   -1.8769   -1.3995 C.3     1  LIG1        0.2216
     34 H           4.3927   -2.3553   -0.4954 H       1  LIG1        0.1068
     35 O           4.5908   -0.5903   -1.5036 O.3     1  LIG1       -0.4341
     36 C           5.9520   -0.6167   -1.2634 C.2     1  LIG1        0.3061
     37 C           6.3849    0.8047   -0.9728 C.3     1  LIG1        0.0333
     38 O           6.6725   -1.5782   -1.1853 O.2     1  LIG1       -0.2511
     39 C           1.1123   -3.2974   -3.0409 C.2     1  LIG1       -0.0499
     40 C           0.3843   -2.1156   -3.5827 C.3     1  LIG1        0.0741
     41 H          -0.5859   -2.0333   -3.1035 H       1  LIG1        0.0638
     42 O           0.1203   -2.3481   -4.9625 O.3     1  LIG1       -0.3877
     43 C           1.2673   -0.8545   -3.4637 C.3     1  LIG1       -0.0188
     44 C           1.7121   -0.5391   -2.0024 C.3     1  LIG1       -0.0135
     45 H           2.5305    0.1818   -2.1175 H       1  LIG1        0.0319
     46 C           0.5709    0.3154   -1.2257 C.3     1  LIG1       -0.0185
     47 C          -0.8703    0.0585   -1.7704 C.3     1  LIG1       -0.0586
     48 C           0.8436    1.8555   -1.5231 C.3     1  LIG1       -0.0282
     49 C          -0.1259    2.8857   -0.9470 C.2     1  LIG1       -0.0806
     50 C          -0.4238    4.0989   -1.4583 C.2     1  LIG1       -0.0549
     51 C           0.1307    4.5131   -2.7309 C.2     1  LIG1       -0.0662
     52 C           0.7733    5.6646   -2.9511 C.2     1  LIG1       -0.0985
     53 C          -1.3038    5.0801   -0.7144 C.3     1  LIG1       -0.0400
     54 H           2.3666    1.0292    0.9146 H       1  LIG1        0.0234
     55 H           1.2907    0.5573    2.2571 H       1  LIG1        0.0234
     56 H           0.8963    1.9345    1.2977 H       1  LIG1        0.0234
     57 H          -2.5828   -3.6843    0.9735 H       1  LIG1        0.0377
     58 H          -3.1050   -2.2165    0.0972 H       1  LIG1        0.0377
     59 H          -3.4147   -2.7001    3.1177 H       1  LIG1        0.0270
     60 H          -4.6982   -2.8949    1.9263 H       1  LIG1        0.0270
     61 H          -4.5114   -0.4705    1.3097 H       1  LIG1        0.0265
     62 H          -3.2359   -0.2602    2.4956 H       1  LIG1        0.0265
     63 H          -4.7965   -0.9278    4.3308 H       1  LIG1        0.0265
     64 H          -6.0855   -1.0595    3.1381 H       1  LIG1        0.0265
     65 H          -6.2166    0.9677    4.2598 H       1  LIG1        0.0265
     66 H          -5.8828    1.3383    2.5729 H       1  LIG1        0.0265
     67 H          -3.4702    1.7685    3.2109 H       1  LIG1        0.0265
     68 H          -3.8784    1.4933    4.8972 H       1  LIG1        0.0265
     69 H          -5.0088    3.7001    3.0772 H       1  LIG1        0.0265
     70 H          -3.7098    3.8735    4.2361 H       1  LIG1        0.0265
     71 H          -5.6390    4.8411    5.1883 H       1  LIG1        0.0263
     72 H          -5.2135    3.4211    6.1290 H       1  LIG1        0.0263
     73 H          -7.5308    3.6244    4.1228 H       1  LIG1        0.0230
     74 H          -7.6445    3.6903    5.8944 H       1  LIG1        0.0230
     75 H          -7.1945    2.2130    5.1413 H       1  LIG1        0.0230
     76 H           2.7792   -0.8841    3.8233 H       1  LIG1        0.0342
     77 H           4.0120   -0.0743    2.8246 H       1  LIG1        0.0342
     78 H           4.4910   -1.3974    3.9011 H       1  LIG1        0.0342
     79 H           4.5333   -5.6593   -5.6224 H       1  LIG1        0.0342
     80 H           5.6938   -4.3023   -5.7020 H       1  LIG1        0.0342
     81 H           4.2707   -4.3442   -6.7874 H       1  LIG1        0.0342
     82 H           7.3783    0.7566   -0.5041 H       1  LIG1        0.0342
     83 H           5.7006    1.2247   -0.2194 H       1  LIG1        0.0342
     84 H           6.4105    1.3999   -1.8625 H       1  LIG1        0.0342
     85 H           1.0534   -4.2073   -3.6340 H       1  LIG1        0.0599
     86 H          -0.4890   -3.1035   -5.0142 H       1  LIG1        0.2102
     87 H           0.7892    0.0036   -3.9475 H       1  LIG1        0.0296
     88 H           2.1712   -0.9895   -4.0704 H       1  LIG1        0.0296
     89 H          -1.1980   -0.9630   -1.5790 H       1  LIG1        0.0235
     90 H          -0.9719    0.2768   -2.8381 H       1  LIG1        0.0235
     91 H          -1.6111    0.6974   -1.2771 H       1  LIG1        0.0235
     92 H           1.8431    2.1133   -1.1484 H       1  LIG1        0.0313
     93 H           0.8964    1.9751   -2.6114 H       1  LIG1        0.0313
     94 H          -0.5666    2.6497    0.0182 H       1  LIG1        0.0575
     95 H           0.0830    3.7850   -3.5388 H       1  LIG1        0.0614
     96 H           0.9033    6.4183   -2.1828 H       1  LIG1        0.0535
     97 H           1.2367    5.8441   -3.9161 H       1  LIG1        0.0535
     98 H          -1.6171    4.6961    0.2642 H       1  LIG1        0.0277
     99 H          -2.2146    5.2994   -1.2828 H       1  LIG1        0.0277
    100 H          -0.7822    6.0250   -0.5256 H       1  LIG1        0.0277
@<TRIPOS>BOND
     1     2     4    1
     2     6     7    1
     3     7     8    1
     4     8     9    1
     5     9    10    1
     6    10    11    1
     7    11    12    1
     8    12    13    1
     9    13    14    1
    10    14    15    1
    11    15    16    1
    12     7    17    2
    13     4    18    1
    14    20    21    1
    15    21    22    1
    16    21    23    2
    17    18    24    1
    18    24    25    1
    19    25    26    1
    20    28    29    1
    21    29    30    1
    22    29    31    2
    23    26    32    1
    24    32    33    1
    25    24    33    1
    26    35    36    1
    27    36    37    1
    28    36    38    2
    29    25    39    2
    30    39    40    1
    31    40    43    1
    32    43    44    1
    33    24    44    1
    34    44    46    1
    35     2    46    1
    36    48    49    1
    37    49    50    2
    38    50    51    1
    39    51    52    2
    40    50    53    1
    41    18    19    1
    42    18    20    1
    43    26    27    1
    44    26    28    1
    45    33    34    1
    46    33    35    1
    47    44    45    1
    48    46    47    1
    49    46    48    1
    50     4     6    1
    51     4     5    1
    52     2     3    1
    53     2     1    1
    54    40    42    1
    55    40    41    1
    56     1    54    1
    57     1    55    1
    58     1    56    1
    59     8    57    1
    60     8    58    1
    61     9    59    1
    62     9    60    1
    63    10    61    1
    64    10    62    1
    65    11    63    1
    66    11    64    1
    67    12    65    1
    68    12    66    1
    69    13    67    1
    70    13    68    1
    71    14    69    1
    72    14    70    1
    73    15    71    1
    74    15    72    1
    75    16    73    1
    76    16    74    1
    77    16    75    1
    78    22    76    1
    79    22    77    1
    80    22    78    1
    81    30    79    1
    82    30    80    1
    83    30    81    1
    84    37    82    1
    85    37    83    1
    86    37    84    1
    87    39    85    1
    88    42    86    1
    89    43    87    1
    90    43    88    1
    91    47    89    1
    92    47    90    1
    93    47    91    1
    94    48    92    1
    95    48    93    1
    96    49    94    1
    97    51    95    1
    98    52    96    1
    99    52    97    1
   100    53    98    1
   101    53    99    1
   102    53   100    1
