REMARK  Name = NuBBE_113
REMARK  8 active torsions:
REMARK  status: ('A' for Active; 'I' for Inactive)
REMARK    1  A    between atoms: C_6  and  O_8
REMARK    2  A    between atoms: O_8  and  C_9
REMARK    3  A    between atoms: C_11  and  O_13
REMARK    4  A    between atoms: C_15  and  C_17
REMARK    5  A    between atoms: C_17  and  O_18
REMARK    6  A    between atoms: C_19  and  O_21
REMARK    7  A    between atoms: C_22  and  O_24
REMARK    8  A    between atoms: C_25  and  C_27
REMARK                            x       y       z     vdW  Elec       q    Type
REMARK                         _______ _______ _______ _____ _____    ______ ____
ROOT
ATOM      1  C   LIG A   1       0.123   1.643  -0.573  0.00  0.00    +0.286 C 
ATOM      2  C   LIG A   1      -1.135   2.546  -0.520  0.00  0.00    +0.201 C 
ATOM      3  O   LIG A   1       0.643   1.454   0.738  0.00  0.00    -0.340 OA
ATOM      4  C   LIG A   1       1.005   2.641   1.428  0.00  0.00    +0.178 C 
ATOM      5  C   LIG A   1      -0.246   3.491   1.662  0.00  0.00    +0.177 C 
ATOM      6  C   LIG A   1      -0.882   3.809   0.310  0.00  0.00    +0.179 C 
ENDROOT
BRANCH   2   7
ATOM      7  O   LIG A   1      -1.553   2.951  -1.836  0.00  0.00    -0.384 OA
ATOM      8  H   LIG A   1      -2.270   3.599  -1.681  0.00  0.00    +0.210 HD
ENDBRANCH   2   7
BRANCH   5   9
ATOM      9  O   LIG A   1       0.033   4.731   2.321  0.00  0.00    -0.387 OA
ATOM     10  H   LIG A   1       0.707   4.535   3.010  0.00  0.00    +0.210 HD
ENDBRANCH   5   9
BRANCH   6  11
ATOM     11  O   LIG A   1      -2.128   4.500   0.515  0.00  0.00    -0.386 OA
ATOM     12  H   LIG A   1      -1.944   5.137   1.236  0.00  0.00    +0.210 HD
ENDBRANCH   6  11
BRANCH   1  13
ATOM     13  O   LIG A   1      -0.259   0.365  -1.113  0.00  0.00    -0.309 OA
BRANCH  13  19
ATOM     14  O   LIG A   1      -0.742  -3.198   2.646  0.00  0.00    -0.245 OA
ATOM     15  C   LIG A   1      -0.951  -3.326   1.450  0.00  0.00    +0.338 C 
ATOM     16  C   LIG A   1      -0.296  -2.470   0.437  0.00  0.00    +0.075 C 
ATOM     17  C   LIG A   1       0.722  -1.697   0.839  0.00  0.00    +0.201 C 
ATOM     18  O   LIG A   1       1.456  -0.868   0.028  0.00  0.00    -0.470 OA
ATOM     19  C   LIG A   1       0.843  -0.553  -1.240  0.00  0.00    +0.316 C 
ATOM     20  C   LIG A   1       0.349  -1.860  -1.930  0.00  0.00    +0.088 C 
ATOM     21  C   LIG A   1      -0.709  -2.520  -1.000  0.00  0.00    +0.045 C 
ATOM     22  C   LIG A   1      -1.083  -3.955  -1.356  0.00  0.00    +0.050 C 
ATOM     23  C   LIG A   1      -2.175  -4.392  -0.397  0.00  0.00    +0.233 C 
ATOM     24  O   LIG A   1      -1.769  -4.300   0.980  0.00  0.00    -0.461 OA
BRANCH  20  25
ATOM     25  C   LIG A   1       1.528  -2.759  -2.280  0.00  0.00    -0.025 C 
ATOM     26  C   LIG A   1       1.843  -3.152  -3.520  0.00  0.00    +0.004 C 
ENDBRANCH  20  25
ENDBRANCH  13  19
ENDBRANCH   1  13
BRANCH   4  27
ATOM     27  C   LIG A   1       1.647   2.212   2.753  0.00  0.00    +0.190 C 
BRANCH  27  28
ATOM     28  O   LIG A   1       2.014   3.345   3.534  0.00  0.00    -0.392 OA
ATOM     29  H   LIG A   1       2.438   2.994   4.340  0.00  0.00    +0.209 HD
ENDBRANCH  27  28
ENDBRANCH   4  27
TORSDOF 8
