@<TRIPOS>MOLECULE
NuBBE_427
 43 45 0 0 0
SMALL
GASTEIGER

@<TRIPOS>ATOM
      1 O          -3.2045   -1.6580    0.9078 O.2     1  LIG1       -0.2706
      2 C          -2.7178   -0.5390    0.8438 C.2     1  LIG1        0.2394
      3 N          -3.0261    0.3778   -0.1437 N.am    1  LIG1       -0.2980
      4 C          -2.4594    1.7038   -0.3308 C.3     1  LIG1        0.0150
      5 C          -3.4176    2.3896   -1.2893 C.3     1  LIG1       -0.0357
      6 C          -3.9232    1.2458   -2.1564 C.3     1  LIG1       -0.0357
      7 C          -3.9779    0.0607   -1.1964 C.3     1  LIG1        0.0150
      8 C          -1.7762   -0.0419    1.8829 C.2     1  LIG1        0.0003
      9 C          -0.7059   -0.6701    2.3830 C.2     1  LIG1       -0.0571
     10 C          -0.2164   -1.9911    2.0730 C.2     1  LIG1       -0.0655
     11 C           1.0327   -2.4223    2.3191 C.2     1  LIG1       -0.0837
     12 C           2.2011   -1.6138    2.8332 C.3     1  LIG1       -0.0305
     13 C           3.3779   -1.5757    1.8461 C.3     1  LIG1       -0.0241
     14 C           3.0227   -0.9467    0.5171 C.ar    1  LIG1       -0.0434
     15 C           2.5241   -1.7515   -0.5348 C.ar    1  LIG1       -0.0549
     16 C           2.1541   -1.1919   -1.7602 C.ar    1  LIG1       -0.0159
     17 C           2.3130    0.1664   -1.9138 C.ar    1  LIG1        0.1662
     18 C           2.7988    0.9582   -0.8995 C.ar    1  LIG1        0.1665
     19 O           2.8892    2.2663   -1.2624 O.3     1  LIG1       -0.4526
     20 C           2.4704    2.1916   -2.6409 C.3     1  LIG1        0.2332
     21 O           2.0325    0.8769   -3.0388 O.3     1  LIG1       -0.4526
     22 C           3.1487    0.4379    0.3290 C.ar    1  LIG1       -0.0130
     23 H          -1.4613    1.5874   -0.7676 H       1  LIG1        0.0465
     24 H          -2.3794    2.2512    0.6108 H       1  LIG1        0.0465
     25 H          -2.9371    3.1865   -1.8635 H       1  LIG1        0.0281
     26 H          -4.2531    2.8265   -0.7291 H       1  LIG1        0.0281
     27 H          -3.2092    1.0491   -2.9645 H       1  LIG1        0.0281
     28 H          -4.8955    1.4624   -2.6094 H       1  LIG1        0.0281
     29 H          -3.7171   -0.8818   -1.6889 H       1  LIG1        0.0465
     30 H          -4.9681   -0.0418   -0.7405 H       1  LIG1        0.0465
     31 H          -1.9978    0.9471    2.2640 H       1  LIG1        0.0669
     32 H          -0.1379   -0.1172    3.1267 H       1  LIG1        0.0619
     33 H          -0.9245   -2.6865    1.6220 H       1  LIG1        0.0614
     34 H           1.2648   -3.4557    2.0625 H       1  LIG1        0.0572
     35 H           2.5408   -2.0611    3.7750 H       1  LIG1        0.0311
     36 H           1.9157   -0.5841    3.0695 H       1  LIG1        0.0311
     37 H           3.7696   -2.5874    1.6809 H       1  LIG1        0.0316
     38 H           4.2049   -1.0097    2.2955 H       1  LIG1        0.0316
     39 H           2.4091   -2.8243   -0.3906 H       1  LIG1        0.0621
     40 H           1.7610   -1.8063   -2.5617 H       1  LIG1        0.0655
     41 H           3.3113    2.4876   -3.2798 H       1  LIG1        0.1166
     42 H           1.6471    2.8976   -2.7948 H       1  LIG1        0.1166
     43 H           3.5163    1.0876    1.1154 H       1  LIG1        0.0658
@<TRIPOS>BOND
     1     1     2    2
     2     2     3   am
     3     3     4    1
     4     4     5    1
     5     5     6    1
     6     6     7    1
     7     3     7    1
     8     2     8    1
     9     8     9    2
    10     9    10    1
    11    10    11    2
    12    11    12    1
    13    12    13    1
    14    13    14    1
    15    14    15   ar
    16    15    16   ar
    17    16    17   ar
    18    17    18   ar
    19    18    19    1
    20    19    20    1
    21    20    21    1
    22    17    21    1
    23    18    22   ar
    24    14    22   ar
    25     4    23    1
    26     4    24    1
    27     5    25    1
    28     5    26    1
    29     6    27    1
    30     6    28    1
    31     7    29    1
    32     7    30    1
    33     8    31    1
    34     9    32    1
    35    10    33    1
    36    11    34    1
    37    12    35    1
    38    12    36    1
    39    13    37    1
    40    13    38    1
    41    15    39    1
    42    16    40    1
    43    20    41    1
    44    20    42    1
    45    22    43    1
