@<TRIPOS>MOLECULE
NuBBE_1743
 39 38 0 0 0
SMALL
GASTEIGER

@<TRIPOS>ATOM
      1 C          -0.7823    1.2572    0.6504 C.2     1  LIG1       -0.0759
      2 C           0.5439    0.9979    0.7132 C.2     1  LIG1       -0.0813
      3 C           1.6806    1.9956    0.7685 C.3     1  LIG1       -0.0158
      4 C           2.9430    1.4559    0.1292 C.2     1  LIG1       -0.0774
      5 C           3.9740    0.8089    0.7288 C.2     1  LIG1       -0.0546
      6 C           5.0926    0.3310   -0.0841 C.2     1  LIG1       -0.0662
      7 C           6.1280   -0.4133    0.3508 C.2     1  LIG1       -0.0985
      8 C           4.0232    0.5106    2.2053 C.3     1  LIG1       -0.0400
      9 C          -1.8127    0.1297    0.5923 C.3     1  LIG1       -0.0286
     10 C          -2.7235    0.2062   -0.6454 C.3     1  LIG1       -0.0308
     11 C          -3.7545   -0.8939   -0.7213 C.2     1  LIG1       -0.0850
     12 C          -3.6842   -2.0491   -1.4134 C.2     1  LIG1       -0.0796
     13 C          -2.4831   -2.5259   -2.1815 C.3     1  LIG1       -0.0440
     14 C          -4.8592   -2.9926   -1.4721 C.3     1  LIG1       -0.0440
     15 C          -1.3601    2.6483    0.6819 C.3     1  LIG1       -0.0438
     16 H           0.8589   -0.0451    0.7370 H       1  LIG1        0.0575
     17 H           1.8630    2.2861    1.8074 H       1  LIG1        0.0350
     18 H           1.4102    2.9169    0.2372 H       1  LIG1        0.0350
     19 H           2.9869    1.6222   -0.9469 H       1  LIG1        0.0578
     20 H           5.0789    0.5894   -1.1426 H       1  LIG1        0.0614
     21 H           6.2319   -0.7359    1.3772 H       1  LIG1        0.0535
     22 H           6.9009   -0.7317   -0.3375 H       1  LIG1        0.0535
     23 H           3.2529    1.0249    2.7805 H       1  LIG1        0.0277
     24 H           4.9844    0.8201    2.6341 H       1  LIG1        0.0277
     25 H           3.8974   -0.5648    2.3719 H       1  LIG1        0.0277
     26 H          -2.4252    0.1731    1.5032 H       1  LIG1        0.0313
     27 H          -1.3091   -0.8451    0.6108 H       1  LIG1        0.0313
     28 H          -2.1208    0.2398   -1.5592 H       1  LIG1        0.0310
     29 H          -3.2813    1.1522   -0.6296 H       1  LIG1        0.0310
     30 H          -4.6791   -0.6726   -0.1871 H       1  LIG1        0.0572
     31 H          -1.6259   -1.8535   -2.1049 H       1  LIG1        0.0274
     32 H          -2.7317   -2.6366   -3.2423 H       1  LIG1        0.0274
     33 H          -2.1657   -3.5034   -1.8017 H       1  LIG1        0.0274
     34 H          -5.7599   -2.5672   -1.0177 H       1  LIG1        0.0274
     35 H          -4.6241   -3.9267   -0.9524 H       1  LIG1        0.0274
     36 H          -5.1023   -3.2291   -2.5144 H       1  LIG1        0.0274
     37 H          -0.7504    3.3404    1.2702 H       1  LIG1        0.0274
     38 H          -2.3560    2.6443    1.1407 H       1  LIG1        0.0274
     39 H          -1.4595    3.0360   -0.3365 H       1  LIG1        0.0274
@<TRIPOS>BOND
     1     1     2    2
     2     2     3    1
     3     3     4    1
     4     4     5    2
     5     5     6    1
     6     6     7    2
     7     5     8    1
     8     1     9    1
     9     9    10    1
    10    10    11    1
    11    11    12    2
    12    12    13    1
    13    12    14    1
    14     1    15    1
    15     2    16    1
    16     3    17    1
    17     3    18    1
    18     4    19    1
    19     6    20    1
    20     7    21    1
    21     7    22    1
    22     8    23    1
    23     8    24    1
    24     8    25    1
    25     9    26    1
    26     9    27    1
    27    10    28    1
    28    10    29    1
    29    11    30    1
    30    13    31    1
    31    13    32    1
    32    13    33    1
    33    14    34    1
    34    14    35    1
    35    14    36    1
    36    15    37    1
    37    15    38    1
    38    15    39    1
