@<TRIPOS>MOLECULE
NuBBE_1665
 45 48 0 0 0
SMALL
GASTEIGER

@<TRIPOS>ATOM
      1 O           1.7552   -1.8675   -1.8612 O.2     1  LIG1       -0.2918
      2 C           0.8270   -1.1957   -1.4421 C.2     1  LIG1        0.1663
      3 C           0.6925    0.2243   -1.9185 C.ar    1  LIG1        0.0214
      4 C           0.1367    1.2170   -1.0801 C.ar    1  LIG1       -0.0476
      5 C          -0.0736    2.5151   -1.5438 C.ar    1  LIG1       -0.0155
      6 C           0.2546    2.7869   -2.8500 C.ar    1  LIG1        0.1663
      7 O           0.0382    3.9702   -3.4803 O.3     1  LIG1       -0.4526
      8 C           0.5105    3.6588   -4.8054 C.3     1  LIG1        0.2332
      9 O           1.0462    2.3214   -4.9231 O.3     1  LIG1       -0.4526
     10 C           0.8257    1.8392   -3.6685 C.ar    1  LIG1        0.1669
     11 C           1.0834    0.5548   -3.2269 C.ar    1  LIG1       -0.0057
     12 C          -0.3233   -1.7606   -0.5702 C.3     1  LIG1        0.0222
     13 H          -0.8247   -0.9357   -0.0579 H       1  LIG1        0.0381
     14 C          -1.3879   -2.3469   -1.5051 C.3     1  LIG1       -0.0551
     15 C           0.0843   -2.7659    0.5463 C.3     1  LIG1       -0.0303
     16 H          -0.8518   -3.1197    1.0005 H       1  LIG1        0.0308
     17 C           0.7789   -4.0334    0.0248 C.3     1  LIG1       -0.0615
     18 C           0.9141   -2.1194    1.6880 C.3     1  LIG1       -0.0243
     19 C           0.2167   -0.9936    2.4355 C.ar    1  LIG1       -0.0434
     20 C          -0.9997   -1.2103    3.1273 C.ar    1  LIG1       -0.0549
     21 C          -1.6607   -0.1608    3.7831 C.ar    1  LIG1       -0.0159
     22 C          -1.1003    1.0953    3.7151 C.ar    1  LIG1        0.1662
     23 O          -1.6195    2.2340    4.2480 O.3     1  LIG1       -0.4526
     24 C          -0.6581    3.2093    3.7928 C.3     1  LIG1        0.2332
     25 O           0.4541    2.6255    3.0816 O.3     1  LIG1       -0.4526
     26 C           0.0878    1.3151    3.0631 C.ar    1  LIG1        0.1665
     27 C           0.7841    0.2920    2.4484 C.ar    1  LIG1       -0.0130
     28 H          -0.1471    0.9961   -0.0595 H       1  LIG1        0.0626
     29 H          -0.5061    3.2739   -0.9022 H       1  LIG1        0.0655
     30 H           1.2916    4.3797   -5.0699 H       1  LIG1        0.1166
     31 H          -0.3240    3.7705   -5.5090 H       1  LIG1        0.1166
     32 H           1.5337   -0.1800   -3.8888 H       1  LIG1        0.0662
     33 H          -1.6961   -1.6099   -2.2550 H       1  LIG1        0.0237
     34 H          -2.2799   -2.6331   -0.9376 H       1  LIG1        0.0237
     35 H          -1.0239   -3.2251   -2.0457 H       1  LIG1        0.0237
     36 H           0.1257   -4.5887   -0.6558 H       1  LIG1        0.0233
     37 H           1.0237   -4.7103    0.8508 H       1  LIG1        0.0233
     38 H           1.7129   -3.8187   -0.4991 H       1  LIG1        0.0233
     39 H           1.8710   -1.7634    1.2875 H       1  LIG1        0.0316
     40 H           1.1672   -2.8861    2.4334 H       1  LIG1        0.0316
     41 H          -1.4432   -2.2039    3.1591 H       1  LIG1        0.0621
     42 H          -2.5905   -0.3253    4.3172 H       1  LIG1        0.0655
     43 H          -0.2712    3.7610    4.6571 H       1  LIG1        0.1166
     44 H          -1.1694    3.9175    3.1286 H       1  LIG1        0.1166
     45 H           1.7349    0.4967    1.9673 H       1  LIG1        0.0658
@<TRIPOS>BOND
     1     1     2    2
     2     2     3    1
     3     3     4   ar
     4     4     5   ar
     5     5     6   ar
     6     6     7    1
     7     7     8    1
     8     8     9    1
     9     6    10   ar
    10     9    10    1
    11    10    11   ar
    12     3    11   ar
    13     2    12    1
    14    12    13    1
    15    12    14    1
    16    12    15    1
    17    15    16    1
    18    15    17    1
    19    15    18    1
    20    18    19    1
    21    19    20   ar
    22    20    21   ar
    23    21    22   ar
    24    22    23    1
    25    23    24    1
    26    24    25    1
    27    22    26   ar
    28    25    26    1
    29    26    27   ar
    30    19    27   ar
    31     4    28    1
    32     5    29    1
    33     8    30    1
    34     8    31    1
    35    11    32    1
    36    14    33    1
    37    14    34    1
    38    14    35    1
    39    17    36    1
    40    17    37    1
    41    17    38    1
    42    18    39    1
    43    18    40    1
    44    20    41    1
    45    21    42    1
    46    24    43    1
    47    24    44    1
    48    27    45    1
