@<TRIPOS>MOLECULE
NuBBE_1465
 68 72 0 0 0
SMALL
GASTEIGER

@<TRIPOS>ATOM
      1 C          -0.0820   -2.5458   -2.6177 C.3     1  LIG1        0.0019
      2 C          -0.3726   -1.3491   -1.7008 C.3     1  LIG1        0.2198
      3 O          -1.7910   -1.2372   -1.7474 O.3     1  LIG1       -0.3548
      4 C           0.2231   -1.4818   -0.2257 C.3     1  LIG1        0.1029
      5 C           0.3252   -0.0680    0.4315 C.2     1  LIG1       -0.0441
      6 C           0.7013    1.1618   -0.4266 C.3     1  LIG1        0.0514
      7 C           2.2187    1.0517   -0.7534 C.3     1  LIG1       -0.0486
      8 C          -0.0268    0.9917   -1.7572 C.2     1  LIG1        0.1148
      9 O           0.2054   -0.2193   -2.4101 O.2     1  LIG1       -0.4638
     10 C          -0.8513    1.8816   -2.3225 C.2     1  LIG1        0.0198
     11 C          -1.3109    3.0823   -1.5882 C.2     1  LIG1        0.1651
     12 C          -1.0793    3.1203   -0.0746 C.3     1  LIG1        0.0320
     13 C          -1.3419    4.5502    0.4495 C.3     1  LIG1       -0.0525
     14 C          -2.1809    2.2377    0.5555 C.3     1  LIG1       -0.0525
     15 C           0.3625    2.5771    0.2704 C.3     1  LIG1       -0.0028
     16 H           0.3363    2.3951    1.3481 H       1  LIG1        0.0328
     17 C           1.4782    3.6594    0.1864 C.3     1  LIG1        0.0498
     18 C           1.7953    4.2908   -1.1333 C.2     1  LIG1        0.3072
     19 O           3.0636    4.7119   -1.2048 O.3     1  LIG1       -0.4679
     20 C           3.3926    5.5762   -2.3030 C.3     1  LIG1        0.0817
     21 O           0.9823    4.4351   -2.0397 O.2     1  LIG1       -0.2509
     22 O          -1.9690    3.9297   -2.1903 O.2     1  LIG1       -0.2920
     23 C           0.1307   -0.1685    1.7596 C.2     1  LIG1       -0.0823
     24 C          -0.1580   -1.5765    2.1965 C.3     1  LIG1       -0.0242
     25 C          -0.6510   -2.2409    0.8822 C.3     1  LIG1        0.0310
     26 C          -0.4383   -3.7801    0.8396 C.3     1  LIG1        0.1377
     27 H          -0.9249   -4.1613   -0.0690 H       1  LIG1        0.0792
     28 C          -1.0675   -4.5401    1.9840 C.ar    1  LIG1        0.0310
     29 C          -0.5036   -4.8544    3.2070 C.ar    1  LIG1        0.0984
     30 O          -1.3656   -5.5696    3.9736 O.2     1  LIG1       -0.4706
     31 C          -2.4935   -5.7446    3.2423 C.ar    1  LIG1        0.0921
     32 C          -2.3626   -5.1430    2.0134 C.ar    1  LIG1       -0.0172
     33 O           0.9319   -4.1783    0.7268 O.3     1  LIG1       -0.4541
     34 C           1.6424   -3.6342   -0.2803 C.2     1  LIG1        0.3377
     35 C           1.6587   -2.1161   -0.2896 C.3     1  LIG1        0.1675
     36 H           2.1841   -1.8016   -1.1946 H       1  LIG1        0.0722
     37 O           2.5016   -1.7540    0.8190 O.3     1  LIG1       -0.3795
     38 O           2.3902   -4.3021   -0.9857 O.2     1  LIG1       -0.2479
     39 C          -2.1848   -1.9794    0.8233 C.3     1  LIG1       -0.0545
     40 H           0.9808   -2.6388   -2.8611 H       1  LIG1        0.0293
     41 H          -0.5903   -2.4120   -3.5819 H       1  LIG1        0.0293
     42 H          -0.4524   -3.4856   -2.2016 H       1  LIG1        0.0293
     43 H          -2.0266   -0.4076   -1.3053 H       1  LIG1        0.2138
     44 H           2.4516    0.2187   -1.4229 H       1  LIG1        0.0242
     45 H           2.8236    0.9240    0.1511 H       1  LIG1        0.0242
     46 H           2.5980    1.9174   -1.3008 H       1  LIG1        0.0242
     47 H          -1.2918    1.7275   -3.3002 H       1  LIG1        0.0686
     48 H          -2.3910    4.8318    0.2897 H       1  LIG1        0.0239
     49 H          -0.7445    5.3087   -0.0657 H       1  LIG1        0.0239
     50 H          -1.1475    4.6277    1.5250 H       1  LIG1        0.0239
     51 H          -2.1547    1.2118    0.1900 H       1  LIG1        0.0239
     52 H          -3.1793    2.6174    0.3040 H       1  LIG1        0.0239
     53 H          -2.0987    2.2150    1.6474 H       1  LIG1        0.0239
     54 H           1.2503    4.4897    0.8717 H       1  LIG1        0.0381
     55 H           2.4148    3.2322    0.5968 H       1  LIG1        0.0381
     56 H           3.8765    6.4614   -1.8953 H       1  LIG1        0.0661
     57 H           2.5091    5.9084   -2.8684 H       1  LIG1        0.0661
     58 H           4.0811    5.0696   -2.9860 H       1  LIG1        0.0661
     59 H           0.2270    0.6278    2.4846 H       1  LIG1        0.0572
     60 H          -0.9242   -1.5802    2.9797 H       1  LIG1        0.0314
     61 H           0.7418   -2.0418    2.6108 H       1  LIG1        0.0314
     62 H           0.4609   -4.6605    3.6573 H       1  LIG1        0.1033
     63 H          -3.2796   -6.3131    3.7206 H       1  LIG1        0.1029
     64 H          -3.1100   -5.1391    1.2319 H       1  LIG1        0.0653
     65 H           3.3767   -2.1570    0.6611 H       1  LIG1        0.2106
     66 H          -2.6821   -2.3017    1.7458 H       1  LIG1        0.0237
     67 H          -2.6608   -2.5376    0.0110 H       1  LIG1        0.0237
     68 H          -2.4278   -0.9208    0.7163 H       1  LIG1        0.0237
@<TRIPOS>BOND
     1     2     4    1
     2     4     5    1
     3     5     6    1
     4     6     8    1
     5     8     9    1
     6     2     9    1
     7     8    10    2
     8    10    11    1
     9    11    12    1
    10    12    15    1
    11     6    15    1
    12    17    18    1
    13    18    19    1
    14    19    20    1
    15    18    21    2
    16     5    23    2
    17    23    24    1
    18    24    25    1
    19    25    26    1
    20    28    29   ar
    21    29    30   ar
    22    30    31   ar
    23    31    32   ar
    24    28    32   ar
    25    26    33    1
    26    33    34    1
    27    34    35    1
    28     4    35    1
    29     4    25    1
    30     6     7    1
    31    11    22    2
    32    12    13    1
    33    12    14    1
    34    25    39    1
    35    34    38    2
    36     2     3    1
    37     2     1    1
    38    15    17    1
    39    15    16    1
    40    26    28    1
    41    26    27    1
    42    35    37    1
    43    35    36    1
    44     1    40    1
    45     1    41    1
    46     1    42    1
    47     3    43    1
    48     7    44    1
    49     7    45    1
    50     7    46    1
    51    10    47    1
    52    13    48    1
    53    13    49    1
    54    13    50    1
    55    14    51    1
    56    14    52    1
    57    14    53    1
    58    17    54    1
    59    17    55    1
    60    20    56    1
    61    20    57    1
    62    20    58    1
    63    23    59    1
    64    24    60    1
    65    24    61    1
    66    29    62    1
    67    31    63    1
    68    32    64    1
    69    37    65    1
    70    39    66    1
    71    39    67    1
    72    39    68    1
