REMARK  Name = NuBBE_1644
REMARK  17 active torsions:
REMARK  status: ('A' for Active; 'I' for Inactive)
REMARK    1  A    between atoms: C_1  and  C_2
REMARK    2  A    between atoms: C_2  and  C_3
REMARK    3  A    between atoms: C_4  and  C_5
REMARK    4  A    between atoms: C_5  and  C_6
REMARK    5  A    between atoms: C_6  and  C_7
REMARK    6  A    between atoms: C_7  and  C_8
REMARK    7  A    between atoms: C_9  and  C_10
REMARK    8  A    between atoms: C_10  and  C_11
REMARK    9  A    between atoms: C_11  and  C_12
REMARK   10  A    between atoms: C_12  and  C_13
REMARK   11  A    between atoms: C_14  and  C_15
REMARK   12  A    between atoms: C_15  and  C_16
REMARK   13  A    between atoms: C_16  and  C_17
REMARK   14  A    between atoms: C_17  and  C_18
REMARK   15  A    between atoms: C_19  and  C_20
REMARK   16  A    between atoms: C_20  and  C_21
REMARK   17  A    between atoms: C_23  and  O_24
REMARK                            x       y       z     vdW  Elec       q    Type
REMARK                         _______ _______ _______ _____ _____    ______ ____
ROOT
ATOM      1  C   LIG A   1      -0.160   1.315   0.990  0.00  0.00    +0.034 C 
ENDROOT
BRANCH   1   2
ATOM      2  C   LIG A   1       0.381   2.735   0.808  0.00  0.00    -0.076 C 
ATOM      3  C   LIG A   1       1.349   2.977  -0.311  0.00  0.00    +0.038 C 
ATOM      4  C   LIG A   1      -0.084   3.713   1.616  0.00  0.00    -0.023 C 
BRANCH   4   5
ATOM      5  C   LIG A   1       0.269   5.183   1.635  0.00  0.00    +0.066 C 
BRANCH   5   6
ATOM      6  C   LIG A   1       0.319   5.888   2.982  0.00  0.00    +0.002 A 
ATOM      7  C   LIG A   1       0.597   7.276   3.016  0.00  0.00    +0.053 A 
ATOM      8  C   LIG A   1       0.657   7.972   4.236  0.00  0.00    +0.118 A 
ATOM      9  C   LIG A   1       0.439   7.332   5.450  0.00  0.00    +0.053 A 
ATOM     10  C   LIG A   1       0.180   5.974   5.414  0.00  0.00    +0.009 A 
ATOM     11  C   LIG A   1      -0.037   5.023   6.520  0.00  0.00    +0.160 C 
ATOM     12  C   LIG A   1       0.132   5.279   4.217  0.00  0.00    +0.139 A 
ATOM     13  O   LIG A   1      -0.072   3.913   4.411  0.00  0.00    -0.425 OA
ATOM     14  C   LIG A   1      -0.121   3.711   5.787  0.00  0.00    +0.317 C 
ATOM     15  O   LIG A   1      -0.240   2.640   6.302  0.00  0.00    -0.250 OA
BRANCH   8  16
ATOM     16  O   LIG A   1       0.949   9.305   4.287  0.00  0.00    -0.507 OA
ATOM     17  H   LIG A   1       1.103   9.633   3.387  0.00  0.00    +0.292 HD
ENDBRANCH   8  16
ENDBRANCH   5   6
ENDBRANCH   4   5
ENDBRANCH   1   2
BRANCH   1  18
ATOM     18  C   LIG A   1       0.366   0.249   0.018  0.00  0.00    +0.031 C 
BRANCH  18  21
ATOM     19  C   LIG A   1      -1.218  -1.733   0.667  0.00  0.00    -0.076 C 
ATOM     20  C   LIG A   1      -2.397  -0.927   1.137  0.00  0.00    +0.038 C 
ATOM     21  C   LIG A   1      -0.086  -1.179   0.185  0.00  0.00    -0.027 C 
BRANCH  19  22
ATOM     22  C   LIG A   1      -1.440  -3.237   0.781  0.00  0.00    +0.034 C 
BRANCH  22  23
ATOM     23  C   LIG A   1      -0.225  -4.184   0.700  0.00  0.00    +0.031 C 
BRANCH  23  26
ATOM     24  C   LIG A   1       0.301  -4.127  -1.847  0.00  0.00    -0.076 C 
ATOM     25  C   LIG A   1      -1.094  -3.958  -2.361  0.00  0.00    +0.038 C 
ATOM     26  C   LIG A   1       0.626  -4.271  -0.545  0.00  0.00    -0.027 C 
BRANCH  24  27
ATOM     27  C   LIG A   1       1.397  -4.206  -2.897  0.00  0.00    +0.034 C 
BRANCH  27  28
ATOM     28  C   LIG A   1       1.192  -3.439  -4.226  0.00  0.00    +0.031 C 
BRANCH  28  32
ATOM     29  C   LIG A   1      -1.211  -5.442  -6.630  0.00  0.00    +0.038 C 
ATOM     30  C   LIG A   1      -0.052  -5.115  -5.724  0.00  0.00    -0.080 C 
ATOM     31  C   LIG A   1       0.899  -6.262  -5.544  0.00  0.00    +0.038 C 
ATOM     32  C   LIG A   1       0.089  -3.901  -5.154  0.00  0.00    -0.028 C 
ENDBRANCH  28  32
ENDBRANCH  27  28
ENDBRANCH  24  27
ENDBRANCH  23  26
ENDBRANCH  22  23
ENDBRANCH  19  22
ENDBRANCH  18  21
ENDBRANCH   1  18
TORSDOF 12
