REMARK  Name = NuBBE_1145
REMARK  9 active torsions:
REMARK  status: ('A' for Active; 'I' for Inactive)
REMARK    1  A    between atoms: C_1  and  C_2
REMARK    2  A    between atoms: C_5  and  C_6
REMARK    3  A    between atoms: C_10  and  O_12
REMARK    4  A    between atoms: O_12  and  C_13
REMARK    5  A    between atoms: C_13  and  C_15
REMARK    6  A    between atoms: C_16  and  C_17
REMARK    7  A    between atoms: C_16  and  C_18
REMARK    8  A    between atoms: C_25  and  C_38
REMARK    9  A    between atoms: C_29  and  C_31
REMARK                            x       y       z     vdW  Elec       q    Type
REMARK                         _______ _______ _______ _____ _____    ______ ____
ROOT
ATOM      1  C   LIG A   1       0.409   1.251  -1.637  0.00  0.00    +0.020 C 
ATOM      2  C   LIG A   1      -0.211   0.230  -0.644  0.00  0.00    +0.030 C 
ATOM      3  C   LIG A   1       0.526   0.285   0.737  0.00  0.00    +0.012 C 
ATOM      4  C   LIG A   1       0.436   1.682   1.507  0.00  0.00    -0.006 C 
ATOM      5  C   LIG A   1       1.598   2.626   1.122  0.00  0.00    +0.016 C 
ATOM      6  C   LIG A   1      -0.978   2.359   1.252  0.00  0.00    +0.016 C 
ATOM      7  C   LIG A   1      -2.025   1.264   0.911  0.00  0.00    +0.051 C 
ATOM      8  C   LIG A   1      -1.732   0.498  -0.397  0.00  0.00    +0.187 C 
ATOM      9  C   LIG A   1      -1.491   3.300   2.416  0.00  0.00    +0.031 C 
ATOM     10  C   LIG A   1      -0.659   4.593   2.542  0.00  0.00    +0.019 C 
ATOM     11  C   LIG A   1      -2.956   3.749   2.197  0.00  0.00    +0.019 C 
ATOM     12  C   LIG A   1      -1.391   2.568   3.752  0.00  0.00    +0.162 C 
ATOM     13  O   LIG A   1      -2.194   2.720   4.671  0.00  0.00    -0.292 OA
ATOM     14  C   LIG A   1      -0.202   1.722   3.990  0.00  0.00    +0.043 C 
ATOM     15  C   LIG A   1       0.622   1.375   2.994  0.00  0.00    -0.016 C 
ATOM     16  C   LIG A   1       1.935  -0.351   0.662  0.00  0.00    +0.006 C 
ATOM     17  C   LIG A   1       2.018  -1.709  -0.071  0.00  0.00    +0.012 C 
ATOM     18  C   LIG A   1       0.691  -2.294  -0.572  0.00  0.00    -0.007 C 
ATOM     19  C   LIG A   1      -0.043  -1.167  -1.281  0.00  0.00    -0.058 C 
ATOM     20  C   LIG A   1      -0.353  -1.495  -2.544  0.00  0.00    -0.026 C 
ATOM     21  C   LIG A   1       0.165  -2.820  -2.967  0.00  0.00    +0.032 C 
ATOM     22  C   LIG A   1       0.774  -3.421  -1.684  0.00  0.00    +0.010 C 
ATOM     23  C   LIG A   1      -0.141  -2.904   0.586  0.00  0.00    +0.016 C 
ENDROOT
BRANCH  22  24
ATOM     24  C   LIG A   1       2.058  -4.248  -1.966  0.00  0.00    +0.041 C 
ATOM     25  C   LIG A   1       2.705  -4.903  -0.760  0.00  0.00    +0.127 C 
ATOM     26  C   LIG A   1       4.042  -4.244  -0.656  0.00  0.00    +0.307 C 
ATOM     27  O   LIG A   1       4.816  -4.373   0.283  0.00  0.00    -0.251 OA
ATOM     28  O   LIG A   1       4.297  -3.483  -1.750  0.00  0.00    -0.464 OA
ATOM     29  C   LIG A   1       3.206  -3.544  -2.665  0.00  0.00    +0.236 C 
ENDBRANCH  22  24
BRANCH   8  30
ATOM     30  O   LIG A   1      -2.292   1.243  -1.506  0.00  0.00    -0.461 OA
BRANCH  30  31
ATOM     31  C   LIG A   1      -3.634   1.116  -1.704  0.00  0.00    +0.304 C 
ATOM     32  O   LIG A   1      -4.391   0.425  -1.038  0.00  0.00    -0.251 OA
ATOM     33  C   LIG A   1      -4.077   2.009  -2.822  0.00  0.00    +0.136 C 
ENDBRANCH  30  31
ENDBRANCH   8  30
TORSDOF 3
