@<TRIPOS>MOLECULE
NuBBE_2222
 41 42 0 0 0
SMALL
GASTEIGER

@<TRIPOS>ATOM
      1 C          -0.0135   -2.0961   -0.1927 C.3     1  LIG1       -0.0239
      2 C          -0.4636   -0.6368   -0.0451 C.3     1  LIG1       -0.0450
      3 C          -1.9927   -0.5050   -0.0497 C.3     1  LIG1       -0.0273
      4 C          -2.4662    0.9295    0.0695 C.ar    1  LIG1       -0.0437
      5 C          -2.1635    1.6871    1.2175 C.ar    1  LIG1       -0.0131
      6 C          -2.5972    3.0103    1.3352 C.ar    1  LIG1        0.1615
      7 O          -2.3638    3.8455    2.3990 O.3     1  LIG1       -0.4915
      8 C          -1.6003    3.3042    3.4710 C.3     1  LIG1        0.0790
      9 C          -3.3425    3.5712    0.2947 C.ar    1  LIG1        0.1585
     10 C          -3.6672    2.8384   -0.8398 C.ar    1  LIG1       -0.0163
     11 C          -3.2308    1.5167   -0.9497 C.ar    1  LIG1       -0.0549
     12 O          -3.7702    4.8691    0.3718 O.3     1  LIG1       -0.5033
     13 C           1.4973   -2.2164   -0.1593 C.ar    1  LIG1       -0.0055
     14 C           2.2771   -2.1403   -1.3345 C.ar    1  LIG1        0.1267
     15 O           1.5784   -2.0206   -2.5075 O.3     1  LIG1       -0.4947
     16 C           2.3299   -1.9906   -3.7153 C.3     1  LIG1        0.0788
     17 C           3.6736   -2.1806   -1.2435 C.ar    1  LIG1        0.0218
     18 C           4.2874   -2.3005    0.0002 C.ar    1  LIG1        0.1203
     19 C           3.5312   -2.4030    1.1607 C.ar    1  LIG1       -0.0197
     20 C           2.1421   -2.3594    1.0806 C.ar    1  LIG1       -0.0517
     21 O           5.6451   -2.3155    0.1268 O.3     1  LIG1       -0.5066
     22 H          -0.4103   -2.5289   -1.1185 H       1  LIG1        0.0314
     23 H          -0.4387   -2.7023    0.6188 H       1  LIG1        0.0314
     24 H          -0.0403   -0.0317   -0.8573 H       1  LIG1        0.0272
     25 H          -0.0557   -0.2275    0.8878 H       1  LIG1        0.0272
     26 H          -2.4238   -1.0791    0.7803 H       1  LIG1        0.0313
     27 H          -2.3903   -0.9494   -0.9708 H       1  LIG1        0.0313
     28 H          -1.5865    1.2169    2.0055 H       1  LIG1        0.0658
     29 H          -1.5479    4.0597    4.2605 H       1  LIG1        0.0660
     30 H          -0.5773    3.0840    3.1481 H       1  LIG1        0.0660
     31 H          -2.0819    2.4170    3.8956 H       1  LIG1        0.0660
     32 H          -4.2527    3.2962   -1.6309 H       1  LIG1        0.0655
     33 H          -3.4928    0.9512   -1.8416 H       1  LIG1        0.0621
     34 H          -3.4218    5.1968    1.2239 H       1  LIG1        0.2923
     35 H           1.6228   -1.9267   -4.5481 H       1  LIG1        0.0660
     36 H           2.9128   -2.9083   -3.8451 H       1  LIG1        0.0660
     37 H           2.9713   -1.1043   -3.7547 H       1  LIG1        0.0660
     38 H           4.2963   -2.1171   -2.1283 H       1  LIG1        0.0691
     39 H           4.0245   -2.5046    2.1242 H       1  LIG1        0.0654
     40 H           1.5585   -2.4264    1.9993 H       1  LIG1        0.0623
     41 H           6.0430   -2.1228   -0.7388 H       1  LIG1        0.2921
@<TRIPOS>BOND
     1     1     2    1
     2     2     3    1
     3     3     4    1
     4     4     5   ar
     5     5     6   ar
     6     6     7    1
     7     7     8    1
     8     6     9   ar
     9     9    10   ar
    10    10    11   ar
    11     4    11   ar
    12     9    12    1
    13     1    13    1
    14    13    14   ar
    15    14    15    1
    16    15    16    1
    17    14    17   ar
    18    17    18   ar
    19    18    19   ar
    20    19    20   ar
    21    13    20   ar
    22    18    21    1
    23     1    22    1
    24     1    23    1
    25     2    24    1
    26     2    25    1
    27     3    26    1
    28     3    27    1
    29     5    28    1
    30     8    29    1
    31     8    30    1
    32     8    31    1
    33    10    32    1
    34    11    33    1
    35    12    34    1
    36    16    35    1
    37    16    36    1
    38    16    37    1
    39    17    38    1
    40    19    39    1
    41    20    40    1
    42    21    41    1
