@<TRIPOS>MOLECULE
NuBBE_2156
 45 49 0 0 0
SMALL
GASTEIGER

@<TRIPOS>ATOM
      1 C          -1.0859    1.5165   -1.7623 C.3     1  LIG1       -0.0594
      2 C          -1.2278    0.4485   -0.6728 C.3     1  LIG1       -0.0081
      3 H          -2.2968    0.2180   -0.5980 H       1  LIG1        0.0330
      4 C          -0.6295    0.9420    0.6494 C.3     1  LIG1        0.0874
      5 H          -0.5491    2.0361    0.6713 H       1  LIG1        0.0649
      6 O           0.7091    0.4321    0.7214 O.3     1  LIG1       -0.3636
      7 C           0.9203   -0.5833   -0.2720 C.3     1  LIG1        0.0874
      8 H           1.2262   -1.4875    0.2693 H       1  LIG1        0.0649
      9 C          -0.4097   -0.7946   -1.0094 C.3     1  LIG1       -0.0081
     10 H          -0.2807   -0.9019   -2.0928 H       1  LIG1        0.0330
     11 C          -1.1040   -2.0733   -0.5305 C.3     1  LIG1       -0.0594
     12 C           2.0831   -0.2144   -1.1815 C.ar    1  LIG1       -0.0149
     13 C           2.4568   -1.0912   -2.2182 C.ar    1  LIG1       -0.0105
     14 C           3.5288   -0.7488   -3.0161 C.ar    1  LIG1        0.1666
     15 C           4.2417    0.4076   -2.8173 C.ar    1  LIG1        0.1662
     16 C           3.9248    1.2861   -1.8060 C.ar    1  LIG1       -0.0158
     17 C           2.8396    0.9661   -0.9824 C.ar    1  LIG1       -0.0524
     18 O           5.2583    0.5521   -3.7079 O.3     1  LIG1       -0.4526
     19 C           5.1073   -0.6522   -4.4873 C.3     1  LIG1        0.2332
     20 O           4.0071   -1.4812   -4.0578 O.3     1  LIG1       -0.4526
     21 C          -1.4304    0.5479    1.8817 C.ar    1  LIG1       -0.0149
     22 C          -2.7594    0.9935    2.0118 C.ar    1  LIG1       -0.0105
     23 C          -3.4658    0.6374    3.1417 C.ar    1  LIG1        0.1666
     24 C          -2.9049   -0.1231    4.1384 C.ar    1  LIG1        0.1662
     25 C          -1.6041   -0.5652    4.0638 C.ar    1  LIG1       -0.0158
     26 C          -0.8633   -0.2203    2.9278 C.ar    1  LIG1       -0.0524
     27 O          -3.7690   -0.3593    5.1609 O.3     1  LIG1       -0.4526
     28 C          -4.9399    0.3407    4.6921 C.3     1  LIG1        0.2332
     29 O          -4.7544    0.9786    3.4112 O.3     1  LIG1       -0.4526
     30 H          -0.0482    1.8371   -1.8944 H       1  LIG1        0.0233
     31 H          -1.6810    2.4004   -1.5084 H       1  LIG1        0.0233
     32 H          -1.4492    1.1366   -2.7232 H       1  LIG1        0.0233
     33 H          -1.2779   -2.0723    0.5491 H       1  LIG1        0.0233
     34 H          -0.4947   -2.9512   -0.7707 H       1  LIG1        0.0233
     35 H          -2.0719   -2.1938   -1.0287 H       1  LIG1        0.0233
     36 H           1.9265   -2.0209   -2.3958 H       1  LIG1        0.0659
     37 H           4.5004    2.1907   -1.6491 H       1  LIG1        0.0655
     38 H           2.5874    1.6463   -0.1701 H       1  LIG1        0.0622
     39 H           6.0332   -1.2346   -4.4150 H       1  LIG1        0.1166
     40 H           4.9482   -0.3739   -5.5354 H       1  LIG1        0.1166
     41 H          -3.2307    1.6067    1.2506 H       1  LIG1        0.0659
     42 H          -1.1664   -1.1557    4.8604 H       1  LIG1        0.0655
     43 H           0.1714   -0.5535    2.8630 H       1  LIG1        0.0622
     44 H          -5.2091    1.1061    5.4290 H       1  LIG1        0.1166
     45 H          -5.7663   -0.3748    4.6103 H       1  LIG1        0.1166
@<TRIPOS>BOND
     1     2     4    1
     2     4     5    1
     3     4     6    1
     4     6     7    1
     5     7     8    1
     6     7     9    1
     7     2     9    1
     8     7    12    1
     9    12    13   ar
    10    13    14   ar
    11    14    15   ar
    12    15    16   ar
    13    16    17   ar
    14    12    17   ar
    15    15    18    1
    16    18    19    1
    17    19    20    1
    18    14    20    1
    19     4    21    1
    20    21    22   ar
    21    22    23   ar
    22    23    24   ar
    23    24    25   ar
    24    25    26   ar
    25    21    26   ar
    26    24    27    1
    27    27    28    1
    28    28    29    1
    29    23    29    1
    30     9    11    1
    31     9    10    1
    32     2     3    1
    33     2     1    1
    34     1    30    1
    35     1    31    1
    36     1    32    1
    37    11    33    1
    38    11    34    1
    39    11    35    1
    40    13    36    1
    41    16    37    1
    42    17    38    1
    43    19    39    1
    44    19    40    1
    45    22    41    1
    46    25    42    1
    47    26    43    1
    48    28    44    1
    49    28    45    1
