@<TRIPOS>MOLECULE
NuBBE_1299
 33 35 0 0 0
SMALL
GASTEIGER

@<TRIPOS>ATOM
      1 O          -3.2401    0.9165   -0.0684 O.2     1  LIG1       -0.2673
      2 C          -2.0199    1.0465   -0.0178 C.ar    1  LIG1        0.2583
      3 C          -1.1797   -0.1470    0.0763 C.ar    1  LIG1        0.0631
      4 C           0.1392   -0.0905    0.1452 C.ar    1  LIG1        0.1389
      5 O           0.7941   -1.3094    0.2138 O.3     1  LIG1       -0.4831
      6 C          -0.2948   -2.2456    0.4782 C.3     1  LIG1        0.1250
      7 C           0.0584   -3.5875   -0.1419 C.2     1  LIG1       -0.0395
      8 C           1.3621   -4.1766    0.3378 C.3     1  LIG1       -0.0406
      9 C          -0.6951   -4.2644   -1.0266 C.2     1  LIG1       -0.0962
     10 C          -1.6133   -1.5531    0.0605 C.3     1  LIG1        0.0221
     11 C           0.8557    1.1694    0.1068 C.ar    1  LIG1        0.0407
     12 C           2.2539    1.2259    0.1575 C.ar    1  LIG1       -0.0491
     13 C           2.9069    2.4558    0.1141 C.ar    1  LIG1       -0.0610
     14 C           2.1658    3.6306    0.0208 C.ar    1  LIG1       -0.0598
     15 C           0.7687    3.5817   -0.0299 C.ar    1  LIG1       -0.0374
     16 C           0.0931    2.3533    0.0115 C.ar    1  LIG1        0.0552
     17 N          -1.3431    2.2688   -0.0432 N.ar    1  LIG1       -0.3107
     18 C          -2.1339    3.4844   -0.1392 C.3     1  LIG1        0.0153
     19 H          -0.3186   -2.3867    1.5698 H       1  LIG1        0.0784
     20 H           2.2032   -3.5332    0.0611 H       1  LIG1        0.0275
     21 H           1.5509   -5.1671   -0.0901 H       1  LIG1        0.0275
     22 H           1.3493   -4.2865    1.4273 H       1  LIG1        0.0275
     23 H          -1.6470   -3.9019   -1.3973 H       1  LIG1        0.0535
     24 H          -0.3731   -5.2252   -1.4202 H       1  LIG1        0.0535
     25 H          -2.4143   -1.7705    0.7733 H       1  LIG1        0.0355
     26 H          -1.9506   -1.8134   -0.9465 H       1  LIG1        0.0355
     27 H           2.8388    0.3115    0.2278 H       1  LIG1        0.0625
     28 H           3.9926    2.4961    0.1514 H       1  LIG1        0.0618
     29 H           2.6754    4.5907   -0.0147 H       1  LIG1        0.0618
     30 H           0.2350    4.5238   -0.1046 H       1  LIG1        0.0638
     31 H          -1.9366    4.1174    0.7317 H       1  LIG1        0.0457
     32 H          -3.2068    3.2729   -0.1624 H       1  LIG1        0.0457
     33 H          -1.8764    4.0136   -1.0621 H       1  LIG1        0.0457
@<TRIPOS>BOND
     1     1     2    2
     2     2     3   ar
     3     3     4   ar
     4     4     5    1
     5     5     6    1
     6     6     7    1
     7     7     8    1
     8     7     9    2
     9     6    10    1
    10     3    10    1
    11     4    11   ar
    12    11    12   ar
    13    12    13   ar
    14    13    14   ar
    15    14    15   ar
    16    15    16   ar
    17    11    16   ar
    18    16    17   ar
    19     2    17   ar
    20    17    18    1
    21     6    19    1
    22     8    20    1
    23     8    21    1
    24     8    22    1
    25     9    23    1
    26     9    24    1
    27    10    25    1
    28    10    26    1
    29    12    27    1
    30    13    28    1
    31    14    29    1
    32    15    30    1
    33    18    31    1
    34    18    32    1
    35    18    33    1
