REMARK  Name = NuBBE_2104
REMARK  11 active torsions:
REMARK  status: ('A' for Active; 'I' for Inactive)
REMARK    1  A    between atoms: C_1  and  C_2
REMARK    2  A    between atoms: C_2  and  C_3
REMARK    3  A    between atoms: C_3  and  C_4
REMARK    4  A    between atoms: C_4  and  C_5
REMARK    5  A    between atoms: C_5  and  C_6
REMARK    6  A    between atoms: C_6  and  C_7
REMARK    7  A    between atoms: C_7  and  C_8
REMARK    8  A    between atoms: C_8  and  C_9
REMARK    9  A    between atoms: C_9  and  C_10
REMARK   10  A    between atoms: C_10  and  C_11
REMARK   11  A    between atoms: C_11  and  C_12
REMARK                            x       y       z     vdW  Elec       q    Type
REMARK                         _______ _______ _______ _____ _____    ______ ____
ROOT
ATOM      1  C   LIG A   1       1.127  -1.958   0.554  0.00  0.00    -0.000 C 
ENDROOT
BRANCH   1   2
ATOM      2  C   LIG A   1      -0.250  -1.707  -0.083  0.00  0.00    -0.000 C 
BRANCH   2   3
ATOM      3  C   LIG A   1      -1.356  -2.591   0.524  0.00  0.00    -0.000 C 
BRANCH   3   4
ATOM      4  C   LIG A   1      -2.698  -2.488  -0.219  0.00  0.00    -0.000 C 
BRANCH   4   6
ATOM      5  C   LIG A   1      -3.700  -0.489   1.049  0.00  0.00    +0.004 C 
ATOM      6  C   LIG A   1      -3.352  -1.104  -0.297  0.00  0.00    -0.003 C 
ENDBRANCH   4   6
ENDBRANCH   3   4
ENDBRANCH   2   3
ENDBRANCH   1   2
BRANCH   1   7
ATOM      7  C   LIG A   1       2.269  -1.097  -0.046  0.00  0.00    -0.000 C 
BRANCH   7   8
ATOM      8  C   LIG A   1       2.037   0.385   0.202  0.00  0.00    -0.000 C 
BRANCH   8   9
ATOM      9  C   LIG A   1       3.052   1.339  -0.412  0.00  0.00    -0.000 C 
BRANCH   9  10
ATOM     10  C   LIG A   1       2.683   2.838  -0.208  0.00  0.00    -0.000 C 
BRANCH  10  11
ATOM     11  C   LIG A   1       1.382   3.345  -0.876  0.00  0.00    -0.003 C 
ATOM     12  C   LIG A   1       0.081   2.743  -0.354  0.00  0.00    +0.004 C 
ENDBRANCH  10  11
ENDBRANCH   9  10
ENDBRANCH   8   9
ENDBRANCH   7   8
ENDBRANCH   1   7
TORSDOF 9
