@<TRIPOS>MOLECULE
NuBBE_2154
 60 62 0 0 0
SMALL
GASTEIGER

@<TRIPOS>ATOM
      1 C           0.7705    0.7854    4.3531 C.3     1  LIG1        0.0790
      2 O          -0.0410   -0.3837    4.3236 O.3     1  LIG1       -0.4913
      3 C          -0.3734   -0.8613    3.0784 C.ar    1  LIG1        0.1654
      4 C          -0.5937   -2.2425    2.9339 C.ar    1  LIG1        0.2035
      5 O          -0.4029   -3.1814    3.9159 O.3     1  LIG1       -0.4885
      6 C           0.7745   -3.0798    4.7081 C.3     1  LIG1        0.0791
      7 C          -1.1603   -2.7150    1.7412 C.ar    1  LIG1        0.1654
      8 O          -1.4956   -4.0491    1.6759 O.3     1  LIG1       -0.4913
      9 C          -1.8758   -4.5708    0.4039 C.3     1  LIG1        0.0790
     10 C          -1.4015   -1.8181    0.6923 C.ar    1  LIG1       -0.0125
     11 C          -1.0843   -0.4509    0.7540 C.ar    1  LIG1       -0.0327
     12 C          -1.3820    0.5341   -0.3937 C.3     1  LIG1        0.0340
     13 H          -2.1525    1.2060    0.0120 H       1  LIG1        0.0394
     14 C          -1.9607   -0.1797   -1.6662 C.3     1  LIG1        0.1048
     15 H          -1.7515   -1.2485   -1.7081 H       1  LIG1        0.0736
     16 C          -3.4619   -0.0331   -1.8538 C.3     1  LIG1       -0.0272
     17 O          -1.2338    0.2959   -2.8035 O.2     1  LIG1       -0.4884
     18 C          -0.0065    0.6088   -2.2657 C.2     1  LIG1        0.1502
     19 C          -0.2252    1.4190   -1.0254 C.3     1  LIG1        0.0481
     20 C          -0.7969    2.8248   -1.4805 C.3     1  LIG1       -0.0216
     21 C           0.0589    3.7662   -2.3258 C.2     1  LIG1       -0.0902
     22 C           0.9921    3.4904   -3.2490 C.2     1  LIG1       -0.1026
     23 C           1.0343    1.7118   -0.2065 C.3     1  LIG1       -0.0056
     24 C           2.2116    0.7684   -0.4396 C.3     1  LIG1        0.1247
     25 H           2.0337   -0.2338   -0.0263 H       1  LIG1        0.0680
     26 O           3.3732    1.3247    0.2012 O.3     1  LIG1       -0.3718
     27 C           3.3136    1.3742    1.6169 C.3     1  LIG1        0.0374
     28 C           1.1845    0.1779   -2.7499 C.2     1  LIG1        0.2032
     29 O           1.3730   -0.4891   -3.9366 O.2     1  LIG1       -0.4888
     30 C           0.3625   -0.3304   -4.9304 C.3     1  LIG1        0.0791
     31 C           2.4399    0.5804   -1.9893 C.2     1  LIG1        0.2290
     32 O           3.4894    0.8140   -2.5623 O.2     1  LIG1       -0.2859
     33 C          -0.6389    0.0082    1.9994 C.ar    1  LIG1       -0.0125
     34 H           0.9690    1.0322    5.3997 H       1  LIG1        0.0660
     35 H           0.2704    1.6531    3.9147 H       1  LIG1        0.0660
     36 H           1.7305    0.5968    3.8652 H       1  LIG1        0.0660
     37 H           1.3897   -3.9692    4.5345 H       1  LIG1        0.0660
     38 H           0.4750   -3.0791    5.7606 H       1  LIG1        0.0660
     39 H           1.4070   -2.2117    4.5078 H       1  LIG1        0.0660
     40 H          -2.7882   -4.0961    0.0236 H       1  LIG1        0.0660
     41 H          -2.0999   -5.6349    0.5192 H       1  LIG1        0.0660
     42 H          -1.0547   -4.4733   -0.3151 H       1  LIG1        0.0660
     43 H          -1.9102   -2.2191   -0.1687 H       1  LIG1        0.0658
     44 H          -3.7814    1.0098   -1.7835 H       1  LIG1        0.0265
     45 H          -4.0034   -0.6166   -1.1010 H       1  LIG1        0.0265
     46 H          -3.7582   -0.3954   -2.8444 H       1  LIG1        0.0265
     47 H          -1.0300    3.3771   -0.5585 H       1  LIG1        0.0317
     48 H          -1.7559    2.7123   -2.0001 H       1  LIG1        0.0317
     49 H          -0.1216    4.8253   -2.1428 H       1  LIG1        0.0567
     50 H           1.2689    2.4989   -3.5711 H       1  LIG1        0.0532
     51 H           1.5379    4.2789   -3.7598 H       1  LIG1        0.0532
     52 H           0.7835    1.8051    0.8460 H       1  LIG1        0.0304
     53 H           1.4182    2.7170   -0.4301 H       1  LIG1        0.0304
     54 H           4.2003    1.8944    1.9897 H       1  LIG1        0.0524
     55 H           3.2904    0.3647    2.0347 H       1  LIG1        0.0524
     56 H           2.4514    1.9455    1.9731 H       1  LIG1        0.0524
     57 H           0.6667   -0.8691   -5.8297 H       1  LIG1        0.0660
     58 H           0.2373    0.7286   -5.1885 H       1  LIG1        0.0660
     59 H          -0.5884   -0.7767   -4.6257 H       1  LIG1        0.0660
     60 H          -0.5779    1.0787    2.1530 H       1  LIG1        0.0658
@<TRIPOS>BOND
     1     1     2    1
     2     2     3    1
     3     3     4   ar
     4     4     5    1
     5     5     6    1
     6     4     7   ar
     7     7     8    1
     8     8     9    1
     9     7    10   ar
    10    10    11   ar
    11    11    12    1
    12    12    13    1
    13    12    14    1
    14    14    17    1
    15    17    18    1
    16    18    19    1
    17    19    20    1
    18    20    21    1
    19    21    22    2
    20    12    19    1
    21    19    23    1
    22    23    24    1
    23    24    25    1
    24    24    26    1
    25    26    27    1
    26    18    28    2
    27    28    29    1
    28    29    30    1
    29    28    31    1
    30    24    31    1
    31    31    32    2
    32    11    33   ar
    33     3    33   ar
    34    14    16    1
    35    14    15    1
    36     1    34    1
    37     1    35    1
    38     1    36    1
    39     6    37    1
    40     6    38    1
    41     6    39    1
    42     9    40    1
    43     9    41    1
    44     9    42    1
    45    10    43    1
    46    16    44    1
    47    16    45    1
    48    16    46    1
    49    20    47    1
    50    20    48    1
    51    21    49    1
    52    22    50    1
    53    22    51    1
    54    23    52    1
    55    23    53    1
    56    27    54    1
    57    27    55    1
    58    27    56    1
    59    30    57    1
    60    30    58    1
    61    30    59    1
    62    33    60    1
