@<TRIPOS>MOLECULE
NuBBE_292
 35 37 0 0 0
SMALL
GASTEIGER

@<TRIPOS>ATOM
      1 O          -5.2018   -2.2365    0.5136 O.3     1  LIG1       -0.5065
      2 C          -3.8507   -2.4165    0.5365 C.ar    1  LIG1        0.1238
      3 C          -3.2873   -3.6762    0.7098 C.ar    1  LIG1        0.0222
      4 C          -1.8944   -3.8077    0.7148 C.ar    1  LIG1        0.1343
      5 O          -1.3557   -5.0554    0.8520 O.3     1  LIG1       -0.5058
      6 C          -1.0700   -2.6829    0.5566 C.ar    1  LIG1        0.1007
      7 C           0.4139   -2.7588    0.5048 C.2     1  LIG1        0.1740
      8 C           1.1195   -1.5143    0.0388 C.3     1  LIG1        0.0520
      9 C           0.4083   -0.3161    0.6417 C.3     1  LIG1        0.1322
     10 C           1.0925    0.9800    0.2350 C.ar    1  LIG1       -0.0067
     11 C           2.1075    1.5248    1.0336 C.ar    1  LIG1       -0.0516
     12 C           2.7317    2.7232    0.6699 C.ar    1  LIG1       -0.0196
     13 C           2.3616    3.3985   -0.4950 C.ar    1  LIG1        0.1201
     14 O           3.0366    4.5659   -0.7249 O.3     1  LIG1       -0.4951
     15 C           2.6606    5.3073   -1.8796 C.3     1  LIG1        0.0788
     16 C           1.3692    2.8532   -1.3066 C.ar    1  LIG1       -0.0196
     17 C           0.7451    1.6525   -0.9472 C.ar    1  LIG1       -0.0516
     18 O          -0.9604   -0.2611    0.2113 O.3     1  LIG1       -0.4828
     19 O           1.0446   -3.7730    0.7761 O.2     1  LIG1       -0.2917
     20 C          -1.6593   -1.4240    0.3950 C.ar    1  LIG1        0.1389
     21 C          -3.0489   -1.2937    0.3745 C.ar    1  LIG1        0.0225
     22 H          -5.6456   -3.0924    0.6320 H       1  LIG1        0.2921
     23 H          -3.9228   -4.5472    0.8290 H       1  LIG1        0.0691
     24 H          -2.0509   -5.7262    0.9362 H       1  LIG1        0.2922
     25 H           1.1020   -1.5057   -1.0568 H       1  LIG1        0.0385
     26 H           2.1630   -1.5539    0.3729 H       1  LIG1        0.0385
     27 H           0.4013   -0.3735    1.7398 H       1  LIG1        0.0789
     28 H           2.4195    1.0285    1.9501 H       1  LIG1        0.0623
     29 H           3.5111    3.1384    1.3048 H       1  LIG1        0.0654
     30 H           3.2643    6.2197   -1.9045 H       1  LIG1        0.0660
     31 H           1.6082    5.6074   -1.8340 H       1  LIG1        0.0660
     32 H           2.8717    4.7435   -2.7943 H       1  LIG1        0.0660
     33 H           1.0506    3.3359   -2.2243 H       1  LIG1        0.0654
     34 H          -0.0303    1.2523   -1.5981 H       1  LIG1        0.0623
     35 H          -3.5046   -0.3165    0.2369 H       1  LIG1        0.0691
@<TRIPOS>BOND
     1     1     2    1
     2     2     3   ar
     3     3     4   ar
     4     4     5    1
     5     4     6   ar
     6     6     7    1
     7     7     8    1
     8     8     9    1
     9     9    10    1
    10    10    11   ar
    11    11    12   ar
    12    12    13   ar
    13    13    14    1
    14    14    15    1
    15    13    16   ar
    16    16    17   ar
    17    10    17   ar
    18     9    18    1
    19     7    19    2
    20     6    20   ar
    21    18    20    1
    22    20    21   ar
    23     2    21   ar
    24     1    22    1
    25     3    23    1
    26     5    24    1
    27     8    25    1
    28     8    26    1
    29     9    27    1
    30    11    28    1
    31    12    29    1
    32    15    30    1
    33    15    31    1
    34    15    32    1
    35    16    33    1
    36    17    34    1
    37    21    35    1
