REMARK  Name = NuBBE_1493
REMARK  9 active torsions:
REMARK  status: ('A' for Active; 'I' for Inactive)
REMARK    1  A    between atoms: O_1  and  C_2
REMARK    2  A    between atoms: O_1  and  C_3
REMARK    3  A    between atoms: C_5  and  C_15
REMARK    4  A    between atoms: C_8  and  O_9
REMARK    5  A    between atoms: O_9  and  C_10
REMARK    6  A    between atoms: C_10  and  C_11
REMARK    7  A    between atoms: C_12  and  C_13
REMARK    8  A    between atoms: C_12  and  C_14
REMARK    9  A    between atoms: C_23  and  C_27
REMARK                            x       y       z     vdW  Elec       q    Type
REMARK                         _______ _______ _______ _____ _____    ______ ____
ROOT
ATOM      1  C   LIG A   1      -0.160  -2.794  -0.207  0.00  0.00    +0.154 C 
ATOM      2  C   LIG A   1       1.374  -2.963  -0.237  0.00  0.00    +0.056 C 
ATOM      3  C   LIG A   1       1.760  -2.562  -1.640  0.00  0.00    +0.056 C 
ATOM      4  C   LIG A   1       0.523  -2.861  -2.442  0.00  0.00    +0.167 C 
ATOM      5  O   LIG A   1      -0.583  -2.591  -1.577  0.00  0.00    -0.371 OA
ATOM      6  C   LIG A   1       2.071  -1.073  -1.494  0.00  0.00    +0.154 C 
ATOM      7  O   LIG A   1       2.546  -0.892  -0.147  0.00  0.00    -0.371 OA
ATOM      8  C   LIG A   1       2.258  -2.074   0.610  0.00  0.00    +0.167 C 
ENDROOT
BRANCH   6   9
ATOM      9  C   LIG A   1       3.075  -0.560  -2.501  0.00  0.00    -0.015 A 
ATOM     10  C   LIG A   1       4.449  -0.571  -2.214  0.00  0.00    +0.055 A 
ATOM     11  C   LIG A   1       5.320  -0.085  -3.163  0.00  0.00    +0.167 A 
ATOM     12  C   LIG A   1       4.881   0.399  -4.372  0.00  0.00    +0.166 A 
ATOM     13  C   LIG A   1       3.543   0.423  -4.699  0.00  0.00    +0.050 A 
ATOM     14  C   LIG A   1       2.634  -0.062  -3.753  0.00  0.00    +0.010 A 
ATOM     15  O   LIG A   1       5.904   0.830  -5.158  0.00  0.00    -0.453 OA
ATOM     16  C   LIG A   1       7.034   0.561  -4.301  0.00  0.00    +0.466 C 
ATOM     17  O   LIG A   1       6.671  -0.018  -3.033  0.00  0.00    -0.453 OA
ENDBRANCH   6   9
BRANCH   1  20
ATOM     18  C   LIG A   1      -1.455   0.602   1.018  0.00  0.00    +0.162 A 
ATOM     19  C   LIG A   1      -0.980  -0.420   0.194  0.00  0.00    +0.055 A 
ATOM     20  C   LIG A   1      -0.763  -1.722   0.674  0.00  0.00    -0.015 A 
ATOM     21  C   LIG A   1      -1.129  -2.008   1.996  0.00  0.00    +0.010 A 
ATOM     22  C   LIG A   1      -1.661  -1.006   2.815  0.00  0.00    +0.050 A 
ATOM     23  C   LIG A   1      -1.831   0.297   2.333  0.00  0.00    +0.162 A 
BRANCH  18  24
ATOM     24  O   LIG A   1      -1.619   1.882   0.565  0.00  0.00    -0.491 OA
ATOM     25  C   LIG A   1      -0.685   2.354  -0.396  0.00  0.00    +0.277 C 
ENDBRANCH  18  24
BRANCH  23  26
ATOM     26  O   LIG A   1      -2.349   1.174   3.253  0.00  0.00    -0.484 OA
BRANCH  26  27
ATOM     27  C   LIG A   1      -3.041   2.300   2.719  0.00  0.00    +0.257 C 
BRANCH  27  28
ATOM     28  C   LIG A   1      -3.977   2.788   3.767  0.00  0.00    +0.012 C 
ATOM     29  C   LIG A   1      -5.272   2.418   3.906  0.00  0.00    -0.076 C 
ATOM     30  C   LIG A   1      -5.975   1.422   3.020  0.00  0.00    +0.038 C 
ATOM     31  C   LIG A   1      -6.101   2.972   5.022  0.00  0.00    +0.038 C 
ENDBRANCH  27  28
ENDBRANCH  26  27
ENDBRANCH  23  26
ENDBRANCH   1  20
TORSDOF 6
