REMARK  Name = NuBBE_470
REMARK  7 active torsions:
REMARK  status: ('A' for Active; 'I' for Inactive)
REMARK    1  A    between atoms: C_3  and  O_5
REMARK    2  A    between atoms: C_11  and  C_13
REMARK    3  A    between atoms: C_15  and  C_16
REMARK    4  A    between atoms: C_17  and  O_19
REMARK    5  A    between atoms: C_25  and  C_27
REMARK    6  A    between atoms: C_34  and  C_35
REMARK    7  A    between atoms: C_35  and  C_36
REMARK                            x       y       z     vdW  Elec       q    Type
REMARK                         _______ _______ _______ _____ _____    ______ ____
ROOT
ATOM      1  C   LIG A   1       0.813   3.778   2.328  0.00  0.00    +0.010 C 
ATOM      2  C   LIG A   1       0.433   2.690   1.629  0.00  0.00    -0.045 C 
ATOM      3  C   LIG A   1      -0.632   2.717   0.525  0.00  0.00    +0.149 C 
ATOM      4  C   LIG A   1      -0.169   2.021  -0.815  0.00  0.00    +0.067 C 
ATOM      5  C   LIG A   1      -1.010   2.427  -2.019  0.00  0.00    -0.023 C 
ATOM      6  C   LIG A   1      -1.807   1.876  -2.945  0.00  0.00    -0.030 C 
ATOM      7  C   LIG A   1      -2.358   0.499  -3.160  0.00  0.00    +0.034 C 
ATOM      8  C   LIG A   1      -3.916   0.505  -3.185  0.00  0.00    +0.012 C 
ATOM      9  C   LIG A   1      -4.441  -0.892  -3.511  0.00  0.00    +0.012 C 
ATOM     10  C   LIG A   1      -4.512   1.219  -1.977  0.00  0.00    -0.022 C 
ATOM     11  C   LIG A   1      -5.070   0.809  -0.816  0.00  0.00    -0.041 C 
ATOM     12  C   LIG A   1      -5.509   1.857   0.189  0.00  0.00    +0.042 C 
ATOM     13  C   LIG A   1      -5.288  -0.612  -0.365  0.00  0.00    +0.210 C 
ATOM     14  C   LIG A   1      -4.409  -1.040   0.833  0.00  0.00    +0.189 C 
ATOM     15  O   LIG A   1      -4.929  -1.459   1.873  0.00  0.00    -0.289 OA
ATOM     16  C   LIG A   1       0.324   0.580  -0.504  0.00  0.00    +0.122 C 
ATOM     17  C   LIG A   1       1.530   0.805   0.488  0.00  0.00    +0.040 C 
ATOM     18  C   LIG A   1       1.164   1.365   1.864  0.00  0.00    +0.020 C 
ATOM     19  C   LIG A   1       0.393   0.455   2.814  0.00  0.00    +0.013 C 
ATOM     20  C   LIG A   1      -0.671  -0.463   0.069  0.00  0.00    +0.172 C 
ATOM     21  C   LIG A   1      -2.139  -0.217   0.121  0.00  0.00    +0.051 C 
ATOM     22  C   LIG A   1      -2.930  -1.126   0.710  0.00  0.00    +0.052 C 
ATOM     23  O   LIG A   1      -0.267  -1.542   0.514  0.00  0.00    -0.291 OA
ATOM     24  C   LIG A   1       1.101  -0.111  -1.624  0.00  0.00    +0.228 C 
ATOM     25  N   LIG A   1       2.291  -0.611  -1.110  0.00  0.00    -0.311 N 
ATOM     26  C   LIG A   1       2.432  -0.416   0.322  0.00  0.00    +0.082 C 
ATOM     27  O   LIG A   1       0.726  -0.296  -2.771  0.00  0.00    -0.275 OA
ATOM     28  H   LIG A   1       2.834  -1.279  -1.645  0.00  0.00    +0.149 HD
ENDROOT
BRANCH   3  29
ATOM     29  O   LIG A   1      -1.002   4.070   0.252  0.00  0.00    -0.387 OA
ATOM     30  H   LIG A   1      -1.508   4.384   1.020  0.00  0.00    +0.210 HD
ENDBRANCH   3  29
BRANCH  13  31
ATOM     31  O   LIG A   1      -6.672  -0.739  -0.021  0.00  0.00    -0.380 OA
ATOM     32  H   LIG A   1      -6.696  -1.265   0.803  0.00  0.00    +0.211 HD
ENDBRANCH  13  31
BRANCH  26  33
ATOM     33  C   LIG A   1       3.879  -0.132   0.762  0.00  0.00    +0.059 C 
BRANCH  33  34
ATOM     34  C   LIG A   1       4.846  -1.230   0.442  0.00  0.00    -0.021 A 
ATOM     35  C   LIG A   1       5.581  -1.346  -0.723  0.00  0.00    +0.087 A 
ATOM     36  N   LIG A   1       6.377  -2.453  -0.623  0.00  0.00    -0.360 N 
ATOM     37  C   LIG A   1       6.192  -3.062   0.596  0.00  0.00    +0.047 A 
ATOM     38  C   LIG A   1       6.808  -4.198   1.135  0.00  0.00    +0.026 A 
ATOM     39  C   LIG A   1       6.427  -4.593   2.420  0.00  0.00    +0.002 A 
ATOM     40  C   LIG A   1       5.466  -3.880   3.133  0.00  0.00    +0.001 A 
ATOM     41  C   LIG A   1       4.860  -2.745   2.578  0.00  0.00    +0.010 A 
ATOM     42  C   LIG A   1       5.229  -2.322   1.284  0.00  0.00    +0.003 A 
ATOM     43  H   LIG A   1       7.024  -2.773  -1.330  0.00  0.00    +0.165 HD
ENDBRANCH  33  34
ENDBRANCH  26  33
TORSDOF 4
