REMARK  Name = NuBBE_2325
REMARK  8 active torsions:
REMARK  status: ('A' for Active; 'I' for Inactive)
REMARK    1  A    between atoms: C_1  and  C_28
REMARK    2  A    between atoms: C_3  and  C_25
REMARK    3  A    between atoms: C_4  and  O_24
REMARK    4  A    between atoms: C_5  and  O_22
REMARK    5  A    between atoms: C_6  and  C_8
REMARK    6  A    between atoms: C_19  and  O_21
REMARK    7  A    between atoms: O_22  and  C_23
REMARK    8  A    between atoms: C_25  and  C_26
REMARK                            x       y       z     vdW  Elec       q    Type
REMARK                         _______ _______ _______ _____ _____    ______ ____
ROOT
ATOM      1  C   LIG A   1       0.069   1.259   0.612  0.00  0.00    +0.009 C 
ATOM      2  C   LIG A   1       1.550   0.785   0.702  0.00  0.00    +0.028 C 
ATOM      3  C   LIG A   1       1.427  -0.596  -0.009  0.00  0.00    +0.165 C 
ATOM      4  C   LIG A   1       0.241  -1.232   0.753  0.00  0.00    +0.168 C 
ATOM      5  C   LIG A   1      -0.798  -0.045   0.788  0.00  0.00    +0.065 C 
ATOM      6  C   LIG A   1       0.691  -1.494   2.219  0.00  0.00    +0.231 C 
ATOM      7  O   LIG A   1       0.324  -2.448   2.915  0.00  0.00    -0.286 OA
ATOM      8  C   LIG A   1       1.589  -0.484   2.860  0.00  0.00    +0.159 C 
ATOM      9  C   LIG A   1       1.949   0.596   2.157  0.00  0.00    +0.032 C 
ATOM     10  C   LIG A   1      -0.364   2.396   1.536  0.00  0.00    +0.009 C 
ENDROOT
BRANCH   5  11
ATOM     11  C   LIG A   1      -1.953  -0.136  -0.214  0.00  0.00    -0.037 A 
ATOM     12  C   LIG A   1      -3.160  -0.768   0.181  0.00  0.00    +0.008 A 
ATOM     13  C   LIG A   1      -4.273  -0.826  -0.673  0.00  0.00    +0.050 A 
ATOM     14  C   LIG A   1      -4.165  -0.237  -1.912  0.00  0.00    +0.166 A 
ATOM     15  C   LIG A   1      -2.997   0.353  -2.320  0.00  0.00    +0.167 A 
ATOM     16  C   LIG A   1      -1.877   0.392  -1.516  0.00  0.00    +0.053 A 
ATOM     17  O   LIG A   1      -3.082   0.886  -3.568  0.00  0.00    -0.453 OA
ATOM     18  C   LIG A   1      -4.455   0.588  -3.889  0.00  0.00    +0.466 C 
ATOM     19  O   LIG A   1      -5.137  -0.160  -2.859  0.00  0.00    -0.453 OA
ENDBRANCH   5  11
BRANCH   8  20
ATOM     20  O   LIG A   1       1.985  -0.671   4.164  0.00  0.00    -0.503 OA
ATOM     21  H   LIG A   1       1.619  -1.548   4.413  0.00  0.00    +0.292 HD
ENDBRANCH   8  20
BRANCH   4  22
ATOM     22  O   LIG A   1      -0.328  -2.383   0.135  0.00  0.00    -0.365 OA
ATOM     23  C   LIG A   1       0.560  -3.478  -0.054  0.00  0.00    +0.195 C 
ENDBRANCH   4  22
BRANCH   3  24
ATOM     24  O   LIG A   1       2.607  -1.389   0.052  0.00  0.00    -0.388 OA
ATOM     25  H   LIG A   1       3.274  -0.975  -0.524  0.00  0.00    +0.210 HD
ENDBRANCH   3  24
BRANCH   2  26
ATOM     26  C   LIG A   1       2.502   1.765  -0.033  0.00  0.00    +0.040 C 
BRANCH  26  27
ATOM     27  C   LIG A   1       3.962   1.398   0.002  0.00  0.00    -0.034 C 
ATOM     28  C   LIG A   1       4.719   1.183  -1.081  0.00  0.00    +0.004 C 
ENDBRANCH  26  27
ENDBRANCH   2  26
TORSDOF 6
