REMARK  Name = NuBBE_544
REMARK  20 active torsions:
REMARK  status: ('A' for Active; 'I' for Inactive)
REMARK    1  A    between atoms: C_1  and  C_2
REMARK    2  A    between atoms: C_2  and  C_59
REMARK    3  A    between atoms: C_5  and  C_40
REMARK    4  A    between atoms: C_8  and  C_39
REMARK    5  A    between atoms: C_9  and  C_38
REMARK    6  A    between atoms: C_14  and  C_15
REMARK    7  A    between atoms: C_14  and  C_36
REMARK    8  A    between atoms: C_15  and  O_16
REMARK    9  A    between atoms: C_17  and  O_35
REMARK   10  A    between atoms: C_19  and  O_34
REMARK   11  A    between atoms: C_22  and  C_33
REMARK   12  A    between atoms: C_30  and  O_32
REMARK   13  A    between atoms: C_36  and  O_37
REMARK   14  A    between atoms: C_40  and  O_41
REMARK   15  A    between atoms: O_41  and  C_42
REMARK   16  A    between atoms: C_45  and  C_53
REMARK   17  A    between atoms: C_47  and  O_52
REMARK   18  A    between atoms: C_49  and  O_51
REMARK   19  A    between atoms: C_53  and  O_54
REMARK   20  A    between atoms: C_55  and  O_57
REMARK                            x       y       z     vdW  Elec       q    Type
REMARK                         _______ _______ _______ _____ _____    ______ ____
ROOT
ATOM      1  C   LIG A   1      -3.800  -3.122   4.247  0.00  0.00    +0.013 C 
ATOM      2  C   LIG A   1      -3.012  -1.797   4.056  0.00  0.00    -0.008 C 
ATOM      3  C   LIG A   1      -3.972  -0.791   3.382  0.00  0.00    +0.010 C 
ATOM      4  C   LIG A   1      -3.283   0.476   2.886  0.00  0.00    +0.019 C 
ATOM      5  C   LIG A   1      -2.148   0.207   1.871  0.00  0.00    +0.077 C 
ATOM      6  C   LIG A   1      -1.482   1.555   1.558  0.00  0.00    +0.019 C 
ATOM      7  C   LIG A   1      -0.381   1.378   0.529  0.00  0.00    +0.012 C 
ATOM      8  C   LIG A   1       0.766   0.404   0.935  0.00  0.00    -0.005 C 
ATOM      9  C   LIG A   1       1.457  -0.240  -0.377  0.00  0.00    -0.019 C 
ATOM     10  C   LIG A   1       1.692   0.862  -1.464  0.00  0.00    +0.008 C 
ATOM     11  C   LIG A   1       3.114   1.185  -1.825  0.00  0.00    +0.005 C 
ATOM     12  C   LIG A   1       3.889  -0.114  -2.027  0.00  0.00    +0.008 C 
ATOM     13  C   LIG A   1       5.076   0.021  -3.058  0.00  0.00    +0.049 C 
ATOM     14  C   LIG A   1       5.925  -1.282  -3.034  0.00  0.00    +0.154 C 
ATOM     15  C   LIG A   1       6.278  -1.771  -1.624  0.00  0.00    +0.144 C 
ATOM     16  C   LIG A   1       5.017  -2.028  -0.796  0.00  0.00    +0.041 C 
ATOM     17  C   LIG A   1       4.140  -0.757  -0.602  0.00  0.00    -0.022 C 
ATOM     18  C   LIG A   1       2.707  -1.170  -0.013  0.00  0.00    +0.006 C 
ATOM     19  C   LIG A   1       2.627  -1.754   1.444  0.00  0.00    +0.031 C 
ATOM     20  C   LIG A   1       1.268  -1.674   2.136  0.00  0.00    -0.026 C 
ATOM     21  C   LIG A   1       0.322  -0.742   1.875  0.00  0.00    -0.060 C 
ATOM     22  C   LIG A   1      -1.068  -0.681   2.595  0.00  0.00    +0.061 C 
ATOM     23  C   LIG A   1      -1.705  -2.008   3.195  0.00  0.00    +0.128 C 
ATOM     24  C   LIG A   1       4.881   0.161   0.396  0.00  0.00    +0.012 C 
ATOM     25  C   LIG A   1       0.449  -1.247  -1.068  0.00  0.00    +0.012 C 
ATOM     26  C   LIG A   1       1.766   1.313   1.719  0.00  0.00    +0.016 C 
ATOM     27  C   LIG A   1      -2.640  -1.302   5.475  0.00  0.00    +0.013 C 
ENDROOT
BRANCH  23  28
ATOM     28  O   LIG A   1      -1.961  -2.966   2.173  0.00  0.00    -0.391 OA
ATOM     29  H   LIG A   1      -2.619  -2.598   1.549  0.00  0.00    +0.210 HD
ENDBRANCH  23  28
BRANCH  15  30
ATOM     30  O   LIG A   1       7.001  -3.003  -1.743  0.00  0.00    -0.389 OA
ATOM     31  H   LIG A   1       7.605  -2.864  -2.502  0.00  0.00    +0.210 HD
ENDBRANCH  15  30
BRANCH  14  32
ATOM     32  O   LIG A   1       7.142  -1.203  -3.794  0.00  0.00    -0.389 OA
ATOM     33  H   LIG A   1       7.287  -0.259  -4.031  0.00  0.00    +0.210 HD
ENDBRANCH  14  32
BRANCH   5  34
ATOM     34  C   LIG A   1      -2.781  -0.365   0.555  0.00  0.00    +0.316 C 
ATOM     35  O   LIG A   1      -2.966  -1.532   0.328  0.00  0.00    -0.250 OA
BRANCH  34  36
ATOM     36  O   LIG A   1      -3.198   0.651  -0.277  0.00  0.00    -0.432 OA
BRANCH  36  37
ATOM     37  C   LIG A   1      -3.955   0.326  -1.471  0.00  0.00    +0.342 C 
ATOM     38  O   LIG A   1      -4.181   1.546  -2.226  0.00  0.00    -0.331 OA
ATOM     39  C   LIG A   1      -5.269   2.384  -1.787  0.00  0.00    +0.179 C 
ATOM     40  C   LIG A   1      -5.748   2.032  -0.378  0.00  0.00    +0.177 C 
ATOM     41  C   LIG A   1      -6.186   0.567  -0.314  0.00  0.00    +0.180 C 
ATOM     42  C   LIG A   1      -5.281  -0.377  -1.114  0.00  0.00    +0.214 C 
BRANCH  41  43
ATOM     43  O   LIG A   1      -6.181   0.200   1.075  0.00  0.00    -0.386 OA
ATOM     44  H   LIG A   1      -6.535   0.987   1.539  0.00  0.00    +0.210 HD
ENDBRANCH  41  43
BRANCH  40  45
ATOM     45  O   LIG A   1      -6.829   2.820   0.131  0.00  0.00    -0.387 OA
ATOM     46  H   LIG A   1      -6.583   3.759  -0.013  0.00  0.00    +0.210 HD
ENDBRANCH  40  45
BRANCH  42  47
ATOM     47  O   LIG A   1      -5.976  -0.832  -2.285  0.00  0.00    -0.383 OA
ATOM     48  H   LIG A   1      -6.656  -1.454  -1.961  0.00  0.00    +0.210 HD
ENDBRANCH  42  47
BRANCH  39  49
ATOM     49  C   LIG A   1      -4.782   3.843  -1.842  0.00  0.00    +0.190 C 
BRANCH  49  50
ATOM     50  O   LIG A   1      -5.784   4.758  -1.403  0.00  0.00    -0.392 OA
ATOM     51  H   LIG A   1      -5.447   5.653  -1.594  0.00  0.00    +0.209 HD
ENDBRANCH  49  50
ENDBRANCH  39  49
ENDBRANCH  36  37
ENDBRANCH  34  36
ENDBRANCH   5  34
BRANCH  13  52
ATOM     52  C   LIG A   1       4.510   0.110  -4.527  0.00  0.00    +0.167 C 
BRANCH  52  53
ATOM     53  O   LIG A   1       3.678   1.242  -4.745  0.00  0.00    -0.394 OA
ATOM     54  H   LIG A   1       3.285   1.153  -5.631  0.00  0.00    +0.209 HD
ENDBRANCH  52  53
ENDBRANCH  13  52
BRANCH  13  55
ATOM     55  C   LIG A   1       5.908   1.298  -2.800  0.00  0.00    +0.167 C 
BRANCH  55  56
ATOM     56  O   LIG A   1       7.003   1.394  -3.713  0.00  0.00    -0.394 OA
ATOM     57  H   LIG A   1       7.389   2.280  -3.583  0.00  0.00    +0.209 HD
ENDBRANCH  55  56
ENDBRANCH  13  55
TORSDOF 15
