REMARK  Name = NuBBE_1780
REMARK  5 active torsions:
REMARK  status: ('A' for Active; 'I' for Inactive)
REMARK    1  A    between atoms: C_1  and  C_2
REMARK    2  A    between atoms: C_1  and  C_13
REMARK    3  A    between atoms: C_2  and  C_3
REMARK    4  A    between atoms: C_6  and  O_11
REMARK    5  A    between atoms: O_11  and  C_12
REMARK                            x       y       z     vdW  Elec       q    Type
REMARK                         _______ _______ _______ _____ _____    ______ ____
ROOT
ATOM      1  C   LIG A   1       1.473   0.172   0.720  0.00  0.00    +0.039 C 
ENDROOT
BRANCH   1   2
ATOM      2  C   LIG A   1       1.559   1.159  -0.418  0.00  0.00    -0.044 A 
ATOM      3  C   LIG A   1       2.418   0.924  -1.502  0.00  0.00    +0.053 A 
ATOM      4  C   LIG A   1       2.486   1.882  -2.492  0.00  0.00    +0.167 A 
ATOM      5  C   LIG A   1       1.719   3.023  -2.455  0.00  0.00    +0.166 A 
ATOM      6  C   LIG A   1       0.836   3.270  -1.429  0.00  0.00    +0.050 A 
ATOM      7  C   LIG A   1       0.769   2.333  -0.396  0.00  0.00    +0.007 A 
ATOM      8  O   LIG A   1       1.955   3.842  -3.515  0.00  0.00    -0.453 OA
ATOM      9  C   LIG A   1       3.037   3.139  -4.157  0.00  0.00    +0.466 C 
ATOM     10  O   LIG A   1       3.298   1.841  -3.583  0.00  0.00    -0.453 OA
ENDBRANCH   1   2
BRANCH   1  11
ATOM     11  C   LIG A   1       0.427  -0.928   0.507  0.00  0.00    +0.050 C 
BRANCH  11  12
ATOM     12  C   LIG A   1      -1.015  -0.400   0.382  0.00  0.00    +0.184 C 
ATOM     13  C   LIG A   1      -2.050  -1.501   0.183  0.00  0.00    +0.118 C 
ATOM     14  C   LIG A   1      -2.296  -2.223   1.472  0.00  0.00    +0.108 C 
ATOM     15  C   LIG A   1      -2.141  -1.572   2.638  0.00  0.00    +0.132 C 
ATOM     16  C   LIG A   1      -1.772  -0.149   2.679  0.00  0.00    +0.335 C 
ATOM     17  O   LIG A   1      -1.851   0.482   3.730  0.00  0.00    -0.245 OA
ATOM     18  O   LIG A   1      -1.355   0.418   1.524  0.00  0.00    -0.458 OA
BRANCH  14  19
ATOM     19  O   LIG A   1      -2.653  -3.540   1.305  0.00  0.00    -0.499 OA
ATOM     20  C   LIG A   1      -2.888  -4.313   2.477  0.00  0.00    +0.276 C 
ENDBRANCH  14  19
ENDBRANCH  11  12
ENDBRANCH   1  11
TORSDOF 4
