REMARK  Name = NuBBE_1299
REMARK  3 active torsions:
REMARK  status: ('A' for Active; 'I' for Inactive)
REMARK    1  A    between atoms: C_6  and  C_7
REMARK    2  A    between atoms: C_7  and  C_8
REMARK    3  A    between atoms: N_17  and  C_18
REMARK                            x       y       z     vdW  Elec       q    Type
REMARK                         _______ _______ _______ _____ _____    ______ ____
ROOT
ATOM      1  O   LIG A   1      -3.240   0.916  -0.068  0.00  0.00    -0.267 OA
ATOM      2  C   LIG A   1      -2.020   1.046  -0.018  0.00  0.00    +0.258 A 
ATOM      3  C   LIG A   1      -1.180  -0.147   0.076  0.00  0.00    +0.063 A 
ATOM      4  C   LIG A   1       0.139  -0.090   0.145  0.00  0.00    +0.139 A 
ATOM      5  O   LIG A   1       0.794  -1.309   0.214  0.00  0.00    -0.483 OA
ATOM      6  C   LIG A   1      -0.295  -2.246   0.478  0.00  0.00    +0.203 C 
ATOM      7  C   LIG A   1      -1.613  -1.553   0.060  0.00  0.00    +0.093 C 
ATOM      8  C   LIG A   1       0.856   1.169   0.107  0.00  0.00    +0.041 A 
ATOM      9  C   LIG A   1       2.254   1.226   0.158  0.00  0.00    +0.013 A 
ATOM     10  C   LIG A   1       2.907   2.456   0.114  0.00  0.00    +0.001 A 
ATOM     11  C   LIG A   1       2.166   3.631   0.021  0.00  0.00    +0.002 A 
ATOM     12  C   LIG A   1       0.769   3.582  -0.030  0.00  0.00    +0.026 A 
ATOM     13  C   LIG A   1       0.093   2.353   0.011  0.00  0.00    +0.055 A 
ATOM     14  N   LIG A   1      -1.343   2.269  -0.043  0.00  0.00    -0.311 N 
ATOM     15  C   LIG A   1      -2.134   3.484  -0.139  0.00  0.00    +0.152 C 
ENDROOT
BRANCH   6  16
ATOM     16  C   LIG A   1       0.058  -3.587  -0.142  0.00  0.00    -0.040 C 
ATOM     17  C   LIG A   1       1.362  -4.177   0.338  0.00  0.00    +0.042 C 
ATOM     18  C   LIG A   1      -0.695  -4.264  -1.027  0.00  0.00    +0.011 C 
ENDBRANCH   6  16
TORSDOF 1
