REMARK  Name = NuBBE_275
REMARK  8 active torsions:
REMARK  status: ('A' for Active; 'I' for Inactive)
REMARK    1  A    between atoms: C_1  and  C_2
REMARK    2  A    between atoms: C_3  and  O_4
REMARK    3  A    between atoms: C_6  and  O_7
REMARK    4  A    between atoms: C_8  and  C_9
REMARK    5  A    between atoms: C_9  and  O_10
REMARK    6  A    between atoms: O_10  and  C_11
REMARK    7  A    between atoms: C_11  and  C_12
REMARK    8  A    between atoms: C_14  and  C_15
REMARK                            x       y       z     vdW  Elec       q    Type
REMARK                         _______ _______ _______ _____ _____    ______ ____
ROOT
ATOM      1  C   LIG A   1      -3.276   1.157  -0.487  0.00  0.00    +0.048 C 
ATOM      2  C   LIG A   1      -1.774   1.301  -0.475  0.00  0.00    -0.005 A 
ATOM      3  C   LIG A   1      -1.137   2.553  -0.495  0.00  0.00    +0.123 A 
ATOM      4  C   LIG A   1       0.252   2.664  -0.535  0.00  0.00    +0.091 A 
ATOM      5  C   LIG A   1       1.040   1.521  -0.555  0.00  0.00    +0.135 A 
ATOM      6  C   LIG A   1       0.447   0.254  -0.493  0.00  0.00    +0.104 A 
ATOM      7  C   LIG A   1      -0.966   0.128  -0.438  0.00  0.00    -0.027 A 
ATOM      8  C   LIG A   1      -1.628  -1.232  -0.370  0.00  0.00    +0.045 C 
ENDROOT
BRANCH   3   9
ATOM      9  O   LIG A   1      -1.794   3.751  -0.484  0.00  0.00    -0.506 OA
ATOM     10  H   LIG A   1      -2.747   3.618  -0.387  0.00  0.00    +0.292 HD
ENDBRANCH   3   9
BRANCH   5  11
ATOM     11  O   LIG A   1       2.399   1.653  -0.653  0.00  0.00    -0.506 OA
ATOM     12  H   LIG A   1       2.637   2.592  -0.576  0.00  0.00    +0.292 HD
ENDBRANCH   5  11
BRANCH   6  13
ATOM     13  C   LIG A   1       1.312  -0.950  -0.465  0.00  0.00    +0.343 C 
ATOM     14  O   LIG A   1       1.151  -1.932  -1.164  0.00  0.00    -0.245 OA
BRANCH  13  15
ATOM     15  O   LIG A   1       2.176  -0.825   0.578  0.00  0.00    -0.461 OA
BRANCH  15  16
ATOM     16  C   LIG A   1       2.928  -1.999   0.898  0.00  0.00    +0.229 C 
ATOM     17  C   LIG A   1       2.076  -2.909   1.762  0.00  0.00    +0.048 C 
ENDBRANCH  15  16
ENDBRANCH  13  15
ENDBRANCH   6  13
TORSDOF 5
