REMARK  Name = NuBBE_2155
REMARK  11 active torsions:
REMARK  status: ('A' for Active; 'I' for Inactive)
REMARK    1  A    between atoms: C_1  and  O_2
REMARK    2  A    between atoms: O_2  and  C_3
REMARK    3  A    between atoms: C_10  and  C_11
REMARK    4  A    between atoms: C_13  and  C_15
REMARK    5  A    between atoms: C_18  and  C_19
REMARK    6  A    between atoms: C_19  and  C_20
REMARK    7  A    between atoms: C_20  and  C_21
REMARK    8  A    between atoms: C_23  and  O_25
REMARK    9  A    between atoms: O_25  and  C_26
REMARK   10  A    between atoms: C_27  and  O_28
REMARK   11  A    between atoms: O_28  and  C_29
REMARK                            x       y       z     vdW  Elec       q    Type
REMARK                         _______ _______ _______ _____ _____    ______ ____
ROOT
ATOM      1  C   LIG A   1      -1.414   0.841  -0.098  0.00  0.00    +0.073 C 
ATOM      2  C   LIG A   1      -1.117   2.361  -0.144  0.00  0.00    +0.178 C 
ATOM      3  C   LIG A   1      -2.331   3.253   0.086  0.00  0.00    +0.052 C 
ATOM      4  O   LIG A   1      -0.109   2.650   0.847  0.00  0.00    -0.488 OA
ATOM      5  C   LIG A   1       0.317   1.423   1.316  0.00  0.00    +0.150 C 
ATOM      6  C   LIG A   1      -0.734   0.372   1.221  0.00  0.00    +0.045 C 
ATOM      7  C   LIG A   1      -0.230  -1.089   1.206  0.00  0.00    +0.055 C 
ATOM      8  C   LIG A   1       1.295  -1.254   1.145  0.00  0.00    +0.193 C 
ATOM      9  C   LIG A   1       1.588   1.232   1.697  0.00  0.00    +0.203 C 
ATOM     10  C   LIG A   1       1.978  -0.196   2.024  0.00  0.00    +0.229 C 
ATOM     11  O   LIG A   1       2.820  -0.461   2.887  0.00  0.00    -0.286 OA
ENDROOT
BRANCH   1  19
ATOM     12  C   LIG A   1       0.819  -0.325  -3.066  0.00  0.00    +0.166 A 
ATOM     13  C   LIG A   1      -0.139  -0.963  -3.830  0.00  0.00    +0.207 A 
ATOM     14  O   LIG A   1       0.032  -1.577  -5.034  0.00  0.00    -0.449 OA
ATOM     15  C   LIG A   1      -1.316  -1.940  -5.369  0.00  0.00    +0.467 C 
ATOM     16  O   LIG A   1      -2.253  -1.669  -4.310  0.00  0.00    -0.453 OA
ATOM     17  C   LIG A   1      -1.451  -1.026  -3.415  0.00  0.00    +0.170 A 
ATOM     18  C   LIG A   1      -1.883  -0.479  -2.219  0.00  0.00    +0.053 A 
ATOM     19  C   LIG A   1      -0.948   0.187  -1.409  0.00  0.00    -0.033 A 
ATOM     20  C   LIG A   1       0.394   0.266  -1.864  0.00  0.00    +0.053 A 
BRANCH  12  22
ATOM     21  C   LIG A   1       2.621  -0.773  -4.548  0.00  0.00    +0.277 C 
ATOM     22  O   LIG A   1       2.149  -0.184  -3.340  0.00  0.00    -0.491 OA
ENDBRANCH  12  22
ENDBRANCH   1  19
BRANCH   8  23
ATOM     23  O   LIG A   1       1.655  -2.584   1.545  0.00  0.00    -0.372 OA
ATOM     24  C   LIG A   1       1.130  -3.613   0.718  0.00  0.00    +0.195 C 
ENDBRANCH   8  23
BRANCH   9  25
ATOM     25  O   LIG A   1       2.458   2.312   1.763  0.00  0.00    -0.489 OA
ATOM     26  C   LIG A   1       3.809   2.039   2.132  0.00  0.00    +0.277 C 
ENDBRANCH   9  25
BRANCH   6  27
ATOM     27  C   LIG A   1      -1.728   0.510   2.437  0.00  0.00    +0.015 C 
BRANCH  27  28
ATOM     28  C   LIG A   1      -1.076   0.330   3.826  0.00  0.00    -0.002 C 
ATOM     29  C   LIG A   1      -2.081   0.427   4.963  0.00  0.00    +0.004 C 
ENDBRANCH  27  28
ENDBRANCH   6  27
TORSDOF 6
