REMARK  Name = NuBBE_186
REMARK  20 active torsions:
REMARK  status: ('A' for Active; 'I' for Inactive)
REMARK    1  A    between atoms: C_2  and  O_3
REMARK    2  A    between atoms: C_2  and  C_4
REMARK    3  A    between atoms: C_4  and  C_5
REMARK    4  A    between atoms: C_5  and  C_6
REMARK    5  A    between atoms: C_6  and  C_7
REMARK    6  A    between atoms: C_7  and  C_8
REMARK    7  A    between atoms: C_8  and  C_9
REMARK    8  A    between atoms: C_9  and  C_10
REMARK    9  A    between atoms: C_10  and  C_11
REMARK   10  A    between atoms: C_11  and  C_12
REMARK   11  A    between atoms: C_12  and  C_13
REMARK   12  A    between atoms: C_13  and  C_14
REMARK   13  A    between atoms: C_14  and  C_15
REMARK   14  A    between atoms: C_15  and  C_16
REMARK   15  A    between atoms: C_16  and  C_17
REMARK   16  A    between atoms: C_17  and  C_18
REMARK   17  A    between atoms: C_18  and  C_19
REMARK   18  A    between atoms: C_19  and  C_20
REMARK   19  A    between atoms: C_20  and  C_21
REMARK   20  A    between atoms: C_21  and  C_22
REMARK                            x       y       z     vdW  Elec       q    Type
REMARK                         _______ _______ _______ _____ _____    ______ ____
ROOT
ATOM      1  C   LIG A   1      -2.860  -0.326   1.233  0.00  0.00    -0.000 C 
ENDROOT
BRANCH   1   2
ATOM      2  C   LIG A   1      -2.886  -1.619   2.127  0.00  0.00    -0.000 C 
BRANCH   2   3
ATOM      3  C   LIG A   1      -2.145  -1.538   3.484  0.00  0.00    -0.000 C 
BRANCH   3   4
ATOM      4  C   LIG A   1      -2.118  -2.821   4.369  0.00  0.00    +0.000 C 
BRANCH   4   5
ATOM      5  C   LIG A   1      -1.301  -4.058   3.882  0.00  0.00    +0.000 C 
BRANCH   5   6
ATOM      6  C   LIG A   1       0.198  -3.738   3.709  0.00  0.00    +0.005 C 
BRANCH   6   7
ATOM      7  C   LIG A   1       1.204  -4.802   3.201  0.00  0.00    +0.035 C 
BRANCH   7   8
ATOM      8  C   LIG A   1       1.115  -5.429   1.823  0.00  0.00    -0.044 A 
ATOM      9  C   LIG A   1       0.568  -4.806   0.692  0.00  0.00    +0.053 A 
ATOM     10  C   LIG A   1       0.352  -5.590  -0.434  0.00  0.00    +0.167 A 
ATOM     11  O   LIG A   1      -0.310  -5.213  -1.566  0.00  0.00    -0.453 OA
ATOM     12  C   LIG A   1      -0.481  -6.492  -2.220  0.00  0.00    +0.466 C 
ATOM     13  O   LIG A   1       0.273  -7.551  -1.600  0.00  0.00    -0.453 OA
ATOM     14  C   LIG A   1       0.720  -6.916  -0.484  0.00  0.00    +0.166 A 
ATOM     15  C   LIG A   1       1.418  -7.509   0.537  0.00  0.00    +0.050 A 
ATOM     16  C   LIG A   1       1.630  -6.749   1.688  0.00  0.00    +0.007 A 
ENDBRANCH   7   8
ENDBRANCH   6   7
ENDBRANCH   5   6
ENDBRANCH   4   5
ENDBRANCH   3   4
ENDBRANCH   2   3
ENDBRANCH   1   2
BRANCH   1  17
ATOM     17  C   LIG A   1      -3.613   0.847   1.883  0.00  0.00    -0.000 C 
BRANCH  17  18
ATOM     18  C   LIG A   1      -3.829   2.201   1.164  0.00  0.00    -0.000 C 
BRANCH  18  19
ATOM     19  C   LIG A   1      -2.669   3.148   0.779  0.00  0.00    -0.000 C 
BRANCH  19  20
ATOM     20  C   LIG A   1      -1.702   2.586  -0.276  0.00  0.00    -0.000 C 
BRANCH  20  21
ATOM     21  C   LIG A   1      -0.593   3.563  -0.755  0.00  0.00    -0.000 C 
BRANCH  21  22
ATOM     22  C   LIG A   1       0.381   2.922  -1.797  0.00  0.00    -0.000 C 
BRANCH  22  23
ATOM     23  C   LIG A   1       1.476   3.889  -2.354  0.00  0.00    -0.000 C 
BRANCH  23  24
ATOM     24  C   LIG A   1       2.503   3.234  -3.312  0.00  0.00    +0.000 C 
BRANCH  24  25
ATOM     25  C   LIG A   1       3.704   4.082  -3.826  0.00  0.00    +0.000 C 
BRANCH  25  26
ATOM     26  C   LIG A   1       3.483   5.355  -4.663  0.00  0.00    +0.011 C 
BRANCH  26  27
ATOM     27  C   LIG A   1       2.902   6.577  -3.958  0.00  0.00    +0.120 C 
BRANCH  27  29
ATOM     28  O   LIG A   1       3.838   6.653  -1.733  0.00  0.00    -0.251 OA
ATOM     29  C   LIG A   1       3.782   7.134  -2.900  0.00  0.00    +0.305 C 
BRANCH  29  30
ATOM     30  O   LIG A   1       4.524   8.180  -3.232  0.00  0.00    -0.481 OA
ATOM     31  H   LIG A   1       4.462   8.416  -4.194  0.00  0.00    +0.295 HD
ENDBRANCH  29  30
ENDBRANCH  27  29
ENDBRANCH  26  27
ENDBRANCH  25  26
ENDBRANCH  24  25
ENDBRANCH  23  24
ENDBRANCH  22  23
ENDBRANCH  21  22
ENDBRANCH  20  21
ENDBRANCH  19  20
ENDBRANCH  18  19
ENDBRANCH  17  18
ENDBRANCH   1  17
TORSDOF 20
