@<TRIPOS>MOLECULE
NuBBE_1208
 73 77 0 0 0
SMALL
GASTEIGER

@<TRIPOS>ATOM
      1 C          -1.3924    8.4611   -2.8766 C.3     1  LIG1       -0.0252
      2 C          -2.3223    7.5172   -2.0980 C.3     1  LIG1        0.1054
      3 C          -3.7748    7.8394   -2.4806 C.3     1  LIG1       -0.0252
      4 C          -2.0509    7.6736   -0.5961 C.3     1  LIG1       -0.0092
      5 C          -2.8319    6.6480    0.2182 C.3     1  LIG1       -0.0171
      6 C          -2.7478    5.2823   -0.4081 C.ar    1  LIG1        0.0367
      7 C          -2.3602    5.1495   -1.7430 C.ar    1  LIG1        0.1314
      8 C          -2.3150    3.8927   -2.3464 C.ar    1  LIG1        0.0228
      9 C          -2.6466    2.7473   -1.6204 C.ar    1  LIG1        0.1343
     10 O          -2.6499    1.5432   -2.2679 O.3     1  LIG1       -0.5058
     11 C          -3.0085    2.8352   -0.2727 C.ar    1  LIG1        0.1005
     12 C          -3.2804    1.6171    0.5634 C.2     1  LIG1        0.1705
     13 O          -4.0821    1.7235    1.4861 O.2     1  LIG1       -0.2918
     14 C          -2.5124    0.3214    0.2723 C.3     1  LIG1        0.0147
     15 C          -2.3631   -0.5819    1.5053 C.3     1  LIG1       -0.0207
     16 C          -1.5602   -1.8406    1.2312 C.ar    1  LIG1       -0.0465
     17 C          -2.1813   -3.0206    0.7974 C.ar    1  LIG1       -0.0551
     18 C          -1.4254   -4.1681    0.5267 C.ar    1  LIG1       -0.0194
     19 C          -0.0404   -4.1475    0.6755 C.ar    1  LIG1        0.1245
     20 O           0.6279   -5.2953    0.3335 O.3     1  LIG1       -0.4854
     21 C           2.0590   -5.1523    0.1206 C.3     1  LIG1        0.1115
     22 C           2.2387   -4.5308   -1.2809 C.3     1  LIG1       -0.0246
     23 C           2.6206   -6.5888    0.1064 C.3     1  LIG1       -0.0129
     24 C           4.1445   -6.6336    0.1346 C.3     1  LIG1       -0.0490
     25 C           4.6961   -5.9088    1.3583 C.3     1  LIG1       -0.0474
     26 C           4.2243   -4.4383    1.4845 C.3     1  LIG1       -0.0281
     27 C           5.0007   -3.5489    0.4950 C.3     1  LIG1       -0.0594
     28 C           4.6104   -3.9521    2.9050 C.3     1  LIG1       -0.0594
     29 C           2.6698   -4.3753    1.3209 C.3     1  LIG1        0.0079
     30 C           2.0811   -2.9593    1.3559 C.3     1  LIG1       -0.0173
     31 C           0.5922   -2.9976    1.1530 C.ar    1  LIG1       -0.0050
     32 C          -0.1702   -1.8468    1.4137 C.ar    1  LIG1       -0.0519
     33 C          -3.1039    4.1203    0.3070 C.ar    1  LIG1        0.1375
     34 O          -3.5562    4.3015    1.5930 O.3     1  LIG1       -0.5055
     35 O          -2.0036    6.1913   -2.5551 O.3     1  LIG1       -0.4857
     36 H          -1.5618    9.5098   -2.6112 H       1  LIG1        0.0268
     37 H          -1.5375    8.3494   -3.9578 H       1  LIG1        0.0268
     38 H          -0.3405    8.2191   -2.6842 H       1  LIG1        0.0268
     39 H          -4.0604    8.8463   -2.1595 H       1  LIG1        0.0268
     40 H          -4.4813    7.1250   -2.0461 H       1  LIG1        0.0268
     41 H          -3.9114    7.7714   -3.5665 H       1  LIG1        0.0268
     42 H          -2.2911    8.6876   -0.2534 H       1  LIG1        0.0307
     43 H          -0.9797    7.5177   -0.4062 H       1  LIG1        0.0307
     44 H          -3.8852    6.9449    0.2823 H       1  LIG1        0.0317
     45 H          -2.4276    6.6343    1.2372 H       1  LIG1        0.0317
     46 H          -2.0304    3.8330   -3.3931 H       1  LIG1        0.0691
     47 H          -2.3889    1.6750   -3.1960 H       1  LIG1        0.2922
     48 H          -1.5138    0.5823   -0.0978 H       1  LIG1        0.0348
     49 H          -3.0447   -0.2278   -0.5119 H       1  LIG1        0.0348
     50 H          -3.3489   -0.8694    1.8895 H       1  LIG1        0.0317
     51 H          -1.8802   -0.0264    2.3199 H       1  LIG1        0.0317
     52 H          -3.2600   -3.0601    0.6662 H       1  LIG1        0.0621
     53 H          -1.9153   -5.0758    0.1830 H       1  LIG1        0.0654
     54 H           1.6358   -5.0812   -2.0144 H       1  LIG1        0.0268
     55 H           3.2685   -4.5486   -1.6360 H       1  LIG1        0.0268
     56 H           1.8843   -3.4971   -1.3306 H       1  LIG1        0.0268
     57 H           2.2493   -7.1336   -0.7713 H       1  LIG1        0.0304
     58 H           2.2279   -7.1415    0.9711 H       1  LIG1        0.0304
     59 H           4.5624   -6.2050   -0.7822 H       1  LIG1        0.0267
     60 H           4.4718   -7.6798    0.1609 H       1  LIG1        0.0267
     61 H           5.7924   -5.9568    1.3409 H       1  LIG1        0.0271
     62 H           4.3826   -6.4676    2.2508 H       1  LIG1        0.0271
     63 H           6.0795   -3.6132    0.6822 H       1  LIG1        0.0235
     64 H           4.7290   -2.4933    0.5981 H       1  LIG1        0.0235
     65 H           4.8499   -3.8344   -0.5450 H       1  LIG1        0.0235
     66 H           5.6806   -4.0954    3.0940 H       1  LIG1        0.0235
     67 H           4.0636   -4.5043    3.6778 H       1  LIG1        0.0235
     68 H           4.3975   -2.8867    3.0420 H       1  LIG1        0.0235
     69 H           2.2648   -4.8803    2.2156 H       1  LIG1        0.0348
     70 H           2.5131   -2.3275    0.5733 H       1  LIG1        0.0318
     71 H           2.2943   -2.4908    2.3229 H       1  LIG1        0.0318
     72 H           0.3316   -0.9494    1.7698 H       1  LIG1        0.0624
     73 H          -4.0060    3.4725    1.8737 H       1  LIG1        0.2922
@<TRIPOS>BOND
     1     1     2    1
     2     2     3    1
     3     2     4    1
     4     4     5    1
     5     5     6    1
     6     6     7   ar
     7     7     8   ar
     8     8     9   ar
     9     9    10    1
    10     9    11   ar
    11    11    12    1
    12    12    13    2
    13    12    14    1
    14    14    15    1
    15    15    16    1
    16    16    17   ar
    17    17    18   ar
    18    18    19   ar
    19    19    20    1
    20    20    21    1
    21    21    22    1
    22    21    23    1
    23    23    24    1
    24    24    25    1
    25    25    26    1
    26    26    27    1
    27    26    28    1
    28    26    29    1
    29    21    29    1
    30    29    30    1
    31    30    31    1
    32    19    31   ar
    33    31    32   ar
    34    16    32   ar
    35    11    33   ar
    36     6    33   ar
    37    33    34    1
    38     7    35    1
    39     2    35    1
    40     1    36    1
    41     1    37    1
    42     1    38    1
    43     3    39    1
    44     3    40    1
    45     3    41    1
    46     4    42    1
    47     4    43    1
    48     5    44    1
    49     5    45    1
    50     8    46    1
    51    10    47    1
    52    14    48    1
    53    14    49    1
    54    15    50    1
    55    15    51    1
    56    17    52    1
    57    18    53    1
    58    22    54    1
    59    22    55    1
    60    22    56    1
    61    23    57    1
    62    23    58    1
    63    24    59    1
    64    24    60    1
    65    25    61    1
    66    25    62    1
    67    27    63    1
    68    27    64    1
    69    27    65    1
    70    28    66    1
    71    28    67    1
    72    28    68    1
    73    29    69    1
    74    30    70    1
    75    30    71    1
    76    32    72    1
    77    34    73    1
