@<TRIPOS>MOLECULE
NuBBE_414
 50 52 0 0 0
SMALL
GASTEIGER

@<TRIPOS>ATOM
      1 O          -1.1488   -4.6627    3.4909 O.3     1  LIG1       -0.3950
      2 C          -1.7599   -3.3851    3.3728 C.3     1  LIG1        0.0445
      3 C          -1.0838   -2.4005    4.3204 C.3     1  LIG1       -0.0257
      4 C           0.4149   -2.2198    4.0543 C.3     1  LIG1       -0.0255
      5 C           0.7237   -1.6578    2.6857 C.ar    1  LIG1       -0.0433
      6 C           0.7495   -0.2759    2.4710 C.ar    1  LIG1       -0.0512
      7 C           1.0448    0.1959    1.1968 C.ar    1  LIG1        0.0073
      8 C           1.2909   -0.6780    0.1471 C.ar    1  LIG1        0.1664
      9 O           1.5701   -0.0344   -1.0302 O.3     1  LIG1       -0.4796
     10 C           1.4144    1.3798   -0.7704 C.3     1  LIG1        0.1344
     11 H           2.3701    1.8313   -1.0746 H       1  LIG1        0.0791
     12 C           0.3455    1.9606   -1.6826 C.ar    1  LIG1       -0.0030
     13 C           0.4287    3.2975   -2.0872 C.ar    1  LIG1       -0.0514
     14 C          -0.5135    3.8374   -2.9696 C.ar    1  LIG1       -0.0161
     15 C          -1.5515    3.0379   -3.4605 C.ar    1  LIG1        0.1585
     16 O          -2.4657    3.6042   -4.3088 O.3     1  LIG1       -0.5033
     17 C          -1.6575    1.7051   -3.0702 C.ar    1  LIG1        0.1616
     18 O          -2.6302    0.8102   -3.4449 O.3     1  LIG1       -0.4914
     19 C          -3.1186    0.9429   -4.7728 C.3     1  LIG1        0.0790
     20 C          -0.7230    1.1818   -2.1640 C.ar    1  LIG1       -0.0096
     21 C           1.1611    1.6086    0.7372 C.3     1  LIG1        0.0520
     22 H           0.2260    2.1470    0.9318 H       1  LIG1        0.0412
     23 C           2.3442    2.3444    1.3771 C.3     1  LIG1        0.0548
     24 O           2.1282    2.6141    2.7598 O.3     1  LIG1       -0.3943
     25 C           1.2548   -2.0530    0.3193 C.ar    1  LIG1        0.1621
     26 O           1.4568   -3.0284   -0.6141 O.3     1  LIG1       -0.4914
     27 C           1.7665   -2.6079   -1.9365 C.3     1  LIG1        0.0790
     28 C           0.9712   -2.5304    1.6055 C.ar    1  LIG1       -0.0131
     29 H          -1.5354   -5.2260    2.7984 H       1  LIG1        0.2094
     30 H          -2.8196   -3.4865    3.6255 H       1  LIG1        0.0557
     31 H          -1.6933   -3.0508    2.3332 H       1  LIG1        0.0557
     32 H          -1.1949   -2.7712    5.3476 H       1  LIG1        0.0290
     33 H          -1.5975   -1.4335    4.2669 H       1  LIG1        0.0290
     34 H           0.9446   -3.1712    4.1892 H       1  LIG1        0.0314
     35 H           0.8321   -1.5465    4.8146 H       1  LIG1        0.0314
     36 H           0.5659    0.4151    3.2877 H       1  LIG1        0.0624
     37 H           1.2407    3.9326   -1.7367 H       1  LIG1        0.0623
     38 H          -0.4190    4.8754   -3.2665 H       1  LIG1        0.0655
     39 H          -2.2687    4.5452   -4.4106 H       1  LIG1        0.2923
     40 H          -3.6316    0.0085   -5.0283 H       1  LIG1        0.0660
     41 H          -2.3075    1.0795   -5.4976 H       1  LIG1        0.0660
     42 H          -3.8620    1.7409   -4.8458 H       1  LIG1        0.0660
     43 H          -0.8222    0.1435   -1.8617 H       1  LIG1        0.0659
     44 H           2.5048    3.3080    0.8817 H       1  LIG1        0.0564
     45 H           3.2720    1.7668    1.2910 H       1  LIG1        0.0564
     46 H           1.2949    3.1054    2.8487 H       1  LIG1        0.2094
     47 H           1.9069   -3.5049   -2.5472 H       1  LIG1        0.0660
     48 H           2.7064   -2.0470   -1.9638 H       1  LIG1        0.0660
     49 H           0.9397   -2.0412   -2.3771 H       1  LIG1        0.0660
     50 H           0.9347   -3.6070    1.7676 H       1  LIG1        0.0658
@<TRIPOS>BOND
     1     1     2    1
     2     2     3    1
     3     3     4    1
     4     4     5    1
     5     5     6   ar
     6     6     7   ar
     7     7     8   ar
     8     8     9    1
     9     9    10    1
    10    12    13   ar
    11    13    14   ar
    12    14    15   ar
    13    15    16    1
    14    15    17   ar
    15    17    18    1
    16    18    19    1
    17    17    20   ar
    18    12    20   ar
    19    10    21    1
    20    21    22    1
    21     7    21    1
    22    21    23    1
    23    23    24    1
    24     8    25   ar
    25    25    26    1
    26    26    27    1
    27    25    28   ar
    28     5    28   ar
    29    10    12    1
    30    10    11    1
    31     1    29    1
    32     2    30    1
    33     2    31    1
    34     3    32    1
    35     3    33    1
    36     4    34    1
    37     4    35    1
    38     6    36    1
    39    13    37    1
    40    14    38    1
    41    16    39    1
    42    19    40    1
    43    19    41    1
    44    19    42    1
    45    20    43    1
    46    23    44    1
    47    23    45    1
    48    24    46    1
    49    27    47    1
    50    27    48    1
    51    27    49    1
    52    28    50    1
