REMARK  Name = NuBBE_1984
REMARK  6 active torsions:
REMARK  status: ('A' for Active; 'I' for Inactive)
REMARK    1  A    between atoms: O_1  and  C_2
REMARK    2  A    between atoms: O_1  and  C_3
REMARK    3  A    between atoms: C_4  and  O_5
REMARK    4  A    between atoms: O_5  and  C_6
REMARK    5  A    between atoms: C_9  and  C_11
REMARK    6  A    between atoms: C_12  and  C_13
REMARK                            x       y       z     vdW  Elec       q    Type
REMARK                         _______ _______ _______ _____ _____    ______ ____
ROOT
ATOM      1  C   LIG A   1      -1.487   0.217   0.425  0.00  0.00    +0.162 A 
ATOM      2  C   LIG A   1      -0.785   1.429   0.296  0.00  0.00    +0.162 A 
ATOM      3  C   LIG A   1       0.568   1.384  -0.051  0.00  0.00    +0.050 A 
ATOM      4  C   LIG A   1       1.211   0.166  -0.278  0.00  0.00    +0.012 A 
ATOM      5  C   LIG A   1       0.514  -1.037  -0.208  0.00  0.00    -0.022 A 
ATOM      6  C   LIG A   1      -0.839  -1.003   0.154  0.00  0.00    +0.057 A 
ENDROOT
BRANCH   5   7
ATOM      7  C   LIG A   1       1.189  -2.323  -0.457  0.00  0.00    +0.003 C 
ATOM      8  C   LIG A   1       2.226  -2.451  -1.300  0.00  0.00    -0.030 C 
ATOM      9  C   LIG A   1       2.958  -3.722  -1.568  0.00  0.00    +0.035 C 
ENDBRANCH   5   7
BRANCH   1  10
ATOM     10  O   LIG A   1      -2.810   0.066   0.761  0.00  0.00    -0.491 OA
ATOM     11  C   LIG A   1      -3.343   1.022   1.672  0.00  0.00    +0.277 C 
ENDBRANCH   1  10
BRANCH   2  12
ATOM     12  O   LIG A   1      -1.458   2.607   0.501  0.00  0.00    -0.491 OA
ATOM     13  C   LIG A   1      -0.707   3.810   0.382  0.00  0.00    +0.277 C 
ENDBRANCH   2  12
TORSDOF 3
