@<TRIPOS>MOLECULE
NuBBE_2217
 26 27 0 0 0
SMALL
GASTEIGER

@<TRIPOS>ATOM
      1 C          -2.5470    0.1953    0.3647 C.3     1  LIG1       -0.0358
      2 C          -1.0756   -0.0848    0.2345 C.ar    1  LIG1       -0.0007
      3 C          -0.6182   -1.3503   -0.1181 C.ar    1  LIG1        0.0136
      4 C           0.7300   -1.5832   -0.2817 C.ar    1  LIG1        0.1078
      5 C           1.6936   -0.6048   -0.1186 C.ar    1  LIG1        0.1449
      6 C           1.2711    0.6784    0.2533 C.ar    1  LIG1        0.0981
      7 C          -0.1141    0.9436    0.4133 C.ar    1  LIG1        0.1371
      8 O          -0.6220    2.1435    0.8439 O.3     1  LIG1       -0.4940
      9 C          -0.3593    3.2520   -0.0145 C.3     1  LIG1        0.0788
     10 C           2.3328    1.6812    0.5056 C.2     1  LIG1        0.1573
     11 O           2.1897    2.6584    1.2282 O.2     1  LIG1       -0.2955
     12 O           3.0214   -0.8912   -0.2800 O.3     1  LIG1       -0.5051
     13 C           0.9283   -2.9810   -0.6067 C.2     1  LIG1        0.3435
     14 O           2.0159   -3.4986   -0.7938 O.2     1  LIG1       -0.2448
     15 O          -0.2988   -3.5651   -0.6481 O.3     1  LIG1       -0.4563
     16 C          -1.3482   -2.6173   -0.3514 C.3     1  LIG1        0.1191
     17 H          -3.1232   -0.7260    0.4963 H       1  LIG1        0.0279
     18 H          -2.9085    0.6978   -0.5384 H       1  LIG1        0.0279
     19 H          -2.7554    0.8243    1.2356 H       1  LIG1        0.0279
     20 H          -1.3150    3.7347   -0.2412 H       1  LIG1        0.0660
     21 H           0.1190    2.9771   -0.9604 H       1  LIG1        0.0660
     22 H           0.2540    3.9836    0.5190 H       1  LIG1        0.0660
     23 H           3.3013    1.4980    0.0099 H       1  LIG1        0.1084
     24 H           3.1299   -1.8481   -0.4810 H       1  LIG1        0.2922
     25 H          -1.8811   -2.9580    0.5409 H       1  LIG1        0.0749
     26 H          -2.0208   -2.5593   -1.2112 H       1  LIG1        0.0749
@<TRIPOS>BOND
     1     1     2    1
     2     2     3   ar
     3     3     4   ar
     4     4     5   ar
     5     5     6   ar
     6     6     7   ar
     7     2     7   ar
     8     7     8    1
     9     8     9    1
    10     6    10    1
    11    10    11    2
    12     5    12    1
    13     4    13    1
    14    13    14    2
    15    13    15    1
    16    15    16    1
    17     3    16    1
    18     1    17    1
    19     1    18    1
    20     1    19    1
    21     9    20    1
    22     9    21    1
    23     9    22    1
    24    10    23    1
    25    12    24    1
    26    16    25    1
    27    16    26    1
