@<TRIPOS>MOLECULE
NuBBE_1781
 37 38 0 0 0
SMALL
GASTEIGER

@<TRIPOS>ATOM
      1 C           0.8895    0.7262   -0.1459 C.3     1  LIG1       -0.0113
      2 C           0.5765    0.1011   -1.5133 C.3     1  LIG1       -0.0243
      3 C          -0.8570   -0.3577   -1.6231 C.ar    1  LIG1       -0.0470
      4 C          -1.8322    0.5244   -2.0953 C.ar    1  LIG1       -0.0551
      5 C          -3.1642    0.1244   -2.1953 C.ar    1  LIG1       -0.0197
      6 C          -3.5490   -1.1666   -1.8335 C.ar    1  LIG1        0.1201
      7 C          -2.5786   -2.0577   -1.3692 C.ar    1  LIG1       -0.0197
      8 C          -1.2409   -1.6549   -1.2576 C.ar    1  LIG1       -0.0551
      9 O          -4.8316   -1.6462   -1.8994 O.3     1  LIG1       -0.4951
     10 C          -5.8083   -0.7164   -2.3642 C.3     1  LIG1        0.0788
     11 C           2.3493    1.2127   -0.0607 C.3     1  LIG1        0.1105
     12 H           2.5075    1.9552   -0.8526 H       1  LIG1        0.0738
     13 C           2.7157    1.8710    1.2687 C.3     1  LIG1        0.0423
     14 C           2.8389    0.8327    2.3437 C.2     1  LIG1        0.1076
     15 C           3.2701   -0.3969    2.0201 C.2     1  LIG1        0.0600
     16 C           3.6492   -0.7250    0.6367 C.2     1  LIG1        0.3354
     17 O           4.2986   -1.7421    0.3987 O.2     1  LIG1       -0.2455
     18 O           3.2619    0.1272   -0.3419 O.3     1  LIG1       -0.4578
     19 O           2.4674    1.2796    3.5901 O.2     1  LIG1       -0.4990
     20 C           2.5188    0.3594    4.6756 C.3     1  LIG1        0.0783
     21 H           0.6849   -0.0174    0.6332 H       1  LIG1        0.0304
     22 H           0.2157    1.5732    0.0396 H       1  LIG1        0.0304
     23 H           1.2382   -0.7495   -1.7131 H       1  LIG1        0.0314
     24 H           0.7759    0.8315   -2.3087 H       1  LIG1        0.0314
     25 H          -1.5664    1.5334   -2.3990 H       1  LIG1        0.0621
     26 H          -3.8764    0.8524   -2.5657 H       1  LIG1        0.0654
     27 H          -2.8594   -3.0722   -1.0938 H       1  LIG1        0.0654
     28 H          -0.5012   -2.3647   -0.8927 H       1  LIG1        0.0621
     29 H          -6.7798   -1.2161   -2.4035 H       1  LIG1        0.0660
     30 H          -5.5732   -0.3746   -3.3788 H       1  LIG1        0.0660
     31 H          -5.8962    0.1317   -1.6751 H       1  LIG1        0.0660
     32 H           1.9810    2.6385    1.5348 H       1  LIG1        0.0379
     33 H           3.6913    2.3666    1.1776 H       1  LIG1        0.0379
     34 H           3.4168   -1.1944    2.7352 H       1  LIG1        0.0722
     35 H           2.1242    0.8647    5.5624 H       1  LIG1        0.0660
     36 H           3.5517    0.0635    4.8841 H       1  LIG1        0.0660
     37 H           1.8916   -0.5169    4.4821 H       1  LIG1        0.0660
@<TRIPOS>BOND
     1     1     2    1
     2     2     3    1
     3     3     4   ar
     4     4     5   ar
     5     5     6   ar
     6     6     7   ar
     7     7     8   ar
     8     3     8   ar
     9     6     9    1
    10     9    10    1
    11     1    11    1
    12    11    12    1
    13    11    13    1
    14    13    14    1
    15    14    15    2
    16    15    16    1
    17    16    17    2
    18    16    18    1
    19    11    18    1
    20    14    19    1
    21    19    20    1
    22     1    21    1
    23     1    22    1
    24     2    23    1
    25     2    24    1
    26     4    25    1
    27     5    26    1
    28     7    27    1
    29     8    28    1
    30    10    29    1
    31    10    30    1
    32    10    31    1
    33    13    32    1
    34    13    33    1
    35    15    34    1
    36    20    35    1
    37    20    36    1
    38    20    37    1
