REMARK  Name = NuBBE_2137
REMARK  2 active torsions:
REMARK  status: ('A' for Active; 'I' for Inactive)
REMARK    1  A    between atoms: C_1  and  C_2
REMARK    2  A    between atoms: C_2  and  C_3
REMARK                            x       y       z     vdW  Elec       q    Type
REMARK                         _______ _______ _______ _____ _____    ______ ____
ROOT
ATOM      1  C   LIG A   1      -0.257   0.557  -0.039  0.00  0.00    -0.074 C 
ATOM      2  C   LIG A   1       0.510   0.642   1.065  0.00  0.00    -0.028 C 
ATOM      3  C   LIG A   1       0.952  -0.546   1.869  0.00  0.00    +0.027 C 
ATOM      4  C   LIG A   1       0.184  -1.823   1.529  0.00  0.00    +0.004 C 
ATOM      5  C   LIG A   1       0.014  -1.974   0.022  0.00  0.00    +0.005 C 
ATOM      6  C   LIG A   1      -0.728  -0.775  -0.576  0.00  0.00    +0.030 C 
ENDROOT
BRANCH   1   8
ATOM      7  C   LIG A   1       0.050   2.023  -2.069  0.00  0.00    +0.008 C 
ATOM      8  C   LIG A   1      -0.719   1.791  -0.776  0.00  0.00    +0.027 C 
ENDBRANCH   1   8
TORSDOF 1
