@<TRIPOS>MOLECULE
NuBBE_2188
 47 50 0 0 0
SMALL
GASTEIGER

@<TRIPOS>ATOM
      1 O          -4.7341    0.6711   -0.5600 O.2     1  LIG1       -0.2968
      2 C          -3.5221    0.6378   -0.7776 C.2     1  LIG1        0.1392
      3 C          -2.7770    1.9214   -1.0518 C.3     1  LIG1        0.0072
      4 C          -1.2668    1.7777   -0.9163 C.3     1  LIG1       -0.0366
      5 C          -0.8273    0.8255    0.2229 C.3     1  LIG1       -0.0025
      6 C          -1.4208    1.3457    1.5749 C.3     1  LIG1       -0.0552
      7 C          -1.4206   -0.6248   -0.0076 C.3     1  LIG1       -0.0161
      8 C          -0.4324   -1.7222   -0.4610 C.3     1  LIG1       -0.0069
      9 C           1.0427   -1.5782   -0.1277 C.3     1  LIG1        0.1289
     10 O           1.4579   -2.6151    0.7664 O.3     1  LIG1       -0.4563
     11 H           1.5688   -1.7603   -1.0785 H       1  LIG1        0.0785
     12 C           1.5057   -0.2492    0.3607 C.ar    1  LIG1        0.0004
     13 C           0.6982    0.8894    0.3898 C.ar    1  LIG1       -0.0342
     14 C           1.3373    2.1180    0.6534 C.ar    1  LIG1       -0.0574
     15 C           2.7109    2.2015    0.8947 C.ar    1  LIG1       -0.0583
     16 C           3.4959    1.0495    0.9346 C.ar    1  LIG1       -0.0464
     17 C           4.9685    1.1628    1.2113 C.3     1  LIG1       -0.0394
     18 C           2.8757   -0.1896    0.7053 C.ar    1  LIG1       -0.0269
     19 C           3.6449   -1.4936    0.7765 C.3     1  LIG1        0.0707
     20 C           2.8020   -2.7510    0.9357 C.2     1  LIG1        0.3120
     21 O           3.3002   -3.8353    1.2154 O.2     1  LIG1       -0.2505
     22 H          -1.7219   -0.9605    0.9978 H       1  LIG1        0.0320
     23 C          -2.7435   -0.6746   -0.8911 C.3     1  LIG1        0.0271
     24 C          -3.6393   -1.8321   -0.3947 C.3     1  LIG1       -0.0528
     25 C          -2.5228   -0.8970   -2.4068 C.3     1  LIG1       -0.0528
     26 H          -3.1402    2.6694   -0.3368 H       1  LIG1        0.0342
     27 H          -3.0307    2.2682   -2.0588 H       1  LIG1        0.0342
     28 H          -0.8672    2.7895   -0.7751 H       1  LIG1        0.0278
     29 H          -0.8325    1.4380   -1.8637 H       1  LIG1        0.0278
     30 H          -2.5098    1.2435    1.6214 H       1  LIG1        0.0238
     31 H          -1.1944    2.4042    1.7469 H       1  LIG1        0.0238
     32 H          -1.0117    0.7839    2.4246 H       1  LIG1        0.0238
     33 H          -0.4639   -1.8187   -1.5487 H       1  LIG1        0.0307
     34 H          -0.7958   -2.6887   -0.0851 H       1  LIG1        0.0307
     35 H           0.7704    3.0468    0.6828 H       1  LIG1        0.0621
     36 H           3.1550    3.1795    1.0717 H       1  LIG1        0.0620
     37 H           5.2846    2.2086    1.2892 H       1  LIG1        0.0278
     38 H           5.5423    0.7089    0.3966 H       1  LIG1        0.0278
     39 H           5.2195    0.6688    2.1547 H       1  LIG1        0.0278
     40 H           4.2881   -1.4640    1.6653 H       1  LIG1        0.0426
     41 H           4.2586   -1.5970   -0.1216 H       1  LIG1        0.0426
     42 H          -3.9518   -1.6748    0.6437 H       1  LIG1        0.0239
     43 H          -3.1214   -2.7951   -0.4513 H       1  LIG1        0.0239
     44 H          -4.5514   -1.9173   -0.9980 H       1  LIG1        0.0239
     45 H          -2.2682   -1.9381   -2.6354 H       1  LIG1        0.0239
     46 H          -1.7284   -0.2644   -2.8116 H       1  LIG1        0.0239
     47 H          -3.4313   -0.6680   -2.9773 H       1  LIG1        0.0239
@<TRIPOS>BOND
     1     1     2    2
     2     2     3    1
     3     3     4    1
     4     4     5    1
     5     5     6    1
     6     5     7    1
     7     7     8    1
     8     8     9    1
     9     9    10    1
    10     9    11    1
    11     9    12    1
    12    12    13   ar
    13     5    13    1
    14    13    14   ar
    15    14    15   ar
    16    15    16   ar
    17    16    17    1
    18    16    18   ar
    19    12    18   ar
    20    18    19    1
    21    19    20    1
    22    10    20    1
    23    20    21    2
    24     7    22    1
    25     7    23    1
    26    23    24    1
    27     2    23    1
    28    23    25    1
    29     3    26    1
    30     3    27    1
    31     4    28    1
    32     4    29    1
    33     6    30    1
    34     6    31    1
    35     6    32    1
    36     8    33    1
    37     8    34    1
    38    14    35    1
    39    15    36    1
    40    17    37    1
    41    17    38    1
    42    17    39    1
    43    19    40    1
    44    19    41    1
    45    24    42    1
    46    24    43    1
    47    24    44    1
    48    25    45    1
    49    25    46    1
    50    25    47    1
