@<TRIPOS>MOLECULE
NuBBE_2008
 35 37 0 0 0
SMALL
GASTEIGER

@<TRIPOS>ATOM
      1 O          -2.1327   -0.9286   -4.7967 O.3     1  LIG1       -0.5068
      2 C          -2.1034   -0.8075   -3.4397 C.ar    1  LIG1        0.1169
      3 C          -2.6451    0.2976   -2.7977 C.ar    1  LIG1       -0.0198
      4 C          -2.5906    0.3736   -1.4037 C.ar    1  LIG1       -0.0516
      5 C          -1.5141   -1.8310   -2.7103 C.ar    1  LIG1       -0.0198
      6 C          -1.4617   -1.7557   -1.3151 C.ar    1  LIG1       -0.0516
      7 C          -1.9938   -0.6477   -0.6377 C.ar    1  LIG1       -0.0067
      8 C          -1.9847   -0.5033    0.8810 C.3     1  LIG1        0.1322
      9 H          -3.0445   -0.4616    1.1684 H       1  LIG1        0.0789
     10 O          -1.4371    0.7755    1.2602 O.3     1  LIG1       -0.4828
     11 C          -1.3741   -1.6199    1.7193 C.3     1  LIG1        0.0520
     12 C           0.1208   -1.5987    1.5874 C.2     1  LIG1        0.1740
     13 C           0.7564   -0.2851    1.3847 C.ar    1  LIG1        0.1009
     14 C          -0.0676    0.8309    1.2514 C.ar    1  LIG1        0.1389
     15 C           0.4957    2.0986    1.1196 C.ar    1  LIG1        0.0228
     16 C           1.8844    2.2399    1.0977 C.ar    1  LIG1        0.1267
     17 O           2.4351    3.4818    0.9429 O.3     1  LIG1       -0.5063
     18 C           2.7333    1.1325    1.2295 C.ar    1  LIG1        0.0332
     19 C           4.2291    1.2805    1.1811 C.3     1  LIG1       -0.0327
     20 C           2.1511   -0.1374    1.3637 C.ar    1  LIG1        0.1372
     21 O           2.9931   -1.2156    1.4804 O.3     1  LIG1       -0.5056
     22 O           0.8103   -2.6091    1.7060 O.2     1  LIG1       -0.2917
     23 H          -2.5572   -0.1392   -5.1702 H       1  LIG1        0.2921
     24 H          -3.1107    1.1029   -3.3566 H       1  LIG1        0.0654
     25 H          -3.0181    1.2444   -0.9085 H       1  LIG1        0.0623
     26 H          -1.0943   -2.6906   -3.2262 H       1  LIG1        0.0654
     27 H          -0.9954   -2.5837   -0.7872 H       1  LIG1        0.0623
     28 H          -1.7582   -2.6008    1.4220 H       1  LIG1        0.0385
     29 H          -1.6000   -1.4667    2.7814 H       1  LIG1        0.0385
     30 H          -0.1570    2.9606    1.0211 H       1  LIG1        0.0691
     31 H           1.7267    4.1393    0.8499 H       1  LIG1        0.2921
     32 H           4.5488    2.3075    1.3831 H       1  LIG1        0.0280
     33 H           4.6002    0.9915    0.1928 H       1  LIG1        0.0280
     34 H           4.7066    0.6532    1.9414 H       1  LIG1        0.0280
     35 H           2.4485   -2.0278    1.5847 H       1  LIG1        0.2922
@<TRIPOS>BOND
     1     1     2    1
     2     2     3   ar
     3     3     4   ar
     4     2     5   ar
     5     5     6   ar
     6     6     7   ar
     7     4     7   ar
     8     8    10    1
     9     8    11    1
    10    11    12    1
    11    12    13    1
    12    13    14   ar
    13    10    14    1
    14    14    15   ar
    15    15    16   ar
    16    16    17    1
    17    16    18   ar
    18    18    19    1
    19    13    20   ar
    20    18    20   ar
    21    20    21    1
    22    12    22    2
    23     8     9    1
    24     8     7    1
    25     1    23    1
    26     3    24    1
    27     4    25    1
    28     5    26    1
    29     6    27    1
    30    11    28    1
    31    11    29    1
    32    15    30    1
    33    17    31    1
    34    19    32    1
    35    19    33    1
    36    19    34    1
    37    21    35    1
