REMARK  Name = NuBBE_2210
REMARK  3 active torsions:
REMARK  status: ('A' for Active; 'I' for Inactive)
REMARK    1  A    between atoms: C_6  and  C_8
REMARK    2  A    between atoms: C_6  and  C_9
REMARK    3  A    between atoms: C_12  and  O_14
REMARK                            x       y       z     vdW  Elec       q    Type
REMARK                         _______ _______ _______ _____ _____    ______ ____
ROOT
ATOM      1  O   LIG A   1      -2.666   0.372   1.094  0.00  0.00    -0.292 OA
ATOM      2  C   LIG A   1      -1.473   0.431   0.825  0.00  0.00    +0.171 C 
ATOM      3  C   LIG A   1      -0.688  -0.780   0.525  0.00  0.00    +0.063 A 
ATOM      4  C   LIG A   1       0.640  -0.632   0.118  0.00  0.00    +0.132 A 
ATOM      5  O   LIG A   1       1.248   0.575  -0.102  0.00  0.00    -0.485 OA
ATOM      6  C   LIG A   1       0.356   1.697  -0.258  0.00  0.00    +0.112 C 
ATOM      7  C   LIG A   1      -0.698   1.717   0.850  0.00  0.00    +0.127 C 
ATOM      8  C   LIG A   1      -0.263   1.687  -1.668  0.00  0.00    +0.056 C 
ATOM      9  C   LIG A   1       1.227   2.956  -0.130  0.00  0.00    +0.056 C 
ATOM     10  C   LIG A   1       1.425  -1.768  -0.086  0.00  0.00    +0.050 A 
ATOM     11  C   LIG A   1       0.871  -3.041   0.074  0.00  0.00    +0.049 A 
ATOM     12  C   LIG A   1      -0.467  -3.168   0.441  0.00  0.00    +0.118 A 
ATOM     13  C   LIG A   1      -1.254  -2.045   0.672  0.00  0.00    +0.060 A 
ENDROOT
BRANCH  12  14
ATOM     14  O   LIG A   1      -1.048  -4.391   0.594  0.00  0.00    -0.507 OA
ATOM     15  H   LIG A   1      -0.393  -5.081   0.396  0.00  0.00    +0.292 HD
ENDBRANCH  12  14
TORSDOF 1
