REMARK  Name = NuBBE_1844
REMARK  6 active torsions:
REMARK  status: ('A' for Active; 'I' for Inactive)
REMARK    1  A    between atoms: O_1  and  C_2
REMARK    2  A    between atoms: C_3  and  C_4
REMARK    3  A    between atoms: C_4  and  C_5
REMARK    4  A    between atoms: C_5  and  C_6
REMARK    5  A    between atoms: C_6  and  C_7
REMARK    6  A    between atoms: C_18  and  O_19
REMARK                            x       y       z     vdW  Elec       q    Type
REMARK                         _______ _______ _______ _____ _____    ______ ____
ROOT
ATOM      1  C   LIG A   1      -1.888  -0.909  -0.453  0.00  0.00    +0.039 C 
ENDROOT
BRANCH   1   3
ATOM      2  C   LIG A   1      -1.600  -2.982  -1.913  0.00  0.00    +0.123 A 
ATOM      3  C   LIG A   1      -1.489  -2.353  -0.666  0.00  0.00    -0.006 A 
ATOM      4  C   LIG A   1      -1.004  -3.109   0.416  0.00  0.00    +0.011 A 
ATOM      5  C   LIG A   1      -0.603  -4.436   0.246  0.00  0.00    +0.046 A 
ATOM      6  C   LIG A   1      -0.701  -5.021  -1.010  0.00  0.00    +0.120 A 
ATOM      7  C   LIG A   1      -1.208  -4.309  -2.091  0.00  0.00    +0.091 A 
BRANCH   2   8
ATOM      8  O   LIG A   1      -2.101  -2.278  -2.973  0.00  0.00    -0.506 OA
ATOM      9  H   LIG A   1      -2.150  -2.870  -3.741  0.00  0.00    +0.292 HD
ENDBRANCH   2   8
BRANCH   6  10
ATOM     10  O   LIG A   1      -0.304  -6.308  -1.226  0.00  0.00    -0.507 OA
ATOM     11  H   LIG A   1       0.094  -6.649  -0.408  0.00  0.00    +0.292 HD
ENDBRANCH   6  10
ENDBRANCH   1   3
BRANCH   1  12
ATOM     12  C   LIG A   1      -0.719  -0.036   0.025  0.00  0.00    +0.009 C 
BRANCH  12  13
ATOM     13  C   LIG A   1      -1.154   1.417   0.227  0.00  0.00    +0.035 C 
BRANCH  13  14
ATOM     14  C   LIG A   1      -0.013   2.286   0.703  0.00  0.00    -0.044 A 
ATOM     15  C   LIG A   1       0.813   2.939  -0.227  0.00  0.00    +0.053 A 
ATOM     16  C   LIG A   1       1.860   3.698   0.252  0.00  0.00    +0.167 A 
ATOM     17  O   LIG A   1       2.758   4.383  -0.507  0.00  0.00    -0.453 OA
ATOM     18  C   LIG A   1       3.628   4.911   0.515  0.00  0.00    +0.466 C 
ATOM     19  O   LIG A   1       3.187   4.612   1.856  0.00  0.00    -0.453 OA
ATOM     20  C   LIG A   1       2.105   3.830   1.597  0.00  0.00    +0.166 A 
ATOM     21  C   LIG A   1       1.314   3.210   2.542  0.00  0.00    +0.050 A 
ATOM     22  C   LIG A   1       0.249   2.427   2.085  0.00  0.00    +0.007 A 
ENDBRANCH  13  14
ENDBRANCH  12  13
ENDBRANCH   1  12
TORSDOF 6
