REMARK  Name = NuBBE_47
REMARK  20 active torsions:
REMARK  status: ('A' for Active; 'I' for Inactive)
REMARK    1  A    between atoms: C_1  and  C_2
REMARK    2  A    between atoms: C_5  and  O_7
REMARK    3  A    between atoms: C_10  and  O_12
REMARK    4  A    between atoms: O_12  and  C_13
REMARK    5  A    between atoms: C_13  and  C_14
REMARK    6  A    between atoms: C_14  and  C_15
REMARK    7  A    between atoms: C_15  and  C_16
REMARK    8  A    between atoms: C_19  and  O_21
REMARK    9  A    between atoms: O_21  and  C_22
REMARK   10  A    between atoms: C_22  and  C_23
REMARK   11  A    between atoms: C_26  and  O_28
REMARK   12  A    between atoms: O_28  and  C_29
REMARK   13  A    between atoms: C_29  and  C_30
REMARK   14  A    between atoms: C_30  and  C_31
REMARK   15  A    between atoms: C_31  and  C_32
REMARK   16  A    between atoms: C_37  and  C_38
REMARK   17  A    between atoms: C_37  and  C_39
REMARK   18  A    between atoms: C_39  and  C_40
REMARK   19  A    between atoms: C_41  and  C_42
REMARK   20  A    between atoms: C_41  and  C_44
REMARK                            x       y       z     vdW  Elec       q    Type
REMARK                         _______ _______ _______ _____ _____    ______ ____
ROOT
ATOM      1  C   LIG A   1      -2.185   1.367   3.857  0.00  0.00    +0.008 C 
ATOM      2  C   LIG A   1      -1.614   0.833   2.543  0.00  0.00    -0.005 C 
ATOM      3  C   LIG A   1      -0.748  -0.412   2.831  0.00  0.00    +0.036 C 
ATOM      4  C   LIG A   1       0.730  -0.272   2.489  0.00  0.00    +0.131 C 
ATOM      5  C   LIG A   1       0.949   0.144   0.989  0.00  0.00    +0.089 C 
ATOM      6  C   LIG A   1       1.039  -1.171   0.243  0.00  0.00    +0.012 C 
ATOM      7  C   LIG A   1       2.436  -1.724   0.417  0.00  0.00    +0.343 C 
ATOM      8  O   LIG A   1       3.234  -0.587   0.806  0.00  0.00    -0.297 OA
ATOM      9  C   LIG A   1       2.417   0.607   0.719  0.00  0.00    +0.327 C 
ATOM     10  C   LIG A   1       0.056  -1.698  -0.497  0.00  0.00    +0.023 C 
ATOM     11  C   LIG A   1      -1.241  -1.013  -0.738  0.00  0.00    +0.200 C 
ATOM     12  C   LIG A   1      -1.115   0.516  -0.617  0.00  0.00    +0.054 C 
ATOM     13  C   LIG A   1      -0.169   1.140   0.466  0.00  0.00    +0.018 C 
ATOM     14  C   LIG A   1      -0.972   1.925   1.602  0.00  0.00    -0.022 C 
ATOM     15  C   LIG A   1      -2.150   2.771   1.006  0.00  0.00    +0.012 C 
ENDROOT
BRANCH   4  16
ATOM     16  O   LIG A   1       1.366   0.594   3.415  0.00  0.00    -0.391 OA
ATOM     17  H   LIG A   1       1.164   0.287   4.317  0.00  0.00    +0.210 HD
ENDBRANCH   4  16
BRANCH   7  18
ATOM     18  O   LIG A   1       2.876  -2.286  -0.822  0.00  0.00    -0.431 OA
BRANCH  18  19
ATOM     19  C   LIG A   1       2.709  -3.633  -0.942  0.00  0.00    +0.309 C 
ATOM     20  O   LIG A   1       2.568  -4.425  -0.018  0.00  0.00    -0.251 OA
BRANCH  19  21
ATOM     21  C   LIG A   1       2.629  -3.993  -2.420  0.00  0.00    +0.120 C 
BRANCH  21  22
ATOM     22  C   LIG A   1       2.283  -5.463  -2.664  0.00  0.00    +0.008 C 
ATOM     23  C   LIG A   1       2.179  -5.794  -4.148  0.00  0.00    +0.004 C 
ENDBRANCH  21  22
ENDBRANCH  19  21
ENDBRANCH  18  19
ENDBRANCH   7  18
BRANCH   9  24
ATOM     24  O   LIG A   1       2.643   1.154  -0.593  0.00  0.00    -0.434 OA
BRANCH  24  25
ATOM     25  C   LIG A   1       3.700   2.025  -0.632  0.00  0.00    +0.306 C 
ATOM     26  C   LIG A   1       4.706   1.636  -1.688  0.00  0.00    +0.136 C 
ATOM     27  O   LIG A   1       3.838   2.980   0.103  0.00  0.00    -0.251 OA
ENDBRANCH  24  25
ENDBRANCH   9  24
BRANCH  11  28
ATOM     28  O   LIG A   1      -1.743  -1.268  -2.074  0.00  0.00    -0.457 OA
BRANCH  28  29
ATOM     29  C   LIG A   1      -2.138  -2.542  -2.356  0.00  0.00    +0.308 C 
ATOM     30  O   LIG A   1      -1.389  -3.510  -2.405  0.00  0.00    -0.251 OA
BRANCH  29  31
ATOM     31  C   LIG A   1      -3.627  -2.583  -2.579  0.00  0.00    +0.120 C 
BRANCH  31  32
ATOM     32  C   LIG A   1      -4.129  -3.970  -2.981  0.00  0.00    +0.008 C 
ATOM     33  C   LIG A   1      -5.641  -3.963  -3.137  0.00  0.00    +0.004 C 
ENDBRANCH  31  32
ENDBRANCH  29  31
ENDBRANCH  28  29
ENDBRANCH  11  28
BRANCH  14  34
ATOM     34  C   LIG A   1      -0.075   3.011   2.347  0.00  0.00    +0.034 C 
BRANCH  34  35
ATOM     35  C   LIG A   1       0.545   4.106   1.493  0.00  0.00    -0.023 C 
ATOM     36  C   LIG A   1       0.405   5.448   1.527  0.00  0.00    -0.055 C 
ATOM     37  C   LIG A   1       1.132   6.319   0.523  0.00  0.00    +0.043 C 
BRANCH  36  38
ATOM     38  C   LIG A   1      -0.452   6.206   2.419  0.00  0.00    -0.005 C 
ATOM     39  C   LIG A   1      -0.379   6.228   3.755  0.00  0.00    +0.008 C 
ENDBRANCH  36  38
ENDBRANCH  34  35
ENDBRANCH  14  34
TORSDOF 14
