REMARK  Name = NuBBE_2193
REMARK  8 active torsions:
REMARK  status: ('A' for Active; 'I' for Inactive)
REMARK    1  A    between atoms: C_1  and  C_2
REMARK    2  A    between atoms: C_5  and  O_7
REMARK    3  A    between atoms: C_8  and  O_9
REMARK    4  A    between atoms: C_14  and  C_15
REMARK    5  A    between atoms: C_14  and  C_17
REMARK    6  A    between atoms: C_20  and  C_21
REMARK    7  A    between atoms: C_20  and  C_22
REMARK    8  A    between atoms: C_22  and  O_23
REMARK                            x       y       z     vdW  Elec       q    Type
REMARK                         _______ _______ _______ _____ _____    ______ ____
ROOT
ATOM      1  C   LIG A   1      -2.392  -0.252  -0.809  0.00  0.00    +0.012 C 
ATOM      2  C   LIG A   1      -1.048  -0.562  -0.092  0.00  0.00    -0.023 C 
ATOM      3  C   LIG A   1      -0.119  -1.529  -0.908  0.00  0.00    +0.006 C 
ATOM      4  C   LIG A   1       0.620  -0.782  -2.027  0.00  0.00    +0.039 C 
ATOM      5  C   LIG A   1       1.557   0.307  -1.474  0.00  0.00    +0.147 C 
ATOM      6  C   LIG A   1       1.175   0.852  -0.056  0.00  0.00    +0.096 C 
ATOM      7  C   LIG A   1      -0.363   0.863   0.092  0.00  0.00    +0.030 C 
ATOM      8  C   LIG A   1      -0.815   1.617   1.357  0.00  0.00    +0.008 C 
ATOM      9  C   LIG A   1      -0.276   3.045   1.366  0.00  0.00    +0.011 C 
ATOM     10  C   LIG A   1       1.264   3.127   1.302  0.00  0.00    -0.012 C 
ATOM     11  C   LIG A   1       1.886   2.659   2.635  0.00  0.00    +0.015 C 
ATOM     12  C   LIG A   1       1.796   2.264   0.119  0.00  0.00    +0.048 C 
ATOM     13  C   LIG A   1      -0.788  -2.892  -1.324  0.00  0.00    -0.005 C 
ATOM     14  C   LIG A   1       0.332  -3.966  -1.438  0.00  0.00    +0.014 C 
ATOM     15  C   LIG A   1      -1.775  -3.367  -0.216  0.00  0.00    +0.009 C 
ATOM     16  C   LIG A   1      -1.433  -2.818   1.167  0.00  0.00    +0.001 C 
ATOM     17  C   LIG A   1      -1.373  -1.282   1.249  0.00  0.00    +0.007 C 
ENDROOT
BRANCH   5  18
ATOM     18  O   LIG A   1       2.890  -0.218  -1.423  0.00  0.00    -0.389 OA
ATOM     19  H   LIG A   1       2.993  -0.540  -0.502  0.00  0.00    +0.210 HD
ENDBRANCH   5  18
BRANCH   6  20
ATOM     20  O   LIG A   1       1.789  -0.031   0.900  0.00  0.00    -0.386 OA
ATOM     21  H   LIG A   1       1.290   0.004   1.731  0.00  0.00    +0.210 HD
ENDBRANCH   6  20
BRANCH  10  22
ATOM     22  C   LIG A   1       1.615   4.594   1.018  0.00  0.00    -0.028 C 
ATOM     23  C   LIG A   1       1.966   5.541   1.897  0.00  0.00    +0.004 C 
ENDBRANCH  10  22
BRANCH  13  24
ATOM     24  C   LIG A   1      -1.500  -2.834  -2.701  0.00  0.00    +0.162 C 
BRANCH  24  25
ATOM     25  O   LIG A   1      -2.095  -4.081  -3.051  0.00  0.00    -0.395 OA
ATOM     26  H   LIG A   1      -2.820  -4.254  -2.428  0.00  0.00    +0.209 HD
ENDBRANCH  24  25
ENDBRANCH  13  24
TORSDOF 5
