@<TRIPOS>MOLECULE
NuBBE_1525
 75 76 0 0 0
SMALL
GASTEIGER

@<TRIPOS>ATOM
      1 C          -1.1539    0.7647   -2.5489 C.3     1  LIG1       -0.0361
      2 C          -0.6928    1.9594   -3.3409 C.ar    1  LIG1       -0.0050
      3 C           0.3838    2.7127   -2.9439 C.ar    1  LIG1        0.1276
      4 C           0.6312    3.9780   -3.4945 C.ar    1  LIG1       -0.0018
      5 C           1.6016    4.8636   -2.7888 C.3     1  LIG1       -0.0205
      6 C           1.3969    4.5989   -1.2942 C.3     1  LIG1       -0.0091
      7 C           1.6186    3.0940   -0.9360 C.3     1  LIG1        0.1082
      8 O           1.2437    2.1992   -1.9909 O.3     1  LIG1       -0.4854
      9 C           3.1342    2.8537   -0.6194 C.3     1  LIG1       -0.0132
     10 C           3.6437    1.4091   -0.3163 C.3     1  LIG1       -0.0492
     11 C           3.2966    0.8238    1.0686 C.3     1  LIG1       -0.0503
     12 C           3.9062   -0.5402    1.4678 C.3     1  LIG1       -0.0439
     13 C           3.4010   -0.9937    2.8815 C.3     1  LIG1       -0.0505
     14 C           1.8713   -1.0912    3.1799 C.3     1  LIG1       -0.0526
     15 C           1.1434   -2.0755    2.2610 C.3     1  LIG1       -0.0505
     16 C          -0.3733   -2.3497    2.4085 C.3     1  LIG1       -0.0439
     17 C          -0.7458   -3.3812    1.2983 C.3     1  LIG1       -0.0505
     18 C          -2.2002   -3.8656    1.1774 C.3     1  LIG1       -0.0526
     19 C          -3.2422   -2.8090    0.7656 C.3     1  LIG1       -0.0507
     20 C          -4.6722   -3.3940    0.5901 C.3     1  LIG1       -0.0467
     21 C          -5.2380   -3.9408    1.9034 C.3     1  LIG1       -0.0627
     22 C          -5.6547   -2.3523    0.0288 C.3     1  LIG1       -0.0627
     23 C          -0.7142   -2.8384    3.8104 C.3     1  LIG1       -0.0624
     24 C           3.7588   -1.6501    0.4178 C.3     1  LIG1       -0.0624
     25 C           0.6896    2.7406    0.2409 C.3     1  LIG1       -0.0249
     26 C          -0.1317    4.4114   -4.5920 C.ar    1  LIG1       -0.0135
     27 C          -1.1550    3.6234   -5.0441 C.ar    1  LIG1        0.1176
     28 C          -1.4906    2.4210   -4.4146 C.ar    1  LIG1       -0.0138
     29 O          -1.9333    4.0082   -6.1181 O.3     1  LIG1       -0.5067
     30 H          -1.7906    1.1300   -1.7164 H       1  LIG1        0.0279
     31 H          -0.3104    0.2282   -2.1089 H       1  LIG1        0.0279
     32 H          -1.7369    0.0735   -3.1366 H       1  LIG1        0.0279
     33 H           1.3962    5.9227   -2.9931 H       1  LIG1        0.0316
     34 H           2.6366    4.6495   -3.1023 H       1  LIG1        0.0316
     35 H           0.3510    4.8677   -1.0637 H       1  LIG1        0.0307
     36 H           2.0112    5.2574   -0.6762 H       1  LIG1        0.0307
     37 H           3.4618    3.5322    0.1792 H       1  LIG1        0.0304
     38 H           3.6895    3.1639   -1.5183 H       1  LIG1        0.0304
     39 H           4.7399    1.4386   -0.3993 H       1  LIG1        0.0267
     40 H           3.2893    0.7417   -1.1063 H       1  LIG1        0.0267
     41 H           2.2260    0.6668    1.1201 H       1  LIG1        0.0268
     42 H           3.5815    1.5606    1.8325 H       1  LIG1        0.0268
     43 H           4.9907   -0.3837    1.5647 H       1  LIG1        0.0298
     44 H           3.8255   -0.2971    3.6193 H       1  LIG1        0.0268
     45 H           3.8535   -1.9682    3.1090 H       1  LIG1        0.0268
     46 H           1.4094   -0.0999    3.1201 H       1  LIG1        0.0265
     47 H           1.7662   -1.4149    4.2238 H       1  LIG1        0.0265
     48 H           1.6798   -3.0329    2.3126 H       1  LIG1        0.0268
     49 H           1.2239   -1.6723    1.2551 H       1  LIG1        0.0268
     50 H          -0.9176   -1.4175    2.2157 H       1  LIG1        0.0298
     51 H          -0.1308   -4.2790    1.4601 H       1  LIG1        0.0268
     52 H          -0.4341   -2.9843    0.3226 H       1  LIG1        0.0268
     53 H          -2.4807   -4.3438    2.1181 H       1  LIG1        0.0265
     54 H          -2.2128   -4.6618    0.4193 H       1  LIG1        0.0265
     55 H          -2.9307   -2.3530   -0.1832 H       1  LIG1        0.0268
     56 H          -3.2666   -2.0107    1.5148 H       1  LIG1        0.0268
     57 H          -4.6280   -4.2246   -0.1274 H       1  LIG1        0.0295
     58 H          -5.4862   -3.1268    2.5923 H       1  LIG1        0.0232
     59 H          -4.5435   -4.6160    2.4066 H       1  LIG1        0.0232
     60 H          -6.1534   -4.5134    1.7137 H       1  LIG1        0.0232
     61 H          -5.4562   -1.3511    0.4250 H       1  LIG1        0.0232
     62 H          -6.6933   -2.6055    0.2778 H       1  LIG1        0.0232
     63 H          -5.5922   -2.3027   -1.0637 H       1  LIG1        0.0232
     64 H          -0.0901   -3.6919    4.0950 H       1  LIG1        0.0232
     65 H          -1.7629   -3.1382    3.8895 H       1  LIG1        0.0232
     66 H          -0.5512   -2.0415    4.5434 H       1  LIG1        0.0232
     67 H           4.0840   -1.3264   -0.5735 H       1  LIG1        0.0232
     68 H           2.7477   -2.0223    0.2847 H       1  LIG1        0.0232
     69 H           4.3663   -2.5145    0.7058 H       1  LIG1        0.0232
     70 H          -0.1849    2.1757   -0.1016 H       1  LIG1        0.0268
     71 H           0.3441    3.6180    0.7888 H       1  LIG1        0.0268
     72 H           1.1649    2.1278    0.9910 H       1  LIG1        0.0268
     73 H           0.0815    5.3906   -5.0352 H       1  LIG1        0.0658
     74 H          -2.3571    1.8730   -4.7362 H       1  LIG1        0.0658
     75 H          -1.5330    4.7959   -6.5162 H       1  LIG1        0.2921
@<TRIPOS>BOND
     1     1     2    1
     2     2     3   ar
     3     3     4   ar
     4     4     5    1
     5     5     6    1
     6     6     7    1
     7     7     8    1
     8     3     8    1
     9     7     9    1
    10     9    10    1
    11    10    11    1
    12    11    12    1
    13    12    13    1
    14    13    14    1
    15    14    15    1
    16    15    16    1
    17    16    17    1
    18    17    18    1
    19    18    19    1
    20    19    20    1
    21    20    21    1
    22    20    22    1
    23    16    23    1
    24    12    24    1
    25     7    25    1
    26     4    26   ar
    27    26    27   ar
    28    27    28   ar
    29     2    28   ar
    30    27    29    1
    31     1    30    1
    32     1    31    1
    33     1    32    1
    34     5    33    1
    35     5    34    1
    36     6    35    1
    37     6    36    1
    38     9    37    1
    39     9    38    1
    40    10    39    1
    41    10    40    1
    42    11    41    1
    43    11    42    1
    44    12    43    1
    45    13    44    1
    46    13    45    1
    47    14    46    1
    48    14    47    1
    49    15    48    1
    50    15    49    1
    51    16    50    1
    52    17    51    1
    53    17    52    1
    54    18    53    1
    55    18    54    1
    56    19    55    1
    57    19    56    1
    58    20    57    1
    59    21    58    1
    60    21    59    1
    61    21    60    1
    62    22    61    1
    63    22    62    1
    64    22    63    1
    65    23    64    1
    66    23    65    1
    67    23    66    1
    68    24    67    1
    69    24    68    1
    70    24    69    1
    71    25    70    1
    72    25    71    1
    73    25    72    1
    74    26    73    1
    75    28    74    1
    76    29    75    1
