@<TRIPOS>MOLECULE
NuBBE_2479
 49 52 0 0 0
SMALL
GASTEIGER

@<TRIPOS>ATOM
      1 C          -0.8435   -2.4090    2.1695 C.3     1  LIG1       -0.0546
      2 C           0.1242   -2.2727    0.9989 C.3     1  LIG1        0.0261
      3 H           0.4415   -3.2892    0.7243 H       1  LIG1        0.0387
      4 C           1.4109   -1.4016    1.1019 C.3     1  LIG1        0.1320
      5 H           2.2407   -2.0769    1.3566 H       1  LIG1        0.0790
      6 O           1.6997   -0.8858   -0.2417 O.3     1  LIG1       -0.4832
      7 C           0.5046   -0.9690   -0.9161 C.ar    1  LIG1        0.1287
      8 C          -0.4638   -1.6802   -0.2297 C.ar    1  LIG1        0.0046
      9 C          -1.7368   -1.8104   -0.7426 C.ar    1  LIG1       -0.0093
     10 C          -2.0269   -1.2476   -1.9878 C.ar    1  LIG1        0.1620
     11 C          -1.0259   -0.5357   -2.7083 C.ar    1  LIG1        0.1658
     12 C           0.2566   -0.4009   -2.1552 C.ar    1  LIG1        0.0258
     13 O          -1.4263    0.0304   -3.8761 O.3     1  LIG1       -0.4842
     14 C          -0.4973    0.5147   -4.8572 C.3     1  LIG1        0.1077
     15 C          -0.2218   -0.6035   -5.8096 C.2     1  LIG1       -0.0542
     16 C           0.9895   -0.8646   -6.2896 C.2     1  LIG1       -0.0995
     17 O          -3.3292   -1.4887   -2.3510 O.3     1  LIG1       -0.4914
     18 C          -3.7463   -1.1129   -3.6526 C.3     1  LIG1        0.0790
     19 C           1.4577   -0.2291    2.0679 C.ar    1  LIG1        0.0004
     20 C           2.6810    0.1703    2.6401 C.ar    1  LIG1       -0.0092
     21 C           2.6768    1.2345    3.5247 C.ar    1  LIG1        0.1703
     22 C           1.5218    1.9079    3.8587 C.ar    1  LIG1        0.2075
     23 C           0.3107    1.5666    3.2967 C.ar    1  LIG1        0.1657
     24 C           0.3001    0.5161    2.3768 C.ar    1  LIG1       -0.0094
     25 O          -0.9119    2.1023    3.5720 O.3     1  LIG1       -0.4913
     26 C          -0.9168    3.4888    3.8791 C.3     1  LIG1        0.0790
     27 O           1.7542    2.8892    4.7709 O.3     1  LIG1       -0.4489
     28 C           3.1752    2.7924    4.9419 C.3     1  LIG1        0.2334
     29 O           3.7709    1.7325    4.1686 O.3     1  LIG1       -0.4525
     30 H          -0.3430   -2.7634    3.0743 H       1  LIG1        0.0237
     31 H          -1.6269   -3.1345    1.9117 H       1  LIG1        0.0237
     32 H          -1.3879   -1.4921    2.4096 H       1  LIG1        0.0237
     33 H          -2.5134   -2.3431   -0.2007 H       1  LIG1        0.0659
     34 H           1.0493    0.1514   -2.6442 H       1  LIG1        0.0692
     35 H           0.3546    1.0058   -4.4558 H       1  LIG1        0.0742
     36 H          -1.0815    1.2631   -5.4272 H       1  LIG1        0.0742
     37 H          -1.0867   -1.2341   -6.1156 H       1  LIG1        0.0600
     38 H           1.8610   -0.2802   -6.0289 H       1  LIG1        0.0533
     39 H           1.1679   -1.6777   -7.0025 H       1  LIG1        0.0533
     40 H          -3.1753   -1.6507   -4.4172 H       1  LIG1        0.0660
     41 H          -3.7010   -0.0267   -3.7808 H       1  LIG1        0.0660
     42 H          -4.7970   -1.3985   -3.7652 H       1  LIG1        0.0660
     43 H           3.6153   -0.3263    2.3930 H       1  LIG1        0.0659
     44 H          -0.6447    0.3023    1.8829 H       1  LIG1        0.0659
     45 H          -1.9571    3.7821    4.0484 H       1  LIG1        0.0660
     46 H          -0.5289    4.0681    3.0347 H       1  LIG1        0.0660
     47 H          -0.3787    3.7165    4.8019 H       1  LIG1        0.0660
     48 H           3.3814    2.6217    6.0046 H       1  LIG1        0.1166
     49 H           3.6228    3.7484    4.6458 H       1  LIG1        0.1166
@<TRIPOS>BOND
     1     1     2    1
     2     2     3    1
     3     2     4    1
     4     4     5    1
     5     4     6    1
     6     6     7    1
     7     7     8   ar
     8     2     8    1
     9     8     9   ar
    10     9    10   ar
    11    10    11   ar
    12    11    12   ar
    13     7    12   ar
    14    11    13    1
    15    13    14    1
    16    14    15    1
    17    15    16    2
    18    10    17    1
    19    17    18    1
    20     4    19    1
    21    19    20   ar
    22    20    21   ar
    23    21    22   ar
    24    22    23   ar
    25    23    24   ar
    26    19    24   ar
    27    23    25    1
    28    25    26    1
    29    22    27    1
    30    27    28    1
    31    28    29    1
    32    21    29    1
    33     1    30    1
    34     1    31    1
    35     1    32    1
    36     9    33    1
    37    12    34    1
    38    14    35    1
    39    14    36    1
    40    15    37    1
    41    16    38    1
    42    16    39    1
    43    18    40    1
    44    18    41    1
    45    18    42    1
    46    20    43    1
    47    24    44    1
    48    26    45    1
    49    26    46    1
    50    26    47    1
    51    28    48    1
    52    28    49    1
