@<TRIPOS>MOLECULE
NuBBE_1068
 28 30 0 0 0
SMALL
GASTEIGER

@<TRIPOS>ATOM
      1 C          -1.6048   -0.0570    2.9813 C.3     1  LIG1        0.0790
      2 O          -0.9546    0.8311    2.0867 O.3     1  LIG1       -0.4906
      3 C          -0.4585    0.3701    0.8864 C.ar    1  LIG1        0.1759
      4 C          -0.3675   -0.9859    0.4812 C.ar    1  LIG1        0.2055
      5 O          -0.8359   -1.9794    1.3153 O.3     1  LIG1       -0.4885
      6 C          -0.1609   -3.2305    1.2282 C.3     1  LIG1        0.0791
      7 C           0.1428   -1.2158   -0.8122 C.ar    1  LIG1        0.1834
      8 O           0.2692   -2.4273   -1.4372 O.2     1  LIG1       -0.4590
      9 C           0.8005   -2.2066   -2.6654 C.ar    1  LIG1        0.0934
     10 C           1.0243   -0.8658   -2.8564 C.ar    1  LIG1       -0.0124
     11 C           0.5964   -0.2170   -1.6665 C.ar    1  LIG1        0.0669
     12 C           0.5447    1.1097   -1.2210 C.ar    1  LIG1        0.1535
     13 C           0.0135    1.4076    0.0421 C.ar    1  LIG1        0.0637
     14 C          -0.0285    2.8205    0.4333 C.ar    1  LIG1       -0.0406
     15 C           0.4513    3.7708   -0.3710 C.ar    1  LIG1        0.0237
     16 C           1.0352    3.4684   -1.6851 C.ar    1  LIG1        0.3372
     17 O           1.4934    4.3558   -2.3946 O.2     1  LIG1       -0.2452
     18 O           1.0330    2.1355   -2.0651 O.2     1  LIG1       -0.4213
     19 H          -2.0477    0.5500    3.7777 H       1  LIG1        0.0660
     20 H          -0.8839   -0.7316    3.4526 H       1  LIG1        0.0660
     21 H          -2.4261   -0.5948    2.4984 H       1  LIG1        0.0660
     22 H          -0.5120   -3.8053    0.3669 H       1  LIG1        0.0660
     23 H          -0.4178   -3.8062    2.1230 H       1  LIG1        0.0660
     24 H           0.9274   -3.1070    1.2136 H       1  LIG1        0.0660
     25 H           0.9552   -3.0866   -3.2746 H       1  LIG1        0.1030
     26 H           1.4357   -0.4035   -3.7430 H       1  LIG1        0.0656
     27 H          -0.4580    3.0835    1.3962 H       1  LIG1        0.0628
     28 H           0.4337    4.8171   -0.0908 H       1  LIG1        0.0689
@<TRIPOS>BOND
     1     1     2    1
     2     2     3    1
     3     3     4   ar
     4     4     5    1
     5     5     6    1
     6     4     7   ar
     7     7     8   ar
     8     8     9   ar
     9     9    10   ar
    10    10    11   ar
    11     7    11   ar
    12    11    12   ar
    13    12    13   ar
    14     3    13   ar
    15    13    14   ar
    16    14    15   ar
    17    15    16   ar
    18    16    17    2
    19    16    18   ar
    20    12    18   ar
    21     1    19    1
    22     1    20    1
    23     1    21    1
    24     6    22    1
    25     6    23    1
    26     6    24    1
    27     9    25    1
    28    10    26    1
    29    14    27    1
    30    15    28    1
