REMARK  Name = NuBBE_1347
REMARK  12 active torsions:
REMARK  status: ('A' for Active; 'I' for Inactive)
REMARK    1  A    between atoms: C_1  and  C_2
REMARK    2  A    between atoms: C_2  and  C_3
REMARK    3  A    between atoms: C_4  and  O_34
REMARK    4  A    between atoms: C_7  and  C_8
REMARK    5  A    between atoms: C_12  and  C_13
REMARK    6  A    between atoms: C_18  and  C_19
REMARK    7  A    between atoms: C_22  and  C_23
REMARK    8  A    between atoms: C_25  and  C_27
REMARK    9  A    between atoms: C_28  and  C_30
REMARK   10  A    between atoms: O_34  and  C_35
REMARK   11  A    between atoms: C_35  and  C_36
REMARK   12  A    between atoms: C_36  and  C_37
REMARK                            x       y       z     vdW  Elec       q    Type
REMARK                         _______ _______ _______ _____ _____    ______ ____
ROOT
ATOM      1  C   LIG A   1      -5.175   0.203   0.502  0.00  0.00    +0.015 C 
ATOM      2  C   LIG A   1      -4.067  -0.161   1.524  0.00  0.00    +0.005 C 
ATOM      3  C   LIG A   1      -4.584   0.342   2.886  0.00  0.00    +0.015 C 
ATOM      4  C   LIG A   1      -3.891  -1.716   1.551  0.00  0.00    +0.182 C 
ATOM      5  C   LIG A   1      -2.766  -2.128   2.505  0.00  0.00    +0.046 C 
ATOM      6  C   LIG A   1      -1.425  -1.503   2.110  0.00  0.00    +0.011 C 
ATOM      7  C   LIG A   1      -1.440   0.049   1.912  0.00  0.00    -0.025 C 
ATOM      8  C   LIG A   1      -1.400   0.676   3.330  0.00  0.00    +0.012 C 
ATOM      9  C   LIG A   1      -2.700   0.475   1.078  0.00  0.00    +0.004 C 
ATOM     10  C   LIG A   1      -2.703   2.000   0.838  0.00  0.00    +0.005 C 
ATOM     11  C   LIG A   1      -1.478   2.428   0.013  0.00  0.00    +0.008 C 
ATOM     12  C   LIG A   1      -0.082   1.964   0.548  0.00  0.00    -0.019 C 
ATOM     13  C   LIG A   1       0.281   2.903   1.729  0.00  0.00    +0.012 C 
ATOM     14  C   LIG A   1      -0.184   0.457   1.027  0.00  0.00    +0.006 C 
ATOM     15  C   LIG A   1       1.151  -0.046   1.598  0.00  0.00    +0.031 C 
ATOM     16  C   LIG A   1       2.316   0.284   0.730  0.00  0.00    -0.026 C 
ATOM     17  C   LIG A   1       2.316   1.177  -0.274  0.00  0.00    -0.063 C 
ATOM     18  C   LIG A   1       1.078   2.050  -0.618  0.00  0.00    -0.005 C 
ATOM     19  C   LIG A   1       0.501   1.560  -1.982  0.00  0.00    +0.016 C 
ATOM     20  C   LIG A   1       1.601   3.507  -0.894  0.00  0.00    +0.012 C 
ATOM     21  C   LIG A   1       2.925   3.849  -0.189  0.00  0.00    +0.008 C 
ATOM     22  C   LIG A   1       4.112   2.882  -0.557  0.00  0.00    -0.025 C 
ATOM     23  C   LIG A   1       4.928   3.569  -1.681  0.00  0.00    +0.012 C 
ATOM     24  C   LIG A   1       3.582   1.514  -1.081  0.00  0.00    +0.024 C 
ATOM     25  C   LIG A   1       4.662   0.377  -1.211  0.00  0.00    -0.004 C 
ATOM     26  C   LIG A   1       4.925   0.058  -2.696  0.00  0.00    +0.008 C 
ATOM     27  C   LIG A   1       5.997   0.667  -0.483  0.00  0.00    -0.011 C 
ATOM     28  C   LIG A   1       6.792  -0.621  -0.215  0.00  0.00    +0.008 C 
ATOM     29  C   LIG A   1       5.770   1.400   0.833  0.00  0.00    +0.004 C 
ATOM     30  C   LIG A   1       5.000   2.714   0.705  0.00  0.00    +0.007 C 
ENDROOT
BRANCH   4  31
ATOM     31  O   LIG A   1      -3.478  -2.203   0.246  0.00  0.00    -0.461 OA
BRANCH  31  32
ATOM     32  C   LIG A   1      -4.404  -2.727  -0.597  0.00  0.00    +0.312 C 
ATOM     33  O   LIG A   1      -5.606  -2.817  -0.358  0.00  0.00    -0.251 OA
BRANCH  32  34
ATOM     34  C   LIG A   1      -3.743  -3.126  -1.898  0.00  0.00    +0.155 C 
BRANCH  34  35
ATOM     35  C   LIG A   1      -3.969  -4.571  -2.263  0.00  0.00    -0.037 A 
ATOM     36  C   LIG A   1      -5.060  -4.939  -3.061  0.00  0.00    +0.004 A 
ATOM     37  C   LIG A   1      -5.287  -6.280  -3.372  0.00  0.00    +0.000 A 
ATOM     38  C   LIG A   1      -4.430  -7.266  -2.886  0.00  0.00    +0.000 A 
ATOM     39  C   LIG A   1      -3.337  -6.910  -2.097  0.00  0.00    +0.000 A 
ATOM     40  C   LIG A   1      -3.107  -5.569  -1.785  0.00  0.00    +0.004 A 
ENDBRANCH  34  35
ENDBRANCH  32  34
ENDBRANCH  31  32
ENDBRANCH   4  31
TORSDOF 4
