@<TRIPOS>MOLECULE
NuBBE_2315
 49 52 0 0 0
SMALL
GASTEIGER

@<TRIPOS>ATOM
      1 C          -1.7537   -1.4636    1.2301 C.3     1  LIG1        0.0263
      2 H          -2.0493   -1.5320    2.2863 H       1  LIG1        0.0387
      3 C          -2.5262   -0.2925    0.5761 C.3     1  LIG1        0.1321
      4 C          -2.8466   -0.4276   -0.9087 C.ar    1  LIG1       -0.0031
      5 C          -4.0890   -0.9850   -1.3004 C.ar    1  LIG1       -0.0514
      6 C          -4.4307   -1.1207   -2.6506 C.ar    1  LIG1       -0.0158
      7 C          -3.5194   -0.6919   -3.5894 C.ar    1  LIG1        0.1662
      8 C          -2.3074   -0.1593   -3.2262 C.ar    1  LIG1        0.1666
      9 C          -1.9396   -0.0226   -1.9050 C.ar    1  LIG1       -0.0095
     10 O          -1.5557    0.2055   -4.2990 O.3     1  LIG1       -0.4526
     11 C          -2.4474   -0.1347   -5.3802 C.3     1  LIG1        0.2332
     12 O          -3.6854   -0.7306   -4.9381 O.3     1  LIG1       -0.4526
     13 O          -1.7636    0.9303    0.8174 O.3     1  LIG1       -0.4795
     14 C          -0.4762    0.4977    1.0373 C.ar    1  LIG1        0.1703
     15 C          -0.3887   -0.8739    1.2105 C.ar    1  LIG1        0.0083
     16 C           0.8347   -1.4888    1.3898 C.ar    1  LIG1       -0.0090
     17 C           1.9975   -0.7092    1.3718 C.ar    1  LIG1        0.1657
     18 O           3.2427   -1.2595    1.5533 O.3     1  LIG1       -0.4913
     19 C           3.4522   -2.5251    0.9280 C.3     1  LIG1        0.0790
     20 C           1.9030    0.6992    1.2609 C.ar    1  LIG1        0.2078
     21 C           0.6516    1.3031    1.0474 C.ar    1  LIG1        0.2076
     22 O           0.5393    2.6516    0.8524 O.3     1  LIG1       -0.4884
     23 C           0.5710    2.9505   -0.5445 C.3     1  LIG1        0.0791
     24 O           3.0727    1.4257    1.2782 O.3     1  LIG1       -0.4810
     25 C           3.0765    2.4349    2.2904 C.3     1  LIG1        0.1079
     26 C           4.5052    2.6535    2.7119 C.2     1  LIG1       -0.0542
     27 C           4.9700    2.4835    3.9457 C.2     1  LIG1       -0.0995
     28 C          -1.9009   -2.8416    0.6007 C.3     1  LIG1       -0.0546
     29 H          -3.4764   -0.1627    1.1110 H       1  LIG1        0.0790
     30 H          -4.8018   -1.3135   -0.5458 H       1  LIG1        0.0623
     31 H          -5.3838   -1.5411   -2.9503 H       1  LIG1        0.0655
     32 H          -0.9724    0.4030   -1.6646 H       1  LIG1        0.0659
     33 H          -1.9368   -0.8394   -6.0461 H       1  LIG1        0.1166
     34 H          -2.6785    0.7771   -5.9435 H       1  LIG1        0.1166
     35 H           0.8582   -2.5551    1.5706 H       1  LIG1        0.0659
     36 H           4.3855   -2.9408    1.3194 H       1  LIG1        0.0660
     37 H           3.5536   -2.4022   -0.1552 H       1  LIG1        0.0660
     38 H           2.6760   -3.2630    1.1488 H       1  LIG1        0.0660
     39 H          -0.4509    3.0062   -0.9324 H       1  LIG1        0.0660
     40 H           1.1509    2.2261   -1.1296 H       1  LIG1        0.0660
     41 H           1.0396    3.9316   -0.6672 H       1  LIG1        0.0660
     42 H           2.4664    2.1552    3.1587 H       1  LIG1        0.0742
     43 H           2.7002    3.3778    1.8774 H       1  LIG1        0.0742
     44 H           5.1906    2.9808    1.9186 H       1  LIG1        0.0600
     45 H           4.3281    2.1540    4.7596 H       1  LIG1        0.0533
     46 H           6.0233    2.6519    4.1818 H       1  LIG1        0.0533
     47 H          -2.9496   -3.1547    0.5914 H       1  LIG1        0.0237
     48 H          -1.3437   -3.5913    1.1750 H       1  LIG1        0.0237
     49 H          -1.5148   -2.8767   -0.4236 H       1  LIG1        0.0237
@<TRIPOS>BOND
     1     1     2    1
     2     1     3    1
     3     3     4    1
     4     4     5   ar
     5     5     6   ar
     6     6     7   ar
     7     7     8   ar
     8     8     9   ar
     9     4     9   ar
    10     8    10    1
    11    10    11    1
    12    11    12    1
    13     7    12    1
    14     3    13    1
    15    13    14    1
    16    14    15   ar
    17     1    15    1
    18    15    16   ar
    19    16    17   ar
    20    17    18    1
    21    18    19    1
    22    17    20   ar
    23    20    21   ar
    24    14    21   ar
    25    21    22    1
    26    22    23    1
    27    20    24    1
    28    24    25    1
    29    25    26    1
    30    26    27    2
    31     1    28    1
    32     3    29    1
    33     5    30    1
    34     6    31    1
    35     9    32    1
    36    11    33    1
    37    11    34    1
    38    16    35    1
    39    19    36    1
    40    19    37    1
    41    19    38    1
    42    23    39    1
    43    23    40    1
    44    23    41    1
    45    25    42    1
    46    25    43    1
    47    26    44    1
    48    27    45    1
    49    27    46    1
    50    28    47    1
    51    28    48    1
    52    28    49    1
