REMARK  Name = NuBBE_1070
REMARK  6 active torsions:
REMARK  status: ('A' for Active; 'I' for Inactive)
REMARK    1  A    between atoms: C_1  and  O_2
REMARK    2  A    between atoms: O_2  and  C_3
REMARK    3  A    between atoms: C_19  and  O_22
REMARK    4  A    between atoms: O_22  and  C_23
REMARK    5  A    between atoms: C_26  and  O_27
REMARK    6  A    between atoms: O_27  and  C_28
REMARK                            x       y       z     vdW  Elec       q    Type
REMARK                         _______ _______ _______ _____ _____    ______ ____
ROOT
ATOM      1  C   LIG A   1      -3.217   1.116   3.261  0.00  0.00    +0.164 A 
ATOM      2  C   LIG A   1      -2.217   1.441   2.328  0.00  0.00    +0.078 A 
ATOM      3  C   LIG A   1      -1.493   0.443   1.671  0.00  0.00    +0.082 A 
ATOM      4  N   LIG A   1      -0.516   0.802   0.732  0.00  0.00    -0.227 NA
ATOM      5  C   LIG A   1       0.086  -0.152   0.099  0.00  0.00    +0.161 A 
ATOM      6  N   LIG A   1      -0.134  -1.509   0.303  0.00  0.00    -0.291 N 
ATOM      7  C   LIG A   1      -1.017  -1.939   1.278  0.00  0.00    +0.262 A 
ATOM      8  O   LIG A   1      -1.165  -3.108   1.610  0.00  0.00    -0.267 OA
ATOM      9  C   LIG A   1       0.746  -2.515  -0.320  0.00  0.00    +0.131 C 
ATOM     10  C   LIG A   1       1.195  -2.170  -1.751  0.00  0.00    +0.059 C 
ATOM     11  C   LIG A   1       1.567  -0.734  -1.823  0.00  0.00    -0.010 A 
ATOM     12  C   LIG A   1       1.028   0.173  -0.933  0.00  0.00    +0.087 A 
ATOM     13  N   LIG A   1       1.505   1.412  -1.254  0.00  0.00    -0.351 N 
ATOM     14  C   LIG A   1       2.334   1.325  -2.351  0.00  0.00    +0.048 A 
ATOM     15  C   LIG A   1       2.389  -0.019  -2.731  0.00  0.00    +0.007 A 
ATOM     16  C   LIG A   1       3.160  -0.371  -3.855  0.00  0.00    +0.056 A 
ATOM     17  C   LIG A   1       3.851   0.621  -4.564  0.00  0.00    +0.121 A 
ATOM     18  C   LIG A   1       3.780   1.952  -4.151  0.00  0.00    +0.048 A 
ATOM     19  C   LIG A   1       3.021   2.329  -3.037  0.00  0.00    +0.030 A 
ATOM     20  C   LIG A   1      -1.789  -0.885   1.958  0.00  0.00    +0.069 A 
ATOM     21  C   LIG A   1      -2.794  -1.230   2.864  0.00  0.00    +0.064 A 
ATOM     22  C   LIG A   1      -3.516  -0.233   3.520  0.00  0.00    +0.162 A 
ATOM     23  H   LIG A   1       1.252   2.263  -0.771  0.00  0.00    +0.166 HD
ENDROOT
BRANCH   1  25
ATOM     24  C   LIG A   1      -4.335   2.045   5.139  0.00  0.00    +0.277 C 
ATOM     25  O   LIG A   1      -3.839   2.209   3.813  0.00  0.00    -0.491 OA
ENDBRANCH   1  25
BRANCH  17  26
ATOM     26  O   LIG A   1       4.552   0.159  -5.648  0.00  0.00    -0.495 OA
ATOM     27  C   LIG A   1       5.266   1.131  -6.402  0.00  0.00    +0.277 C 
ENDBRANCH  17  26
BRANCH  22  28
ATOM     28  O   LIG A   1      -4.570  -0.533   4.339  0.00  0.00    -0.491 OA
ATOM     29  C   LIG A   1      -4.462  -1.738   5.088  0.00  0.00    +0.277 C 
ENDBRANCH  22  28
TORSDOF 3
