@<TRIPOS>MOLECULE
NuBBE_604
 98 103 0 0 0
SMALL
GASTEIGER

@<TRIPOS>ATOM
      1 H          -0.0109   -0.8304   -2.2508 H       1  LIG1        0.0356
      2 C          -0.8286   -1.0268   -2.9586 C.3     1  LIG1        0.0205
      3 C          -0.9931   -2.5099   -3.2874 C.3     1  LIG1        0.0892
      4 H          -1.1720   -2.6746   -4.3567 H       1  LIG1        0.0650
      5 O          -2.2011   -2.9171   -2.6165 O.3     1  LIG1       -0.3712
      6 C          -3.0585   -1.7649   -2.6153 C.3     1  LIG1        0.0544
      7 C          -2.1341   -0.6025   -2.3341 C.3     1  LIG1        0.0205
      8 C          -2.5008    0.7136   -3.0124 C.3     1  LIG1        0.0892
      9 H          -3.3394    0.6057   -3.7144 H       1  LIG1        0.0650
     10 O          -1.3551    1.0880   -3.8024 O.3     1  LIG1       -0.3712
     11 C          -0.6711   -0.1182   -4.1545 C.3     1  LIG1        0.0544
     12 C          -2.8348    1.7779   -2.0009 C.ar    1  LIG1       -0.0114
     13 C          -1.8329    2.6110   -1.4934 C.ar    1  LIG1       -0.0104
     14 C          -2.0845    3.4629   -0.4143 C.ar    1  LIG1        0.1656
     15 O          -1.0787    4.2106    0.1582 O.3     1  LIG1       -0.4913
     16 C           0.2259    3.6428    0.0183 C.3     1  LIG1        0.0790
     17 C          -3.3719    3.5279    0.1256 C.ar    1  LIG1        0.2067
     18 C          -4.4177    2.7624   -0.4331 C.ar    1  LIG1        0.1656
     19 O          -5.6740    2.9466    0.0860 O.3     1  LIG1       -0.4913
     20 C          -6.5501    1.8248    0.0361 C.3     1  LIG1        0.0790
     21 C          -4.1279    1.8852   -1.4818 C.ar    1  LIG1       -0.0104
     22 O          -3.6079    4.3220    1.2317 O.3     1  LIG1       -0.4535
     23 C          -3.8399    3.5183    2.4079 C.3     1  LIG1        0.2311
     24 H          -4.1705    2.4995    2.1654 H       1  LIG1        0.1084
     25 C          -2.5255    3.4589    3.2378 C.3     1  LIG1        0.1454
     26 H          -1.6641    3.6164    2.5848 H       1  LIG1        0.0683
     27 C          -2.5447    4.5394    4.3311 C.3     1  LIG1        0.1152
     28 H          -1.6148    4.4684    4.9073 H       1  LIG1        0.0648
     29 C          -3.7376    4.3164    5.2795 C.3     1  LIG1        0.1120
     30 H          -4.0150    5.2657    5.7533 H       1  LIG1        0.0647
     31 C          -4.9404    3.7164    4.5244 C.3     1  LIG1        0.1140
     32 H          -4.9329    2.6181    4.5501 H       1  LIG1        0.0647
     33 O          -4.9186    4.1380    3.1530 O.3     1  LIG1       -0.3313
     34 C          -6.2570    4.1769    5.1621 C.3     1  LIG1        0.0731
     35 O          -7.3653    3.6085    4.4645 O.3     1  LIG1       -0.3924
     36 O          -3.3546    3.4011    6.3147 O.3     1  LIG1       -0.3865
     37 O          -2.5933    5.8601    3.7882 O.3     1  LIG1       -0.3864
     38 O          -2.3528    2.1470    3.8129 O.3     1  LIG1       -0.3829
     39 H          -2.0014   -0.5117   -1.2470 H       1  LIG1        0.0356
     40 C           0.2444   -3.2729   -2.8747 C.ar    1  LIG1       -0.0114
     41 C           0.4078   -3.8654   -1.6074 C.ar    1  LIG1       -0.0104
     42 C           1.6619   -4.3537   -1.2289 C.ar    1  LIG1        0.1656
     43 O           1.7058   -4.9894   -0.0050 O.3     1  LIG1       -0.4913
     44 C           2.7016   -6.0097    0.0809 C.3     1  LIG1        0.0790
     45 C           2.7851   -4.1328   -2.0362 C.ar    1  LIG1        0.2067
     46 C           2.6050   -3.6663   -3.3482 C.ar    1  LIG1        0.1656
     47 O           3.7030   -3.6617   -4.1584 O.3     1  LIG1       -0.4913
     48 C           3.7049   -2.6242   -5.1344 C.3     1  LIG1        0.0790
     49 C           1.3341   -3.2720   -3.7525 C.ar    1  LIG1       -0.0104
     50 O           4.0478   -4.3768   -1.5585 O.3     1  LIG1       -0.4535
     51 C           4.7351   -3.1994   -1.0567 C.3     1  LIG1        0.2311
     52 H           4.9364   -2.5472   -1.9129 H       1  LIG1        0.1084
     53 O           6.0194   -3.6417   -0.5421 O.3     1  LIG1       -0.3313
     54 C           6.8166   -2.5554   -0.0530 C.3     1  LIG1        0.1140
     55 H           6.8720   -1.7734   -0.8219 H       1  LIG1        0.0647
     56 C           6.1627   -1.9819    1.2123 C.3     1  LIG1        0.1120
     57 H           6.0496   -2.7548    1.9825 H       1  LIG1        0.0647
     58 C           4.8009   -1.4330    0.8139 C.3     1  LIG1        0.1152
     59 H           4.9352   -0.5257    0.2111 H       1  LIG1        0.0648
     60 C           3.9422   -2.4335    0.0443 C.3     1  LIG1        0.1454
     61 H           3.4874   -3.1381    0.7500 H       1  LIG1        0.0683
     62 O           2.8730   -1.6545   -0.5351 O.3     1  LIG1       -0.3829
     63 O           4.0808   -0.9976    1.9819 O.3     1  LIG1       -0.3864
     64 O           6.8802   -0.8919    1.8064 O.3     1  LIG1       -0.3865
     65 C           8.2576   -3.0181    0.2075 C.3     1  LIG1        0.0731
     66 O           9.0383   -1.9315    0.7131 O.3     1  LIG1       -0.3924
     67 H          -3.8350   -1.8783   -1.8542 H       1  LIG1        0.0564
     68 H          -3.5403   -1.6906   -3.5977 H       1  LIG1        0.0564
     69 H           0.3773    0.1022   -4.3769 H       1  LIG1        0.0564
     70 H          -1.1430   -0.5128   -5.0603 H       1  LIG1        0.0564
     71 H          -0.8494    2.5505   -1.9356 H       1  LIG1        0.0659
     72 H           0.8563    4.0154    0.8279 H       1  LIG1        0.0660
     73 H           0.6758    3.9430   -0.9362 H       1  LIG1        0.0660
     74 H           0.2098    2.5478    0.1030 H       1  LIG1        0.0660
     75 H          -7.4975    2.1218    0.4961 H       1  LIG1        0.0660
     76 H          -6.1396    0.9898    0.6128 H       1  LIG1        0.0660
     77 H          -6.7761    1.5217   -0.9898 H       1  LIG1        0.0660
     78 H          -4.9162    1.2671   -1.9112 H       1  LIG1        0.0659
     79 H          -6.3180    3.8647    6.2097 H       1  LIG1        0.0584
     80 H          -6.3642    5.2653    5.1122 H       1  LIG1        0.0584
     81 H          -7.2245    3.8309    3.5238 H       1  LIG1        0.2095
     82 H          -2.8083    3.9043    6.9490 H       1  LIG1        0.2100
     83 H          -3.3241    5.8997    3.1379 H       1  LIG1        0.2100
     84 H          -2.5603    2.1801    4.7680 H       1  LIG1        0.2102
     85 H          -0.4269   -3.9248   -0.9224 H       1  LIG1        0.0659
     86 H           3.0281   -6.3960   -0.8924 H       1  LIG1        0.0660
     87 H           2.2772   -6.8618    0.6172 H       1  LIG1        0.0660
     88 H           3.5586   -5.6329    0.6494 H       1  LIG1        0.0660
     89 H           4.7269   -2.5250   -5.5074 H       1  LIG1        0.0660
     90 H           3.4110   -1.6675   -4.6909 H       1  LIG1        0.0660
     91 H           3.0587   -2.8800   -5.9803 H       1  LIG1        0.0660
     92 H           1.1751   -2.9018   -4.7698 H       1  LIG1        0.0659
     93 H           2.4706   -1.1798    0.2184 H       1  LIG1        0.2102
     94 H           4.7476   -0.5353    2.5304 H       1  LIG1        0.2100
     95 H           7.8365   -1.0543    1.6455 H       1  LIG1        0.2100
     96 H           8.7132   -3.3700   -0.7241 H       1  LIG1        0.0584
     97 H           8.2917   -3.8393    0.9304 H       1  LIG1        0.0584
     98 H           9.9683   -2.2258    0.7200 H       1  LIG1        0.2095
@<TRIPOS>BOND
     1     2     3    1
     2     3     5    1
     3     5     6    1
     4     6     7    1
     5     7     8    1
     6     8    10    1
     7    10    11    1
     8     2    11    1
     9    12    13   ar
    10    13    14   ar
    11    14    15    1
    12    15    16    1
    13    14    17   ar
    14    17    18   ar
    15    18    19    1
    16    19    20    1
    17    18    21   ar
    18    12    21   ar
    19    17    22    1
    20    22    23    1
    21    23    24    1
    22    23    25    1
    23    25    27    1
    24    27    29    1
    25    29    30    1
    26    29    31    1
    27    31    33    1
    28    23    33    1
    29    34    35    1
    30    29    36    1
    31     2     7    1
    32    40    41   ar
    33    41    42   ar
    34    42    43    1
    35    43    44    1
    36    42    45   ar
    37    45    46   ar
    38    46    47    1
    39    47    48    1
    40    46    49   ar
    41    40    49   ar
    42    45    50    1
    43    51    53    1
    44    53    54    1
    45    54    55    1
    46    54    56    1
    47    56    58    1
    48    58    59    1
    49    58    60    1
    50    51    60    1
    51    58    63    1
    52    54    65    1
    53    65    66    1
    54     1     2    1
    55     7    39    1
    56     8     9    1
    57     8    12    1
    58     3    40    1
    59     3     4    1
    60    25    38    1
    61    25    26    1
    62    27    37    1
    63    27    28    1
    64    31    34    1
    65    31    32    1
    66    51    52    1
    67    51    50    1
    68    56    64    1
    69    56    57    1
    70    60    62    1
    71    60    61    1
    72     6    67    1
    73     6    68    1
    74    11    69    1
    75    11    70    1
    76    13    71    1
    77    16    72    1
    78    16    73    1
    79    16    74    1
    80    20    75    1
    81    20    76    1
    82    20    77    1
    83    21    78    1
    84    34    79    1
    85    34    80    1
    86    35    81    1
    87    36    82    1
    88    37    83    1
    89    38    84    1
    90    41    85    1
    91    44    86    1
    92    44    87    1
    93    44    88    1
    94    48    89    1
    95    48    90    1
    96    48    91    1
    97    49    92    1
    98    62    93    1
    99    63    94    1
   100    64    95    1
   101    65    96    1
   102    65    97    1
   103    66    98    1
