@<TRIPOS>MOLECULE
NuBBE_633
 20 20 0 0 0
SMALL
GASTEIGER

@<TRIPOS>ATOM
      1 O          -4.2119    0.3931    0.7437 O.3     1  LIG1       -0.5068
      2 C          -2.8616    0.3699    0.5601 C.ar    1  LIG1        0.1169
      3 C          -2.1266    1.5427    0.4357 C.ar    1  LIG1       -0.0196
      4 C          -0.7436    1.4676    0.2446 C.ar    1  LIG1       -0.0511
      5 C          -0.0937    0.2261    0.1657 C.ar    1  LIG1       -0.0246
      6 C           1.3658    0.2062   -0.0061 C.2     1  LIG1       -0.0478
      7 C           2.0507   -0.7552   -0.6445 C.2     1  LIG1        0.0229
      8 C           3.5108   -0.6451   -0.7526 C.2     1  LIG1        0.3296
      9 O           4.0136   -1.6917   -1.4241 O.3     1  LIG1       -0.4775
     10 O           4.2190    0.2433   -0.3171 O.2     1  LIG1       -0.2458
     11 C          -0.8533   -0.9418    0.3150 C.ar    1  LIG1       -0.0511
     12 C          -2.2360   -0.8690    0.5059 C.ar    1  LIG1       -0.0196
     13 H          -4.5078    1.3181    0.7509 H       1  LIG1        0.2921
     14 H          -2.6034    2.5164    0.4858 H       1  LIG1        0.0654
     15 H          -0.1768    2.3920    0.1514 H       1  LIG1        0.0625
     16 H           1.8964    1.0604    0.4126 H       1  LIG1        0.0626
     17 H           1.5837   -1.6166   -1.1046 H       1  LIG1        0.0689
     18 H           4.9785   -1.5172   -1.4393 H       1  LIG1        0.2954
     19 H          -0.3831   -1.9214    0.2990 H       1  LIG1        0.0625
     20 H          -2.8207   -1.7777    0.6177 H       1  LIG1        0.0654
@<TRIPOS>BOND
     1     1     2    1
     2     2     3   ar
     3     3     4   ar
     4     4     5   ar
     5     5     6    1
     6     6     7    2
     7     7     8    1
     8     8     9    1
     9     8    10    2
    10     5    11   ar
    11    11    12   ar
    12     2    12   ar
    13     1    13    1
    14     3    14    1
    15     4    15    1
    16     6    16    1
    17     7    17    1
    18     9    18    1
    19    11    19    1
    20    12    20    1
