@<TRIPOS>MOLECULE
NuBBE_578
 55 56 0 0 0
SMALL
GASTEIGER

@<TRIPOS>ATOM
      1 O          -1.7879    4.2713   -5.7525 O.2     1  LIG1       -0.2456
      2 C          -1.5980    4.1878   -4.5432 C.2     1  LIG1        0.3322
      3 C          -0.5044    4.9430   -3.9100 C.2     1  LIG1        0.0187
      4 C          -0.4441    5.1096   -2.5836 C.2     1  LIG1       -0.0735
      5 C          -1.4621    4.4805   -1.6904 C.3     1  LIG1        0.0067
      6 O          -2.3817    3.4371   -3.7364 O.3     1  LIG1       -0.4538
      7 C          -2.0560    3.2304   -2.3460 C.3     1  LIG1        0.1250
      8 H          -3.0133    3.0388   -1.8449 H       1  LIG1        0.0782
      9 C          -1.1974    1.9884   -2.1984 C.2     1  LIG1       -0.0475
     10 C          -1.7428    0.7788   -1.9778 C.2     1  LIG1       -0.0810
     11 C          -1.0217   -0.5253   -1.7483 C.3     1  LIG1        0.0028
     12 C          -1.3466   -1.2007   -0.3904 C.3     1  LIG1        0.1101
     13 H          -0.8694   -2.1887   -0.3860 H       1  LIG1        0.0738
     14 O          -2.7983   -1.3917   -0.2886 O.3     1  LIG1       -0.4611
     15 C          -3.2620   -2.3965    0.4962 C.2     1  LIG1        0.3042
     16 C          -4.7649   -2.4377    0.5323 C.3     1  LIG1        0.0332
     17 O          -2.5485   -3.2011    1.1058 O.2     1  LIG1       -0.2512
     18 C          -0.8450   -0.3739    0.8049 C.3     1  LIG1        0.0255
     19 C           0.6534    0.0028    0.8220 C.3     1  LIG1        0.1249
     20 H           0.9098    0.6505   -0.0267 H       1  LIG1        0.0780
     21 O           0.8848    0.7100    2.0513 O.3     1  LIG1       -0.4572
     22 C           0.6456    2.0471    2.0340 C.2     1  LIG1        0.3045
     23 C           0.4705    2.5019    3.4507 C.3     1  LIG1        0.0333
     24 O           0.5530    2.7652    1.0373 O.2     1  LIG1       -0.2511
     25 C           1.5956   -1.1732    0.7724 C.2     1  LIG1       -0.0433
     26 C           2.1502   -1.8187    1.8179 C.2     1  LIG1       -0.0551
     27 C           3.1122   -2.9353    1.7037 C.ar    1  LIG1       -0.0252
     28 C           3.6691   -3.3364    0.4798 C.ar    1  LIG1       -0.0546
     29 C           4.5278   -4.4346    0.3987 C.ar    1  LIG1       -0.0612
     30 C           4.8708   -5.1353    1.5488 C.ar    1  LIG1       -0.0617
     31 C           4.3686   -4.7253    2.7814 C.ar    1  LIG1       -0.0612
     32 C           3.4962   -3.6326    2.8590 C.ar    1  LIG1       -0.0546
     33 H           0.2058    5.4055   -4.5846 H       1  LIG1        0.0686
     34 H           0.3424    5.7084   -2.1360 H       1  LIG1        0.0575
     35 H          -2.2535    5.2188   -1.5090 H       1  LIG1        0.0346
     36 H          -1.0204    4.2318   -0.7199 H       1  LIG1        0.0346
     37 H          -0.1171    2.1203   -2.2262 H       1  LIG1        0.0605
     38 H          -2.8293    0.7030   -1.9853 H       1  LIG1        0.0571
     39 H           0.0612   -0.3888   -1.8450 H       1  LIG1        0.0343
     40 H          -1.3187   -1.2051   -2.5555 H       1  LIG1        0.0343
     41 H          -5.1685   -2.9532   -0.3453 H       1  LIG1        0.0342
     42 H          -5.1745   -1.4263    0.5968 H       1  LIG1        0.0342
     43 H          -5.0975   -2.9770    1.4297 H       1  LIG1        0.0342
     44 H          -1.0902   -0.8998    1.7379 H       1  LIG1        0.0340
     45 H          -1.4378    0.5490    0.8742 H       1  LIG1        0.0340
     46 H           0.1954    1.6495    4.0829 H       1  LIG1        0.0342
     47 H          -0.3607    3.2122    3.4943 H       1  LIG1        0.0342
     48 H           1.3915    2.9529    3.8299 H       1  LIG1        0.0342
     49 H           1.8657   -1.4588   -0.2379 H       1  LIG1        0.0609
     50 H           1.8732   -1.5352    2.8323 H       1  LIG1        0.0621
     51 H           3.4487   -2.8083   -0.4418 H       1  LIG1        0.0623
     52 H           4.9223   -4.7381   -0.5673 H       1  LIG1        0.0618
     53 H           5.5323   -5.9946    1.4831 H       1  LIG1        0.0618
     54 H           4.6501   -5.2615    3.6841 H       1  LIG1        0.0618
     55 H           3.1161   -3.3413    3.8359 H       1  LIG1        0.0623
@<TRIPOS>BOND
     1     1     2    2
     2     2     3    1
     3     3     4    2
     4     4     5    1
     5     2     6    1
     6     6     7    1
     7     7     8    1
     8     5     7    1
     9     7     9    1
    10     9    10    2
    11    10    11    1
    12    12    14    1
    13    14    15    1
    14    15    16    1
    15    15    17    2
    16    12    18    1
    17    18    19    1
    18    19    20    1
    19    19    21    1
    20    21    22    1
    21    22    23    1
    22    22    24    2
    23    19    25    1
    24    25    26    2
    25    26    27    1
    26    27    28   ar
    27    28    29   ar
    28    29    30   ar
    29    30    31   ar
    30    31    32   ar
    31    27    32   ar
    32    12    13    1
    33    12    11    1
    34     3    33    1
    35     4    34    1
    36     5    35    1
    37     5    36    1
    38     9    37    1
    39    10    38    1
    40    11    39    1
    41    11    40    1
    42    16    41    1
    43    16    42    1
    44    16    43    1
    45    18    44    1
    46    18    45    1
    47    23    46    1
    48    23    47    1
    49    23    48    1
    50    25    49    1
    51    26    50    1
    52    28    51    1
    53    29    52    1
    54    30    53    1
    55    31    54    1
    56    32    55    1
