REMARK  Name = NuBBE_952
REMARK  9 active torsions:
REMARK  status: ('A' for Active; 'I' for Inactive)
REMARK    1  A    between atoms: C_5  and  C_6
REMARK    2  A    between atoms: C_8  and  C_9
REMARK    3  A    between atoms: C_8  and  C_10
REMARK    4  A    between atoms: C_14  and  C_15
REMARK    5  A    between atoms: C_17  and  O_19
REMARK    6  A    between atoms: O_19  and  C_20
REMARK    7  A    between atoms: C_20  and  C_21
REMARK    8  A    between atoms: C_24  and  C_25
REMARK    9  A    between atoms: C_32  and  C_34
REMARK                            x       y       z     vdW  Elec       q    Type
REMARK                         _______ _______ _______ _____ _____    ______ ____
ROOT
ATOM      1  O   LIG A   1      -3.483  -2.725   4.002  0.00  0.00    -0.246 OA
ATOM      2  C   LIG A   1      -2.501  -2.471   3.321  0.00  0.00    +0.332 C 
ATOM      3  C   LIG A   1      -2.225  -1.102   2.850  0.00  0.00    +0.088 C 
ATOM      4  C   LIG A   1      -1.248  -0.678   2.029  0.00  0.00    -0.012 C 
ATOM      5  C   LIG A   1      -0.193  -1.505   1.305  0.00  0.00    +0.000 C 
ATOM      6  C   LIG A   1       0.941  -1.799   2.324  0.00  0.00    +0.016 C 
ATOM      7  C   LIG A   1      -0.850  -2.814   0.736  0.00  0.00    +0.050 C 
ATOM      8  C   LIG A   1      -1.292  -3.895   1.798  0.00  0.00    +0.112 C 
ATOM      9  C   LIG A   1      -2.538  -4.724   1.427  0.00  0.00    +0.056 C 
ATOM     10  C   LIG A   1      -0.147  -4.922   1.976  0.00  0.00    +0.056 C 
ATOM     11  O   LIG A   1      -1.494  -3.342   3.117  0.00  0.00    -0.455 OA
ATOM     12  C   LIG A   1      -1.986  -2.417  -0.221  0.00  0.00    +0.083 C 
ATOM     13  C   LIG A   1      -1.538  -1.551  -1.368  0.00  0.00    +0.143 C 
ATOM     14  C   LIG A   1      -0.453  -0.457  -1.181  0.00  0.00    +0.066 C 
ATOM     15  C   LIG A   1       0.387  -0.620  -2.490  0.00  0.00    +0.022 C 
ATOM     16  C   LIG A   1       0.479  -0.738   0.056  0.00  0.00    +0.056 C 
ATOM     17  C   LIG A   1       1.294   0.517   0.504  0.00  0.00    +0.182 C 
ATOM     18  C   LIG A   1       1.265   1.728  -0.422  0.00  0.00    +0.058 C 
ATOM     19  C   LIG A   1      -0.147   2.191  -0.799  0.00  0.00    +0.045 C 
ATOM     20  C   LIG A   1      -0.758   2.977   0.390  0.00  0.00    +0.018 C 
ATOM     21  C   LIG A   1      -1.034   0.981  -1.173  0.00  0.00    +0.129 C 
ATOM     22  O   LIG A   1      -2.392   1.066  -0.722  0.00  0.00    -0.351 OA
ATOM     23  C   LIG A   1      -2.177   1.337  -2.119  0.00  0.00    +0.260 C 
ATOM     24  C   LIG A   1      -2.429   2.738  -2.530  0.00  0.00    +0.340 C 
ATOM     25  O   LIG A   1      -1.375   3.595  -2.439  0.00  0.00    -0.454 OA
ATOM     26  C   LIG A   1      -0.064   3.109  -2.076  0.00  0.00    +0.218 C 
ATOM     27  O   LIG A   1      -3.522   3.091  -2.930  0.00  0.00    -0.248 OA
ATOM     28  O   LIG A   1      -2.117  -1.690  -2.454  0.00  0.00    -0.297 OA
ENDROOT
BRANCH  26  29
ATOM     29  C   LIG A   1       0.869   4.296  -1.960  0.00  0.00    +0.031 A 
ATOM     30  C   LIG A   1       2.224   4.353  -2.240  0.00  0.00    +0.202 A 
ATOM     31  O   LIG A   1       2.707   5.611  -2.072  0.00  0.00    -0.471 OA
ATOM     32  C   LIG A   1       1.663   6.389  -1.696  0.00  0.00    +0.195 A 
ATOM     33  C   LIG A   1       0.518   5.635  -1.604  0.00  0.00    +0.048 A 
ENDBRANCH  26  29
BRANCH  17  34
ATOM     34  O   LIG A   1       2.674   0.222   0.863  0.00  0.00    -0.461 OA
BRANCH  34  35
ATOM     35  C   LIG A   1       3.606   0.024  -0.108  0.00  0.00    +0.304 C 
ATOM     36  C   LIG A   1       4.980   0.237   0.449  0.00  0.00    +0.136 C 
ATOM     37  O   LIG A   1       3.371  -0.228  -1.280  0.00  0.00    -0.251 OA
ENDBRANCH  34  35
ENDBRANCH  17  34
TORSDOF 3
