REMARK  Name = NuBBE_644
REMARK  10 active torsions:
REMARK  status: ('A' for Active; 'I' for Inactive)
REMARK    1  A    between atoms: O_1  and  C_2
REMARK    2  A    between atoms: C_5  and  C_6
REMARK    3  A    between atoms: C_8  and  C_10
REMARK    4  A    between atoms: C_11  and  C_13
REMARK    5  A    between atoms: C_14  and  C_16
REMARK    6  A    between atoms: C_18  and  O_19
REMARK    7  A    between atoms: O_19  and  C_20
REMARK    8  A    between atoms: C_21  and  O_22
REMARK    9  A    between atoms: C_27  and  O_28
REMARK   10  A    between atoms: O_28  and  C_29
REMARK                            x       y       z     vdW  Elec       q    Type
REMARK                         _______ _______ _______ _____ _____    ______ ____
ROOT
ATOM      1  C   LIG A   1      -1.236  -1.275  -0.238  0.00  0.00    +0.152 C 
ATOM      2  C   LIG A   1      -1.437  -1.647   1.240  0.00  0.00    +0.025 C 
ATOM      3  C   LIG A   1      -2.114  -3.013   1.382  0.00  0.00    +0.011 C 
ATOM      4  C   LIG A   1      -0.023  -1.681   1.834  0.00  0.00    +0.025 C 
ATOM      5  C   LIG A   1       0.262  -0.389   2.606  0.00  0.00    +0.011 C 
ATOM      6  C   LIG A   1       0.857  -1.933   0.601  0.00  0.00    +0.152 C 
ATOM      7  O   LIG A   1       0.172  -1.330  -0.508  0.00  0.00    -0.364 OA
ENDROOT
BRANCH   1  11
ATOM      8  C   LIG A   1      -2.784   2.625  -1.340  0.00  0.00    +0.159 A 
ATOM      9  C   LIG A   1      -1.476   2.495  -0.880  0.00  0.00    +0.049 A 
ATOM     10  C   LIG A   1      -0.974   1.243  -0.525  0.00  0.00    +0.010 A 
ATOM     11  C   LIG A   1      -1.770   0.095  -0.618  0.00  0.00    -0.015 A 
ATOM     12  C   LIG A   1      -3.089   0.243  -1.084  0.00  0.00    +0.055 A 
ATOM     13  C   LIG A   1      -3.609   1.498  -1.452  0.00  0.00    +0.162 A 
BRANCH   8  14
ATOM     14  O   LIG A   1      -3.224   3.876  -1.677  0.00  0.00    -0.503 OA
ATOM     15  H   LIG A   1      -2.494   4.509  -1.571  0.00  0.00    +0.292 HD
ENDBRANCH   8  14
BRANCH  13  16
ATOM     16  O   LIG A   1      -4.906   1.444  -1.891  0.00  0.00    -0.491 OA
ATOM     17  C   LIG A   1      -5.520   2.664  -2.290  0.00  0.00    +0.277 C 
ENDBRANCH  13  16
ENDBRANCH   1  11
BRANCH   6  18
ATOM     18  C   LIG A   1       2.298  -1.467   0.669  0.00  0.00    -0.015 A 
ATOM     19  C   LIG A   1       2.789  -0.527  -0.260  0.00  0.00    +0.055 A 
ATOM     20  C   LIG A   1       4.103  -0.060  -0.193  0.00  0.00    +0.162 A 
ATOM     21  C   LIG A   1       4.939  -0.556   0.804  0.00  0.00    +0.159 A 
ATOM     22  C   LIG A   1       4.497  -1.518   1.709  0.00  0.00    +0.049 A 
ATOM     23  C   LIG A   1       3.176  -1.971   1.638  0.00  0.00    +0.010 A 
BRANCH  20  24
ATOM     24  O   LIG A   1       4.657   0.875  -1.034  0.00  0.00    -0.491 OA
ATOM     25  C   LIG A   1       3.800   1.379  -2.055  0.00  0.00    +0.277 C 
ENDBRANCH  20  24
BRANCH  21  26
ATOM     26  O   LIG A   1       6.220  -0.093   0.930  0.00  0.00    -0.503 OA
ATOM     27  H   LIG A   1       6.298   0.614   0.259  0.00  0.00    +0.292 HD
ENDBRANCH  21  26
ENDBRANCH   6  18
TORSDOF 6
