REMARK  Name = NuBBE_2480
REMARK  9 active torsions:
REMARK  status: ('A' for Active; 'I' for Inactive)
REMARK    1  A    between atoms: C_1  and  C_2
REMARK    2  A    between atoms: C_4  and  C_19
REMARK    3  A    between atoms: C_10  and  O_17
REMARK    4  A    between atoms: C_11  and  O_13
REMARK    5  A    between atoms: O_13  and  C_14
REMARK    6  A    between atoms: C_14  and  C_15
REMARK    7  A    between atoms: O_17  and  C_18
REMARK    8  A    between atoms: C_23  and  O_25
REMARK    9  A    between atoms: O_25  and  C_26
REMARK                            x       y       z     vdW  Elec       q    Type
REMARK                         _______ _______ _______ _____ _____    ______ ____
ROOT
ATOM      1  C   LIG A   1       0.093   3.460   1.645  0.00  0.00    +0.016 C 
ATOM      2  C   LIG A   1       0.021   1.945   1.464  0.00  0.00    +0.065 C 
ATOM      3  C   LIG A   1       1.403   1.343   1.075  0.00  0.00    +0.211 C 
ATOM      4  O   LIG A   1       1.434   1.163  -0.366  0.00  0.00    -0.483 OA
ATOM      5  C   LIG A   1       0.115   1.166  -0.740  0.00  0.00    +0.129 A 
ATOM      6  C   LIG A   1      -0.758   1.590   0.243  0.00  0.00    +0.005 A 
ATOM      7  C   LIG A   1      -2.120   1.627  -0.011  0.00  0.00    +0.057 A 
ATOM      8  C   LIG A   1      -2.590   1.212  -1.274  0.00  0.00    +0.162 A 
ATOM      9  C   LIG A   1      -1.673   0.801  -2.275  0.00  0.00    +0.166 A 
ATOM     10  C   LIG A   1      -0.310   0.743  -1.979  0.00  0.00    +0.095 A 
ENDROOT
BRANCH   3  11
ATOM     11  C   LIG A   1       1.720   0.013   1.752  0.00  0.00    +0.000 A 
ATOM     12  C   LIG A   1       1.313  -1.208   1.190  0.00  0.00    +0.057 A 
ATOM     13  C   LIG A   1       1.602  -2.375   1.860  0.00  0.00    +0.170 A 
ATOM     14  C   LIG A   1       2.282  -2.390   3.055  0.00  0.00    +0.207 A 
ATOM     15  C   LIG A   1       2.728  -1.215   3.636  0.00  0.00    +0.166 A 
ATOM     16  C   LIG A   1       2.433  -0.009   2.974  0.00  0.00    +0.057 A 
ATOM     17  O   LIG A   1       2.422  -3.663   3.523  0.00  0.00    -0.449 OA
ATOM     18  C   LIG A   1       1.744  -4.425   2.508  0.00  0.00    +0.467 C 
ATOM     19  O   LIG A   1       1.249  -3.617   1.429  0.00  0.00    -0.453 OA
BRANCH  15  20
ATOM     20  O   LIG A   1       3.435  -1.072   4.796  0.00  0.00    -0.491 OA
ATOM     21  C   LIG A   1       3.753  -2.267   5.501  0.00  0.00    +0.277 C 
ENDBRANCH  15  20
ENDBRANCH   3  11
BRANCH   8  22
ATOM     22  O   LIG A   1      -3.957   1.285  -1.402  0.00  0.00    -0.491 OA
ATOM     23  C   LIG A   1      -4.550   0.415  -2.362  0.00  0.00    +0.277 C 
ENDBRANCH   8  22
BRANCH   9  24
ATOM     24  O   LIG A   1      -2.152   0.415  -3.499  0.00  0.00    -0.484 OA
BRANCH  24  25
ATOM     25  C   LIG A   1      -1.330   0.703  -4.631  0.00  0.00    +0.256 C 
BRANCH  25  26
ATOM     26  C   LIG A   1      -2.092   0.266  -5.850  0.00  0.00    +0.006 C 
ATOM     27  C   LIG A   1      -2.005   0.836  -7.050  0.00  0.00    +0.007 C 
ENDBRANCH  25  26
ENDBRANCH  24  25
ENDBRANCH   9  24
TORSDOF 6
