REMARK  Name = NuBBE_631
REMARK  11 active torsions:
REMARK  status: ('A' for Active; 'I' for Inactive)
REMARK    1  A    between atoms: C_2  and  O_3
REMARK    2  A    between atoms: C_2  and  C_4
REMARK    3  A    between atoms: C_6  and  O_7
REMARK    4  A    between atoms: O_7  and  C_8
REMARK    5  A    between atoms: C_8  and  C_9
REMARK    6  A    between atoms: C_11  and  O_12
REMARK    7  A    between atoms: O_12  and  C_13
REMARK    8  A    between atoms: C_13  and  C_14
REMARK    9  A    between atoms: C_16  and  O_17
REMARK   10  A    between atoms: O_17  and  C_18
REMARK   11  A    between atoms: C_18  and  C_19
REMARK                            x       y       z     vdW  Elec       q    Type
REMARK                         _______ _______ _______ _____ _____    ______ ____
ROOT
ATOM      1  C   LIG A   1      -1.519  -1.839  -0.765  0.00  0.00    +0.066 A 
ATOM      2  C   LIG A   1      -1.924  -0.509  -0.691  0.00  0.00    +0.065 A 
ATOM      3  C   LIG A   1      -1.051   0.495  -0.234  0.00  0.00    +0.178 A 
ATOM      4  C   LIG A   1       0.233   0.140   0.196  0.00  0.00    +0.216 A 
ATOM      5  C   LIG A   1       0.634  -1.210   0.130  0.00  0.00    +0.178 A 
ATOM      6  C   LIG A   1      -0.256  -2.200  -0.302  0.00  0.00    +0.065 A 
ENDROOT
BRANCH   1   8
ATOM      7  O   LIG A   1      -3.700  -2.647  -1.259  0.00  0.00    -0.245 OA
ATOM      8  C   LIG A   1      -2.492  -2.826  -1.294  0.00  0.00    +0.337 C 
BRANCH   8   9
ATOM      9  O   LIG A   1      -1.944  -3.911  -1.886  0.00  0.00    -0.477 OA
ATOM     10  H   LIG A   1      -0.976  -3.901  -1.989  0.00  0.00    +0.295 HD
ENDBRANCH   8   9
ENDBRANCH   1   8
BRANCH   3  11
ATOM     11  O   LIG A   1      -1.472   1.846  -0.157  0.00  0.00    -0.422 OA
BRANCH  11  12
ATOM     12  C   LIG A   1      -2.656   2.325  -0.726  0.00  0.00    +0.309 C 
ATOM     13  C   LIG A   1      -2.967   3.699  -0.233  0.00  0.00    +0.136 C 
ATOM     14  O   LIG A   1      -3.383   1.742  -1.519  0.00  0.00    -0.251 OA
ENDBRANCH  11  12
ENDBRANCH   3  11
BRANCH   4  15
ATOM     15  O   LIG A   1       1.223   1.087   0.572  0.00  0.00    -0.418 OA
BRANCH  15  16
ATOM     16  C   LIG A   1       0.967   2.159   1.435  0.00  0.00    +0.309 C 
ATOM     17  C   LIG A   1       2.156   3.083   1.433  0.00  0.00    +0.136 C 
ATOM     18  O   LIG A   1      -0.037   2.330   2.108  0.00  0.00    -0.251 OA
ENDBRANCH  15  16
ENDBRANCH   4  15
BRANCH   5  19
ATOM     19  O   LIG A   1       1.953  -1.534   0.541  0.00  0.00    -0.422 OA
BRANCH  19  20
ATOM     20  C   LIG A   1       2.629  -2.653   0.044  0.00  0.00    +0.309 C 
ATOM     21  C   LIG A   1       4.026  -2.680   0.579  0.00  0.00    +0.136 C 
ATOM     22  O   LIG A   1       2.198  -3.474  -0.759  0.00  0.00    -0.251 OA
ENDBRANCH  19  20
ENDBRANCH   5  19
TORSDOF 8
