REMARK  Name = NuBBE_385
REMARK  11 active torsions:
REMARK  status: ('A' for Active; 'I' for Inactive)
REMARK    1  A    between atoms: C_1  and  O_2
REMARK    2  A    between atoms: O_2  and  C_3
REMARK    3  A    between atoms: C_5  and  C_6
REMARK    4  A    between atoms: C_6  and  C_7
REMARK    5  A    between atoms: C_9  and  C_24
REMARK    6  A    between atoms: C_11  and  C_15
REMARK    7  A    between atoms: C_18  and  O_23
REMARK    8  A    between atoms: C_19  and  O_20
REMARK    9  A    between atoms: O_20  and  C_21
REMARK   10  A    between atoms: C_24  and  O_25
REMARK   11  A    between atoms: C_28  and  O_29
REMARK                            x       y       z     vdW  Elec       q    Type
REMARK                         _______ _______ _______ _____ _____    ______ ____
ROOT
ATOM      1  C   LIG A   1       0.370  -0.777  -0.311  0.00  0.00    +0.027 C 
ATOM      2  C   LIG A   1      -0.403   0.272  -1.123  0.00  0.00    +0.053 C 
ATOM      3  C   LIG A   1      -0.593   1.430  -0.132  0.00  0.00    +0.154 C 
ATOM      4  O   LIG A   1      -0.417   0.882   1.187  0.00  0.00    -0.371 OA
ATOM      5  C   LIG A   1      -0.222  -0.533   1.071  0.00  0.00    +0.165 C 
ENDROOT
BRANCH   3   6
ATOM      6  C   LIG A   1      -1.949   2.102  -0.202  0.00  0.00    -0.015 A 
ATOM      7  C   LIG A   1      -3.128   1.380   0.042  0.00  0.00    +0.010 A 
ATOM      8  C   LIG A   1      -4.377   2.003  -0.018  0.00  0.00    +0.049 A 
ATOM      9  C   LIG A   1      -4.473   3.359  -0.323  0.00  0.00    +0.159 A 
ATOM     10  C   LIG A   1      -3.309   4.104  -0.571  0.00  0.00    +0.162 A 
ATOM     11  C   LIG A   1      -2.061   3.468  -0.492  0.00  0.00    +0.055 A 
BRANCH  10  12
ATOM     12  O   LIG A   1      -3.231   5.446  -0.836  0.00  0.00    -0.491 OA
ATOM     13  C   LIG A   1      -4.336   6.025  -1.526  0.00  0.00    +0.277 C 
ENDBRANCH  10  12
BRANCH   9  14
ATOM     14  O   LIG A   1      -5.713   3.934  -0.348  0.00  0.00    -0.503 OA
ATOM     15  H   LIG A   1      -6.371   3.284  -0.064  0.00  0.00    +0.292 HD
ENDBRANCH   9  14
ENDBRANCH   3   6
BRANCH   1  16
ATOM     16  C   LIG A   1       1.905  -0.614  -0.322  0.00  0.00    +0.041 C 
BRANCH  16  19
ATOM     17  C   LIG A   1       3.184  -3.986   1.008  0.00  0.00    +0.162 A 
ATOM     18  C   LIG A   1       2.533  -3.015   0.230  0.00  0.00    +0.053 A 
ATOM     19  C   LIG A   1       2.634  -1.645   0.517  0.00  0.00    -0.043 A 
ATOM     20  C   LIG A   1       3.433  -1.248   1.594  0.00  0.00    +0.007 A 
ATOM     21  C   LIG A   1       4.090  -2.199   2.376  0.00  0.00    +0.049 A 
ATOM     22  C   LIG A   1       3.964  -3.564   2.091  0.00  0.00    +0.159 A 
BRANCH  17  24
ATOM     23  C   LIG A   1       3.537  -6.337   1.296  0.00  0.00    +0.277 C 
ATOM     24  O   LIG A   1       2.945  -5.264   0.578  0.00  0.00    -0.491 OA
ENDBRANCH  17  24
BRANCH  22  25
ATOM     25  O   LIG A   1       4.619  -4.455   2.893  0.00  0.00    -0.503 OA
ATOM     26  H   LIG A   1       5.066  -3.971   3.607  0.00  0.00    +0.292 HD
ENDBRANCH  22  25
ENDBRANCH  16  19
ENDBRANCH   1  16
BRANCH   2  27
ATOM     27  C   LIG A   1       0.195   0.715  -2.450  0.00  0.00    +0.162 C 
BRANCH  27  28
ATOM     28  O   LIG A   1       0.336  -0.416  -3.299  0.00  0.00    -0.395 OA
ATOM     29  H   LIG A   1       0.600  -0.088  -4.176  0.00  0.00    +0.209 HD
ENDBRANCH  27  28
ENDBRANCH   2  27
TORSDOF 9
