REMARK  Name = NuBBE_1458
REMARK  7 active torsions:
REMARK  status: ('A' for Active; 'I' for Inactive)
REMARK    1  A    between atoms: C_4  and  O_30
REMARK    2  A    between atoms: C_10  and  C_11
REMARK    3  A    between atoms: C_10  and  C_13
REMARK    4  A    between atoms: C_20  and  O_21
REMARK    5  A    between atoms: O_21  and  C_22
REMARK    6  A    between atoms: C_23  and  O_28
REMARK    7  A    between atoms: O_28  and  C_29
REMARK                            x       y       z     vdW  Elec       q    Type
REMARK                         _______ _______ _______ _____ _____    ______ ____
ROOT
ATOM      1  O   LIG A   1       0.274  -2.531   0.400  0.00  0.00    -0.286 OA
ATOM      2  C   LIG A   1       0.030  -1.403  -0.018  0.00  0.00    +0.204 A 
ATOM      3  C   LIG A   1      -1.353  -0.901   0.055  0.00  0.00    +0.107 A 
ATOM      4  C   LIG A   1      -2.363  -1.644   0.676  0.00  0.00    +0.135 A 
ATOM      5  C   LIG A   1      -3.647  -1.124   0.790  0.00  0.00    +0.092 A 
ATOM      6  C   LIG A   1      -3.924   0.149   0.292  0.00  0.00    +0.136 A 
ATOM      7  C   LIG A   1      -2.935   0.891  -0.367  0.00  0.00    +0.060 A 
ATOM      8  C   LIG A   1      -3.289   2.199  -0.912  0.00  0.00    +0.015 C 
ATOM      9  C   LIG A   1      -4.467   2.726  -0.563  0.00  0.00    +0.020 C 
ATOM     10  C   LIG A   1      -5.439   2.015   0.351  0.00  0.00    +0.123 C 
ATOM     11  C   LIG A   1      -6.861   2.159  -0.204  0.00  0.00    +0.060 C 
ATOM     12  O   LIG A   1      -5.207   0.595   0.468  0.00  0.00    -0.481 OA
ATOM     13  C   LIG A   1      -5.374   2.621   1.759  0.00  0.00    +0.060 C 
ATOM     14  C   LIG A   1      -1.641   0.353  -0.481  0.00  0.00    +0.153 A 
ATOM     15  O   LIG A   1      -0.684   1.103  -1.120  0.00  0.00    -0.455 OA
ATOM     16  C   LIG A   1       0.631   0.686  -1.073  0.00  0.00    +0.154 A 
ATOM     17  C   LIG A   1       1.059  -0.482  -0.565  0.00  0.00    +0.075 A 
ATOM     18  C   LIG A   1       2.515  -0.717  -0.559  0.00  0.00    +0.035 A 
ATOM     19  C   LIG A   1       3.103  -1.963  -0.301  0.00  0.00    +0.061 A 
ATOM     20  C   LIG A   1       4.496  -2.101  -0.200  0.00  0.00    +0.162 A 
ATOM     21  C   LIG A   1       5.325  -0.983  -0.380  0.00  0.00    +0.165 A 
ATOM     22  C   LIG A   1       4.754   0.253  -0.678  0.00  0.00    +0.095 A 
ATOM     23  C   LIG A   1       3.367   0.377  -0.774  0.00  0.00    +0.133 A 
ATOM     24  O   LIG A   1       2.903   1.640  -1.040  0.00  0.00    -0.484 OA
ATOM     25  C   LIG A   1       1.602   1.684  -1.637  0.00  0.00    +0.303 C 
ENDROOT
BRANCH  20  26
ATOM     26  O   LIG A   1       5.122  -3.297   0.055  0.00  0.00    -0.491 OA
ATOM     27  C   LIG A   1       4.385  -4.234   0.831  0.00  0.00    +0.277 C 
ENDBRANCH  20  26
BRANCH  21  28
ATOM     28  O   LIG A   1       6.678  -1.188  -0.275  0.00  0.00    -0.491 OA
ATOM     29  C   LIG A   1       7.436  -0.079   0.195  0.00  0.00    +0.277 C 
ENDBRANCH  21  28
BRANCH   4  30
ATOM     30  O   LIG A   1      -2.159  -2.888   1.211  0.00  0.00    -0.506 OA
ATOM     31  H   LIG A   1      -1.218  -3.135   1.061  0.00  0.00    +0.292 HD
ENDBRANCH   4  30
TORSDOF 3
