@<TRIPOS>MOLECULE
NuBBE_1641
 136 139 0 0 0
SMALL
GASTEIGER

@<TRIPOS>ATOM
      1 C           0.5623    4.9401   -7.4120 C.3     1  LIG1       -0.0440
      2 C           0.0150    4.3484   -8.6858 C.2     1  LIG1       -0.0796
      3 C          -1.3556    4.8445   -9.0555 C.3     1  LIG1       -0.0440
      4 C           0.7200    3.4369   -9.3847 C.2     1  LIG1       -0.0850
      5 C           0.3335    2.7955  -10.6947 C.3     1  LIG1       -0.0308
      6 C          -0.2425    1.3803  -10.5749 C.3     1  LIG1       -0.0286
      7 C          -1.5842    1.3202   -9.8759 C.2     1  LIG1       -0.0762
      8 C          -2.7554    1.5322  -10.7944 C.3     1  LIG1       -0.0438
      9 C          -1.6608    1.0727   -8.5549 C.2     1  LIG1       -0.0847
     10 C          -2.8746    0.9639   -7.6721 C.3     1  LIG1       -0.0308
     11 C          -4.2674    1.1251   -8.2536 C.3     1  LIG1       -0.0286
     12 C          -5.4543    1.0531   -7.3335 C.2     1  LIG1       -0.0762
     13 C          -6.7418    1.2287   -8.0930 C.3     1  LIG1       -0.0438
     14 C          -5.3130    0.9223   -6.0031 C.2     1  LIG1       -0.0849
     15 C          -6.3379    0.9371   -4.9222 C.3     1  LIG1       -0.0309
     16 C          -6.1312    2.0579   -3.8702 C.3     1  LIG1       -0.0097
     17 C          -4.8467    2.0431   -2.9504 C.3     1  LIG1        0.1085
     18 C          -4.8280    0.7184   -2.1608 C.3     1  LIG1       -0.0249
     19 O          -3.6591    2.1750   -3.7463 O.3     1  LIG1       -0.4853
     20 C          -2.4829    2.2686   -3.0429 C.ar    1  LIG1        0.1311
     21 C          -1.3431    1.7888   -3.7042 C.ar    1  LIG1       -0.0048
     22 C          -1.3566    1.3222   -5.1107 C.3     1  LIG1       -0.0361
     23 C          -0.1683    1.7240   -3.0392 C.ar    1  LIG1       -0.0101
     24 C          -0.0667    2.0664   -1.6982 C.ar    1  LIG1        0.1598
     25 O           1.1260    1.6361   -1.2154 O.3     1  LIG1       -0.5033
     26 C          -1.1201    2.6572   -0.9775 C.ar    1  LIG1        0.1762
     27 O          -1.1179    3.1295    0.3507 O.3     1  LIG1       -0.4519
     28 C          -0.0231    3.2420    1.2171 C.ar    1  LIG1        0.1294
     29 C          -0.0138    4.2597    2.1943 C.ar    1  LIG1       -0.0129
     30 C           1.0605    4.3896    3.1500 C.ar    1  LIG1       -0.0050
     31 C           1.1107    5.5510    4.1113 C.3     1  LIG1       -0.0361
     32 C           2.1473    3.4899    3.1384 C.ar    1  LIG1        0.1276
     33 O           3.1315    3.5977    4.0939 O.3     1  LIG1       -0.4854
     34 C           4.2161    2.6087    4.1565 C.3     1  LIG1        0.1085
     35 C           3.8462    1.4628    5.1721 C.3     1  LIG1       -0.0097
     36 C           4.8755    0.3245    5.4823 C.3     1  LIG1       -0.0309
     37 C           4.5643   -0.8370    6.4649 C.2     1  LIG1       -0.0849
     38 C           3.4732   -1.1496    7.2078 C.2     1  LIG1       -0.0762
     39 C           2.2542   -0.2772    7.2295 C.3     1  LIG1       -0.0438
     40 C           3.3650   -2.3889    8.1417 C.3     1  LIG1       -0.0286
     41 C           2.5835   -3.5770    7.5062 C.3     1  LIG1       -0.0308
     42 C           2.2901   -4.8098    8.3782 C.2     1  LIG1       -0.0847
     43 C           2.1402   -6.0972    7.9568 C.2     1  LIG1       -0.0762
     44 C           2.2903   -6.4882    6.5062 C.3     1  LIG1       -0.0438
     45 C           1.6443   -7.2286    8.8961 C.3     1  LIG1       -0.0286
     46 C           2.2572   -8.6528    8.7199 C.3     1  LIG1       -0.0308
     47 C           1.6686   -9.7362    9.6176 C.2     1  LIG1       -0.0850
     48 C           2.2954  -10.8213   10.1276 C.2     1  LIG1       -0.0796
     49 C           3.7566  -11.1310    9.9553 C.3     1  LIG1       -0.0440
     50 C           1.5490  -11.8931   10.8978 C.3     1  LIG1       -0.0440
     51 C           5.4186    3.3968    4.7155 C.3     1  LIG1       -0.0249
     52 C           4.5770    2.1230    2.7458 C.3     1  LIG1       -0.0091
     53 C           3.3677    1.6545    1.9470 C.3     1  LIG1       -0.0205
     54 C           2.1658    2.5219    2.1583 C.ar    1  LIG1       -0.0018
     55 C           1.0359    2.3509    1.3171 C.ar    1  LIG1       -0.0127
     56 C          -2.3673    2.7698   -1.7106 C.ar    1  LIG1        0.0405
     57 C          -3.6075    3.4289   -1.1542 C.3     1  LIG1       -0.0170
     58 C          -4.8656    3.2939   -2.0507 C.3     1  LIG1       -0.0090
     59 H           1.0598    5.8918   -7.6249 H       1  LIG1        0.0274
     60 H           1.2782    4.2717   -6.9231 H       1  LIG1        0.0274
     61 H          -0.2424    5.1307   -6.6930 H       1  LIG1        0.0274
     62 H          -1.3298    5.9225   -9.2434 H       1  LIG1        0.0274
     63 H          -2.0559    4.6519   -8.2348 H       1  LIG1        0.0274
     64 H          -1.7696    4.3623   -9.9431 H       1  LIG1        0.0274
     65 H           1.6981    3.1375   -9.0092 H       1  LIG1        0.0572
     66 H           1.2425    2.7336  -11.3082 H       1  LIG1        0.0310
     67 H          -0.3469    3.4386  -11.2641 H       1  LIG1        0.0310
     68 H           0.4783    0.7110  -10.0868 H       1  LIG1        0.0313
     69 H          -0.3819    0.9749  -11.5821 H       1  LIG1        0.0313
     70 H          -3.0886    0.5722  -11.1806 H       1  LIG1        0.0274
     71 H          -2.4857    2.1943  -11.6211 H       1  LIG1        0.0274
     72 H          -3.5893    2.0434  -10.3371 H       1  LIG1        0.0274
     73 H          -0.7316    0.9586   -8.0117 H       1  LIG1        0.0572
     74 H          -2.7900    1.7944   -6.9710 H       1  LIG1        0.0310
     75 H          -2.8046    0.0059   -7.1455 H       1  LIG1        0.0310
     76 H          -4.3980    0.3966   -9.0541 H       1  LIG1        0.0313
     77 H          -4.3144    2.1541   -8.6266 H       1  LIG1        0.0313
     78 H          -6.7400    2.2066   -8.6025 H       1  LIG1        0.0274
     79 H          -7.6288    1.1742   -7.4720 H       1  LIG1        0.0274
     80 H          -6.8240    0.4584   -8.8708 H       1  LIG1        0.0274
     81 H          -4.3159    0.7885   -5.6064 H       1  LIG1        0.0572
     82 H          -6.3271   -0.0468   -4.4464 H       1  LIG1        0.0309
     83 H          -7.3380    1.0465   -5.3534 H       1  LIG1        0.0309
     84 H          -7.0144    2.0086   -3.2147 H       1  LIG1        0.0306
     85 H          -6.1907    3.0189   -4.3973 H       1  LIG1        0.0306
     86 H          -4.9305   -0.1432   -2.8294 H       1  LIG1        0.0268
     87 H          -5.6362    0.6820   -1.4253 H       1  LIG1        0.0268
     88 H          -3.8845    0.5451   -1.6375 H       1  LIG1        0.0268
     89 H          -2.2492    0.7147   -5.2496 H       1  LIG1        0.0279
     90 H          -0.5084    0.7054   -5.3663 H       1  LIG1        0.0279
     91 H          -1.3231    2.2266   -5.7412 H       1  LIG1        0.0279
     92 H           0.7161    1.3280   -3.5567 H       1  LIG1        0.0659
     93 H           1.0336    0.6599   -1.1956 H       1  LIG1        0.2923
     94 H          -0.8529    4.9519    2.2502 H       1  LIG1        0.0658
     95 H           0.1611    6.0895    4.1699 H       1  LIG1        0.0279
     96 H           1.8837    6.2541    3.7782 H       1  LIG1        0.0279
     97 H           1.3653    5.2133    5.1226 H       1  LIG1        0.0279
     98 H           2.9322    1.0097    4.7842 H       1  LIG1        0.0306
     99 H           3.5914    1.9452    6.1251 H       1  LIG1        0.0306
    100 H           5.7993    0.7851    5.8575 H       1  LIG1        0.0309
    101 H           5.1439   -0.1583    4.5343 H       1  LIG1        0.0309
    102 H           5.4144   -1.5219    6.5577 H       1  LIG1        0.0572
    103 H           1.3635   -0.8320    7.5284 H       1  LIG1        0.0274
    104 H           2.0206    0.1082    6.2422 H       1  LIG1        0.0274
    105 H           2.4037    0.5542    7.9255 H       1  LIG1        0.0274
    106 H           2.8564   -2.0757    9.0657 H       1  LIG1        0.0313
    107 H           4.3601   -2.7284    8.4540 H       1  LIG1        0.0313
    108 H           3.1434   -3.8696    6.6151 H       1  LIG1        0.0310
    109 H           1.6098   -3.2012    7.1661 H       1  LIG1        0.0310
    110 H           2.0590   -4.5868    9.4202 H       1  LIG1        0.0572
    111 H           2.8002   -5.7344    5.9034 H       1  LIG1        0.0274
    112 H           1.3029   -6.6532    6.0634 H       1  LIG1        0.0274
    113 H           2.8830   -7.4000    6.3965 H       1  LIG1        0.0274
    114 H           0.5612   -7.3168    8.7316 H       1  LIG1        0.0313
    115 H           1.7765   -6.9236    9.9415 H       1  LIG1        0.0313
    116 H           3.3422   -8.5910    8.8432 H       1  LIG1        0.0310
    117 H           2.0587   -8.9935    7.6961 H       1  LIG1        0.0310
    118 H           0.5985   -9.6366    9.8126 H       1  LIG1        0.0572
    119 H           4.2134  -10.5799    9.1269 H       1  LIG1        0.0274
    120 H           3.9096  -12.1943    9.7411 H       1  LIG1        0.0274
    121 H           4.2997  -10.8918   10.8753 H       1  LIG1        0.0274
    122 H           0.4622  -11.7914   10.8113 H       1  LIG1        0.0274
    123 H           1.8172  -11.8672   11.9588 H       1  LIG1        0.0274
    124 H           1.8024  -12.8866   10.5117 H       1  LIG1        0.0274
    125 H           5.1642    3.8780    5.6669 H       1  LIG1        0.0268
    126 H           5.7048    4.2087    4.0352 H       1  LIG1        0.0268
    127 H           6.2974    2.7630    4.8652 H       1  LIG1        0.0268
    128 H           5.3363    1.3343    2.7678 H       1  LIG1        0.0307
    129 H           5.0288    2.9614    2.1946 H       1  LIG1        0.0307
    130 H           3.1112    0.6213    2.1891 H       1  LIG1        0.0316
    131 H           3.6409    1.6963    0.8822 H       1  LIG1        0.0316
    132 H           1.0177    1.4291    0.7679 H       1  LIG1        0.0658
    133 H          -3.3980    4.5027   -1.0474 H       1  LIG1        0.0317
    134 H          -3.8373    3.0257   -0.1662 H       1  LIG1        0.0317
    135 H          -4.8943    4.1745   -2.7116 H       1  LIG1        0.0307
    136 H          -5.7766    3.3422   -1.4428 H       1  LIG1        0.0307
@<TRIPOS>BOND
     1     1     2    1
     2     2     3    1
     3     2     4    2
     4     4     5    1
     5     5     6    1
     6     6     7    1
     7     7     8    1
     8     7     9    2
     9     9    10    1
    10    10    11    1
    11    11    12    1
    12    12    13    1
    13    12    14    2
    14    14    15    1
    15    15    16    1
    16    16    17    1
    17    17    18    1
    18    17    19    1
    19    19    20    1
    20    20    21   ar
    21    21    22    1
    22    21    23   ar
    23    23    24   ar
    24    24    25    1
    25    24    26   ar
    26    26    27    1
    27    27    28    1
    28    28    29   ar
    29    29    30   ar
    30    30    31    1
    31    30    32   ar
    32    32    33    1
    33    33    34    1
    34    34    35    1
    35    35    36    1
    36    36    37    1
    37    37    38    2
    38    38    39    1
    39    38    40    1
    40    40    41    1
    41    41    42    1
    42    42    43    2
    43    43    44    1
    44    43    45    1
    45    45    46    1
    46    46    47    1
    47    47    48    2
    48    48    49    1
    49    48    50    1
    50    34    51    1
    51    34    52    1
    52    52    53    1
    53    32    54   ar
    54    53    54    1
    55    54    55   ar
    56    28    55   ar
    57    26    56   ar
    58    20    56   ar
    59    56    57    1
    60    57    58    1
    61    17    58    1
    62     1    59    1
    63     1    60    1
    64     1    61    1
    65     3    62    1
    66     3    63    1
    67     3    64    1
    68     4    65    1
    69     5    66    1
    70     5    67    1
    71     6    68    1
    72     6    69    1
    73     8    70    1
    74     8    71    1
    75     8    72    1
    76     9    73    1
    77    10    74    1
    78    10    75    1
    79    11    76    1
    80    11    77    1
    81    13    78    1
    82    13    79    1
    83    13    80    1
    84    14    81    1
    85    15    82    1
    86    15    83    1
    87    16    84    1
    88    16    85    1
    89    18    86    1
    90    18    87    1
    91    18    88    1
    92    22    89    1
    93    22    90    1
    94    22    91    1
    95    23    92    1
    96    25    93    1
    97    29    94    1
    98    31    95    1
    99    31    96    1
   100    31    97    1
   101    35    98    1
   102    35    99    1
   103    36   100    1
   104    36   101    1
   105    37   102    1
   106    39   103    1
   107    39   104    1
   108    39   105    1
   109    40   106    1
   110    40   107    1
   111    41   108    1
   112    41   109    1
   113    42   110    1
   114    44   111    1
   115    44   112    1
   116    44   113    1
   117    45   114    1
   118    45   115    1
   119    46   116    1
   120    46   117    1
   121    47   118    1
   122    49   119    1
   123    49   120    1
   124    49   121    1
   125    50   122    1
   126    50   123    1
   127    50   124    1
   128    51   125    1
   129    51   126    1
   130    51   127    1
   131    52   128    1
   132    52   129    1
   133    53   130    1
   134    53   131    1
   135    55   132    1
   136    57   133    1
   137    57   134    1
   138    58   135    1
   139    58   136    1
