REMARK  Name = NuBBE_977
REMARK  11 active torsions:
REMARK  status: ('A' for Active; 'I' for Inactive)
REMARK    1  A    between atoms: C_1  and  C_2
REMARK    2  A    between atoms: C_2  and  O_3
REMARK    3  A    between atoms: C_2  and  C_4
REMARK    4  A    between atoms: C_2  and  C_25
REMARK    5  A    between atoms: C_8  and  C_14
REMARK    6  A    between atoms: C_14  and  O_15
REMARK    7  A    between atoms: O_15  and  C_16
REMARK    8  A    between atoms: C_16  and  C_17
REMARK    9  A    between atoms: C_20  and  O_21
REMARK   10  A    between atoms: O_21  and  C_22
REMARK   11  A    between atoms: C_22  and  C_23
REMARK                            x       y       z     vdW  Elec       q    Type
REMARK                         _______ _______ _______ _____ _____    ______ ____
ROOT
ATOM      1  C   LIG A   1       1.501   0.351   0.254  0.00  0.00    +0.024 C 
ATOM      2  C   LIG A   1       0.516   1.335  -0.448  0.00  0.00    +0.007 C 
ATOM      3  C   LIG A   1      -0.494   2.011   0.501  0.00  0.00    +0.007 C 
ATOM      4  C   LIG A   1      -1.988   1.957   0.092  0.00  0.00    +0.027 C 
ATOM      5  C   LIG A   1      -2.720   0.698   0.619  0.00  0.00    +0.007 C 
ATOM      6  C   LIG A   1      -2.174  -0.644   0.132  0.00  0.00    +0.005 C 
ATOM      7  C   LIG A   1      -1.357  -1.383   1.201  0.00  0.00    +0.034 C 
ATOM      8  C   LIG A   1      -0.497  -2.466   0.584  0.00  0.00    -0.037 C 
ATOM      9  C   LIG A   1      -1.085  -3.599   0.151  0.00  0.00    +0.011 C 
ATOM     10  C   LIG A   1       1.406  -1.052  -0.426  0.00  0.00    +0.055 C 
ATOM     11  C   LIG A   1       1.009  -2.204   0.524  0.00  0.00    +0.202 C 
ENDROOT
BRANCH   1  13
ATOM     12  C   LIG A   1       3.956  -0.064   0.941  0.00  0.00    +0.041 C 
ATOM     13  C   LIG A   1       2.973   0.895   0.249  0.00  0.00    +0.064 C 
ATOM     14  C   LIG A   1       3.081   2.266   0.936  0.00  0.00    +0.041 C 
BRANCH  13  15
ATOM     15  O   LIG A   1       3.389   1.046  -1.112  0.00  0.00    -0.389 OA
ATOM     16  H   LIG A   1       4.289   1.417  -1.115  0.00  0.00    +0.210 HD
ENDBRANCH  13  15
ENDBRANCH   1  13
BRANCH   4  17
ATOM     17  C   LIG A   1      -2.238   2.219  -1.410  0.00  0.00    +0.235 C 
BRANCH  17  18
ATOM     18  O   LIG A   1      -3.638   2.176  -1.750  0.00  0.00    -0.465 OA
BRANCH  18  19
ATOM     19  C   LIG A   1      -4.361   3.301  -1.499  0.00  0.00    +0.304 C 
ATOM     20  C   LIG A   1      -5.762   3.129  -2.010  0.00  0.00    +0.136 C 
ATOM     21  O   LIG A   1      -3.946   4.303  -0.941  0.00  0.00    -0.251 OA
ENDBRANCH  18  19
ENDBRANCH  17  18
ENDBRANCH   4  17
BRANCH  11  22
ATOM     22  O   LIG A   1       1.668  -3.377  -0.008  0.00  0.00    -0.457 OA
BRANCH  22  23
ATOM     23  C   LIG A   1       2.609  -3.963   0.772  0.00  0.00    +0.304 C 
ATOM     24  C   LIG A   1       3.317  -5.038   0.006  0.00  0.00    +0.136 C 
ATOM     25  O   LIG A   1       2.894  -3.650   1.919  0.00  0.00    -0.251 OA
ENDBRANCH  22  23
ENDBRANCH  11  22
TORSDOF 7
