REMARK  Name = NuBBE_2254
REMARK  1 active torsions:
REMARK  status: ('A' for Active; 'I' for Inactive)
REMARK    1  A    between atoms: C_1  and  C_3
REMARK                            x       y       z     vdW  Elec       q    Type
REMARK                         _______ _______ _______ _____ _____    ______ ____
ROOT
ATOM      1  C   LIG A   1      -0.872  -0.007   0.066  0.00  0.00    +0.014 A 
ATOM      2  C   LIG A   1      -0.194   1.212  -0.026  0.00  0.00    +0.011 A 
ATOM      3  C   LIG A   1       1.198   1.220  -0.132  0.00  0.00    +0.001 A 
ATOM      4  C   LIG A   1       1.906   0.017  -0.144  0.00  0.00    +0.000 A 
ATOM      5  C   LIG A   1       1.226  -1.199  -0.052  0.00  0.00    +0.001 A 
ATOM      6  C   LIG A   1      -0.165  -1.213   0.053  0.00  0.00    +0.011 A 
ENDROOT
BRANCH   1   7
ATOM      7  C   LIG A   1      -2.344  -0.010   0.177  0.00  0.00    +0.258 C 
ATOM      8  O   LIG A   1      -2.991  -1.046   0.263  0.00  0.00    -0.296 OA
ENDBRANCH   1   7
TORSDOF 1
