@<TRIPOS>MOLECULE
NuBBE_2469
 55 56 0 0 0
SMALL
GASTEIGER

@<TRIPOS>ATOM
      1 O           1.5774   -1.9401   -3.0822 O.3     1  LIG1       -0.3947
      2 C           1.0072   -0.8749   -2.3309 C.3     1  LIG1        0.0477
      3 C           0.8363   -1.2578   -0.8500 C.3     1  LIG1       -0.0086
      4 H           0.5346   -0.3452   -0.3210 H       1  LIG1        0.0329
      5 C          -0.3069   -2.3192   -0.6185 C.3     1  LIG1       -0.0086
      6 H          -0.2843   -2.6018    0.4431 H       1  LIG1        0.0329
      7 C          -0.0988   -3.6147   -1.4447 C.3     1  LIG1        0.0477
      8 O          -1.0090   -4.6238   -1.0099 O.3     1  LIG1       -0.3947
      9 C          -1.7555   -1.8157   -0.9009 C.3     1  LIG1       -0.0223
     10 C          -2.3265   -0.6324   -0.1332 C.ar    1  LIG1       -0.0433
     11 C          -2.9812   -0.8281    1.0862 C.ar    1  LIG1       -0.0549
     12 C          -3.7133    0.2041    1.6602 C.ar    1  LIG1       -0.0160
     13 C          -3.7946    1.4533    1.0464 C.ar    1  LIG1        0.1615
     14 O          -4.5441    2.4526    1.6346 O.3     1  LIG1       -0.4915
     15 C          -5.8601    2.0699    2.0348 C.3     1  LIG1        0.0790
     16 C          -3.0833    1.7093   -0.1335 C.ar    1  LIG1        0.1617
     17 O          -2.9857    2.9049   -0.7874 O.3     1  LIG1       -0.4914
     18 C          -4.0314    3.8550   -0.5942 C.3     1  LIG1        0.0790
     19 C          -2.3592    0.6564   -0.7163 C.ar    1  LIG1       -0.0131
     20 C           2.1690   -1.7422   -0.1954 C.3     1  LIG1       -0.0223
     21 C           3.3040   -0.7349   -0.1057 C.ar    1  LIG1       -0.0433
     22 C           3.3869    0.1486    0.9940 C.ar    1  LIG1       -0.0131
     23 C           4.4481    1.0558    1.1025 C.ar    1  LIG1        0.1615
     24 O           4.6321    1.9727    2.1169 O.3     1  LIG1       -0.4915
     25 C           3.6550    1.9743    3.1455 C.3     1  LIG1        0.0790
     26 C           5.4356    1.0713    0.1213 C.ar    1  LIG1        0.1585
     27 O           6.4858    1.9413    0.1985 O.3     1  LIG1       -0.5033
     28 C           5.3844    0.1954   -0.9650 C.ar    1  LIG1       -0.0163
     29 C           4.3175   -0.7006   -1.0692 C.ar    1  LIG1       -0.0549
     30 H           1.1460   -1.9400   -3.9561 H       1  LIG1        0.2094
     31 H           0.0418   -0.6177   -2.7779 H       1  LIG1        0.0560
     32 H           1.6532    0.0027   -2.4362 H       1  LIG1        0.0560
     33 H           0.9102   -4.0169   -1.3297 H       1  LIG1        0.0560
     34 H          -0.2943   -3.4449   -2.5094 H       1  LIG1        0.0560
     35 H          -0.7617   -5.4455   -1.4702 H       1  LIG1        0.2094
     36 H          -2.4445   -2.6465   -0.6958 H       1  LIG1        0.0317
     37 H          -1.8827   -1.6333   -1.9782 H       1  LIG1        0.0317
     38 H          -2.9611   -1.7982    1.5676 H       1  LIG1        0.0621
     39 H          -4.2204    0.0225    2.6119 H       1  LIG1        0.0655
     40 H          -6.4847    2.9700    2.0318 H       1  LIG1        0.0660
     41 H          -5.8331    1.6819    3.0556 H       1  LIG1        0.0660
     42 H          -6.3174    1.3469    1.3503 H       1  LIG1        0.0660
     43 H          -3.8101    4.7425   -1.1928 H       1  LIG1        0.0660
     44 H          -4.0942    4.2195    0.4351 H       1  LIG1        0.0660
     45 H          -4.9858    3.4410   -0.9378 H       1  LIG1        0.0660
     46 H          -1.8621    0.8322   -1.6699 H       1  LIG1        0.0658
     47 H           2.5519   -2.6444   -0.6914 H       1  LIG1        0.0317
     48 H           1.9502   -2.0618    0.8321 H       1  LIG1        0.0317
     49 H           2.6280    0.0882    1.7564 H       1  LIG1        0.0658
     50 H           3.8591    2.8249    3.8030 H       1  LIG1        0.0660
     51 H           3.7253    1.0600    3.7448 H       1  LIG1        0.0660
     52 H           2.6442    2.1083    2.7444 H       1  LIG1        0.0660
     53 H           6.3346    2.4528    1.0174 H       1  LIG1        0.2923
     54 H           6.1723    0.2130   -1.7142 H       1  LIG1        0.0655
     55 H           4.2949   -1.3909   -1.9170 H       1  LIG1        0.0621
@<TRIPOS>BOND
     1     1     2    1
     2     2     3    1
     3     3     4    1
     4     5     7    1
     5     7     8    1
     6     5     9    1
     7     9    10    1
     8    10    11   ar
     9    11    12   ar
    10    12    13   ar
    11    13    14    1
    12    14    15    1
    13    13    16   ar
    14    16    17    1
    15    17    18    1
    16    16    19   ar
    17    10    19   ar
    18     3    20    1
    19    20    21    1
    20    21    22   ar
    21    22    23   ar
    22    23    24    1
    23    24    25    1
    24    23    26   ar
    25    26    27    1
    26    26    28   ar
    27    28    29   ar
    28    21    29   ar
    29     5     6    1
    30     5     3    1
    31     1    30    1
    32     2    31    1
    33     2    32    1
    34     7    33    1
    35     7    34    1
    36     8    35    1
    37     9    36    1
    38     9    37    1
    39    11    38    1
    40    12    39    1
    41    15    40    1
    42    15    41    1
    43    15    42    1
    44    18    43    1
    45    18    44    1
    46    18    45    1
    47    19    46    1
    48    20    47    1
    49    20    48    1
    50    22    49    1
    51    25    50    1
    52    25    51    1
    53    25    52    1
    54    27    53    1
    55    28    54    1
    56    29    55    1
