@<TRIPOS>MOLECULE
NuBBE_405
 25 26 0 0 0
SMALL
GASTEIGER

@<TRIPOS>ATOM
      1 C          -4.3098   -0.9898    0.2268 C.3     1  LIG1       -0.0062
      2 C          -2.8183   -0.9221    0.1647 C.ar    1  LIG1        0.1067
      3 C          -2.1240    0.2158    0.0801 C.ar    1  LIG1       -0.0156
      4 C          -0.6716    0.1480    0.0252 C.ar    1  LIG1       -0.0009
      5 C           0.0701    1.3346   -0.0655 C.ar    1  LIG1       -0.0117
      6 C           1.4648    1.3081   -0.1220 C.ar    1  LIG1        0.1242
      7 O           2.0535    2.5388   -0.2099 O.3     1  LIG1       -0.4950
      8 C           3.4731    2.5766   -0.2911 C.3     1  LIG1        0.0788
      9 C           2.1247    0.0820   -0.0853 C.ar    1  LIG1        0.0224
     10 C           1.3889   -1.1075    0.0059 C.ar    1  LIG1        0.1349
     11 O           2.0736   -2.2902    0.0393 O.3     1  LIG1       -0.5058
     12 C          -0.0143   -1.0882    0.0615 C.ar    1  LIG1        0.1081
     13 C          -0.8232   -2.3412    0.1576 C.ar    1  LIG1        0.3483
     14 O          -2.1845   -2.1816    0.2030 O.2     1  LIG1       -0.4270
     15 O          -0.3360   -3.4634    0.1955 O.2     1  LIG1       -0.2444
     16 H          -4.7672    0.0044    0.1964 H       1  LIG1        0.0308
     17 H          -4.6275   -1.4794    1.1529 H       1  LIG1        0.0308
     18 H          -4.6973   -1.5657   -0.6195 H       1  LIG1        0.0308
     19 H          -2.6143    1.1830    0.0509 H       1  LIG1        0.0657
     20 H          -0.4351    2.2985   -0.0941 H       1  LIG1        0.0660
     21 H           3.7761    3.6254   -0.3646 H       1  LIG1        0.0660
     22 H           3.8305    2.0623   -1.1894 H       1  LIG1        0.0660
     23 H           3.9305    2.1596    0.6121 H       1  LIG1        0.0660
     24 H           3.2067    0.0325   -0.1260 H       1  LIG1        0.0691
     25 H           3.0307   -2.1405   -0.0047 H       1  LIG1        0.2922
@<TRIPOS>BOND
     1     1     2    1
     2     2     3   ar
     3     3     4   ar
     4     4     5   ar
     5     5     6   ar
     6     6     7    1
     7     7     8    1
     8     6     9   ar
     9     9    10   ar
    10    10    11    1
    11    10    12   ar
    12     4    12   ar
    13    12    13   ar
    14    13    14   ar
    15     2    14   ar
    16    13    15    2
    17     1    16    1
    18     1    17    1
    19     1    18    1
    20     3    19    1
    21     5    20    1
    22     8    21    1
    23     8    22    1
    24     8    23    1
    25     9    24    1
    26    11    25    1
