@<TRIPOS>MOLECULE
NuBBE_1916
 40 39 0 0 0
SMALL
GASTEIGER

@<TRIPOS>ATOM
      1 C           0.8091   -0.0060   -0.1610 C.3     1  LIG1       -0.0527
      2 C           0.2888    0.6015   -1.5256 C.3     1  LIG1       -0.0530
      3 C          -1.2150    0.8430   -1.8796 C.3     1  LIG1       -0.0531
      4 C          -2.2161   -0.3047   -1.8283 C.3     1  LIG1       -0.0531
      5 C          -2.2199   -1.2282   -0.6123 C.3     1  LIG1       -0.0531
      6 C          -2.7007   -0.7034    0.7582 C.3     1  LIG1       -0.0531
      7 C          -1.9916    0.4016    1.5732 C.3     1  LIG1       -0.0533
      8 C          -1.6975    1.7650    0.9638 C.3     1  LIG1       -0.0559
      9 C          -2.8999    2.4318    0.3129 C.3     1  LIG1       -0.0653
     10 C           2.3382   -0.2337   -0.1142 C.3     1  LIG1       -0.0464
     11 C           2.8817   -0.8408    1.1993 C.3     1  LIG1        0.0055
     12 C           4.4091   -1.0699    1.2259 C.2     1  LIG1        0.1303
     13 O           5.1128   -0.5233    2.0292 O.2     1  LIG1       -0.2977
     14 C           4.9895   -2.1091    0.2744 C.3     1  LIG1       -0.0061
     15 H           0.3257   -0.9531    0.0570 H       1  LIG1        0.0265
     16 H           0.6135    0.6486    0.6902 H       1  LIG1        0.0265
     17 H           0.6714   -0.0139   -2.3414 H       1  LIG1        0.0265
     18 H           0.7598    1.5910   -1.6172 H       1  LIG1        0.0265
     19 H          -1.2821    1.3277   -2.8661 H       1  LIG1        0.0265
     20 H          -1.6297    1.6682   -1.3395 H       1  LIG1        0.0265
     21 H          -2.0320   -0.9080   -2.7254 H       1  LIG1        0.0265
     22 H          -3.2357    0.0904   -1.9578 H       1  LIG1        0.0265
     23 H          -1.2665   -1.7464   -0.5339 H       1  LIG1        0.0265
     24 H          -2.9072   -2.0509   -0.8712 H       1  LIG1        0.0265
     25 H          -2.6802   -1.5853    1.4195 H       1  LIG1        0.0265
     26 H          -3.7620   -0.4453    0.6755 H       1  LIG1        0.0265
     27 H          -1.0675   -0.0152    1.9924 H       1  LIG1        0.0265
     28 H          -2.6288    0.6161    2.4384 H       1  LIG1        0.0265
     29 H          -0.8925    1.6656    0.2624 H       1  LIG1        0.0263
     30 H          -1.2135    2.4438    1.6726 H       1  LIG1        0.0263
     31 H          -3.4624    1.7454   -0.3305 H       1  LIG1        0.0230
     32 H          -2.5722    3.2650   -0.3241 H       1  LIG1        0.0230
     33 H          -3.5819    2.8099    1.0676 H       1  LIG1        0.0230
     34 H           2.8253    0.7357   -0.2645 H       1  LIG1        0.0269
     35 H           2.6032   -0.8830   -0.9501 H       1  LIG1        0.0269
     36 H           2.3951   -1.7927    1.4475 H       1  LIG1        0.0341
     37 H           2.6726   -0.1616    2.0411 H       1  LIG1        0.0341
     38 H           4.7491   -3.1156    0.6229 H       1  LIG1        0.0306
     39 H           6.0791   -2.0010    0.2614 H       1  LIG1        0.0306
     40 H           4.6308   -1.9591   -0.7428 H       1  LIG1        0.0306
@<TRIPOS>BOND
     1     1     2    1
     2     2     3    1
     3     3     4    1
     4     4     5    1
     5     5     6    1
     6     6     7    1
     7     7     8    1
     8     8     9    1
     9     1    10    1
    10    10    11    1
    11    11    12    1
    12    12    13    2
    13    12    14    1
    14     1    15    1
    15     1    16    1
    16     2    17    1
    17     2    18    1
    18     3    19    1
    19     3    20    1
    20     4    21    1
    21     4    22    1
    22     5    23    1
    23     5    24    1
    24     6    25    1
    25     6    26    1
    26     7    27    1
    27     7    28    1
    28     8    29    1
    29     8    30    1
    30     9    31    1
    31     9    32    1
    32     9    33    1
    33    10    34    1
    34    10    35    1
    35    11    36    1
    36    11    37    1
    37    14    38    1
    38    14    39    1
    39    14    40    1
