REMARK  Name = NuBBE_1163
REMARK  12 active torsions:
REMARK  status: ('A' for Active; 'I' for Inactive)
REMARK    1  A    between atoms: C_1  and  C_2
REMARK    2  A    between atoms: C_5  and  C_6
REMARK    3  A    between atoms: C_13  and  C_14
REMARK    4  A    between atoms: C_13  and  C_23
REMARK    5  A    between atoms: C_14  and  C_15
REMARK    6  A    between atoms: C_25  and  O_27
REMARK    7  A    between atoms: O_27  and  C_28
REMARK    8  A    between atoms: C_28  and  C_29
REMARK    9  A    between atoms: C_36  and  C_47
REMARK   10  A    between atoms: C_39  and  O_41
REMARK   11  A    between atoms: O_41  and  C_42
REMARK   12  A    between atoms: C_42  and  C_43
REMARK                            x       y       z     vdW  Elec       q    Type
REMARK                         _______ _______ _______ _____ _____    ______ ____
ROOT
ATOM      1  C   LIG A   1      -0.349  -1.704   2.597  0.00  0.00    +0.020 C 
ATOM      2  C   LIG A   1       0.593  -1.090   1.526  0.00  0.00    +0.040 C 
ATOM      3  C   LIG A   1      -0.255  -0.242   0.428  0.00  0.00    +0.053 C 
ATOM      4  C   LIG A   1       0.604   0.863  -0.253  0.00  0.00    +0.016 C 
ATOM      5  C   LIG A   1       1.732   0.181  -1.099  0.00  0.00    +0.015 C 
ATOM      6  C   LIG A   1       1.128   1.832   0.847  0.00  0.00    +0.183 C 
ATOM      7  O   LIG A   1       2.233   2.570   0.310  0.00  0.00    -0.461 OA
ATOM      8  C   LIG A   1       2.005   3.221  -0.865  0.00  0.00    +0.308 C 
ATOM      9  C   LIG A   1       0.574   3.171  -1.370  0.00  0.00    +0.126 C 
ATOM     10  C   LIG A   1      -0.141   1.784  -1.303  0.00  0.00    +0.023 C 
ATOM     11  C   LIG A   1      -1.698   1.882  -1.141  0.00  0.00    +0.034 C 
ATOM     12  C   LIG A   1      -2.278   3.284  -1.464  0.00  0.00    +0.019 C 
ATOM     13  C   LIG A   1      -2.110   1.622   0.324  0.00  0.00    +0.059 C 
ATOM     14  C   LIG A   1      -1.568   0.361   1.015  0.00  0.00    +0.182 C 
ATOM     15  O   LIG A   1       2.877   3.871  -1.428  0.00  0.00    -0.251 OA
ATOM     16  C   LIG A   1       1.481   1.218   2.215  0.00  0.00    +0.050 C 
ATOM     17  C   LIG A   1       1.796  -0.267   2.114  0.00  0.00    +0.009 C 
ATOM     18  C   LIG A   1       2.398  -0.955   3.361  0.00  0.00    -0.006 C 
ATOM     19  C   LIG A   1       3.079  -2.259   2.887  0.00  0.00    +0.056 C 
ATOM     20  C   LIG A   1       2.301  -3.081   1.837  0.00  0.00    +0.243 C 
ATOM     21  C   LIG A   1       1.282  -2.327   0.929  0.00  0.00    +0.180 C 
ATOM     22  O   LIG A   1       0.979  -2.768  -0.183  0.00  0.00    -0.293 OA
ATOM     23  C   LIG A   1       3.413  -0.094   4.120  0.00  0.00    +0.008 C 
ENDROOT
BRANCH  11  24
ATOM     24  C   LIG A   1      -2.400   0.853  -2.090  0.00  0.00    +0.146 C 
ATOM     25  O   LIG A   1      -2.616  -0.301  -1.719  0.00  0.00    -0.296 OA
BRANCH  24  26
ATOM     26  C   LIG A   1      -2.766   1.248  -3.521  0.00  0.00    +0.104 C 
ATOM     27  C   LIG A   1      -3.992   0.491  -3.999  0.00  0.00    +0.243 C 
ATOM     28  O   LIG A   1      -3.856   0.374  -5.413  0.00  0.00    -0.464 OA
ATOM     29  C   LIG A   1      -2.553   0.560  -5.755  0.00  0.00    +0.308 C 
ATOM     30  C   LIG A   1      -1.725   0.866  -4.548  0.00  0.00    +0.135 C 
ATOM     31  O   LIG A   1      -2.128   0.484  -6.903  0.00  0.00    -0.251 OA
ENDBRANCH  24  26
ENDBRANCH  11  24
BRANCH  14  32
ATOM     32  O   LIG A   1      -2.595  -0.654   0.981  0.00  0.00    -0.461 OA
BRANCH  32  33
ATOM     33  C   LIG A   1      -3.631  -0.510   1.851  0.00  0.00    +0.304 C 
ATOM     34  C   LIG A   1      -4.704  -1.506   1.548  0.00  0.00    +0.136 C 
ATOM     35  O   LIG A   1      -3.698   0.340   2.728  0.00  0.00    -0.251 OA
ENDBRANCH  32  33
ENDBRANCH  14  32
BRANCH  20  36
ATOM     36  O   LIG A   1       3.170  -3.899   1.031  0.00  0.00    -0.454 OA
BRANCH  36  37
ATOM     37  C   LIG A   1       3.816  -3.234   0.031  0.00  0.00    +0.305 C 
ATOM     38  C   LIG A   1       4.045  -4.140  -1.135  0.00  0.00    +0.136 C 
ATOM     39  O   LIG A   1       4.107  -2.046   0.051  0.00  0.00    -0.251 OA
ENDBRANCH  36  37
ENDBRANCH  20  36
TORSDOF 6
