REMARK  Name = NuBBE_1971
REMARK  4 active torsions:
REMARK  status: ('A' for Active; 'I' for Inactive)
REMARK    1  A    between atoms: S_1  and  C_2
REMARK    2  A    between atoms: S_1  and  C_5
REMARK    3  A    between atoms: C_2  and  C_3
REMARK    4  A    between atoms: C_5  and  C_6
REMARK                            x       y       z     vdW  Elec       q    Type
REMARK                         _______ _______ _______ _____ _____    ______ ____
ROOT
ATOM      1  S   LIG A   1      -1.303   1.567  -0.675  0.00  0.00    -0.153 S 
ENDROOT
BRANCH   1   2
ATOM      2  C   LIG A   1      -1.688   0.037   0.235  0.00  0.00    +0.096 C 
BRANCH   2   3
ATOM      3  C   LIG A   1      -1.315  -1.169  -0.572  0.00  0.00    -0.024 C 
ATOM      4  C   LIG A   1      -0.417  -2.091  -0.182  0.00  0.00    +0.004 C 
ENDBRANCH   2   3
ENDBRANCH   1   2
BRANCH   1   5
ATOM      5  C   LIG A   1       0.501   1.402  -0.843  0.00  0.00    +0.096 C 
BRANCH   5   6
ATOM      6  C   LIG A   1       1.160   1.349   0.501  0.00  0.00    -0.024 C 
ATOM      7  C   LIG A   1       1.892   0.309   0.935  0.00  0.00    +0.004 C 
ENDBRANCH   5   6
ENDBRANCH   1   5
TORSDOF 4
