REMARK  Name = NuBBE_1784
REMARK  4 active torsions:
REMARK  status: ('A' for Active; 'I' for Inactive)
REMARK    1  A    between atoms: C_3  and  C_11
REMARK    2  A    between atoms: C_7  and  O_9
REMARK    3  A    between atoms: O_9  and  C_10
REMARK    4  A    between atoms: C_19  and  O_22
REMARK                            x       y       z     vdW  Elec       q    Type
REMARK                         _______ _______ _______ _____ _____    ______ ____
ROOT
ATOM      1  C   LIG A   1       0.334   0.449  -0.406  0.00  0.00    +0.065 C 
ATOM      2  C   LIG A   1      -1.196   0.348  -0.334  0.00  0.00    +0.050 C 
ATOM      3  C   LIG A   1      -1.846   1.683  -0.571  0.00  0.00    -0.005 A 
ATOM      4  C   LIG A   1      -1.097   2.865  -0.581  0.00  0.00    +0.127 A 
ATOM      5  O   LIG A   1       0.264   2.894  -0.413  0.00  0.00    -0.491 OA
ATOM      6  C   LIG A   1       0.781   1.746   0.275  0.00  0.00    +0.237 C 
ATOM      7  C   LIG A   1      -1.717   4.098  -0.789  0.00  0.00    +0.091 A 
ATOM      8  C   LIG A   1      -3.098   4.147  -0.947  0.00  0.00    +0.120 A 
ATOM      9  C   LIG A   1      -3.861   2.986  -0.925  0.00  0.00    +0.046 A 
ATOM     10  C   LIG A   1      -3.236   1.753  -0.741  0.00  0.00    +0.011 A 
ENDROOT
BRANCH   1  13
ATOM     11  O   LIG A   1       0.180  -0.561   2.315  0.00  0.00    -0.287 OA
ATOM     12  C   LIG A   1       0.835  -1.222   1.518  0.00  0.00    +0.186 C 
ATOM     13  C   LIG A   1       1.037  -0.790   0.111  0.00  0.00    +0.010 C 
ATOM     14  C   LIG A   1       1.848  -1.514  -0.675  0.00  0.00    +0.062 C 
ATOM     15  C   LIG A   1       2.539  -2.735  -0.219  0.00  0.00    +0.221 C 
ATOM     16  O   LIG A   1       3.324  -3.283  -0.987  0.00  0.00    -0.284 OA
ATOM     17  C   LIG A   1       2.237  -3.230   1.157  0.00  0.00    +0.170 C 
ATOM     18  C   LIG A   1       1.444  -2.495   1.945  0.00  0.00    +0.100 C 
BRANCH  17  19
ATOM     19  O   LIG A   1       2.790  -4.392   1.681  0.00  0.00    -0.491 OA
ATOM     20  C   LIG A   1       2.969  -5.470   0.765  0.00  0.00    +0.277 C 
ENDBRANCH  17  19
ENDBRANCH   1  13
BRANCH   8  21
ATOM     21  O   LIG A   1      -3.752   5.332  -1.116  0.00  0.00    -0.507 OA
ATOM     22  H   LIG A   1      -3.103   6.053  -1.056  0.00  0.00    +0.292 HD
ENDBRANCH   8  21
TORSDOF 3
