REMARK  Name = NuBBE_2442
REMARK  0 active torsions:
REMARK  status: ('A' for Active; 'I' for Inactive)
REMARK                            x       y       z     vdW  Elec       q    Type
REMARK                         _______ _______ _______ _____ _____    ______ ____
ROOT
ATOM      1  O   LIG A   1      -4.409  -1.083   0.192  0.00  0.00    -0.245 OA
ATOM      2  C   LIG A   1      -3.188  -1.011   0.199  0.00  0.00    +0.337 A 
ATOM      3  O   LIG A   1      -2.513   0.194   0.342  0.00  0.00    -0.422 OA
ATOM      4  C   LIG A   1      -1.106   0.265   0.241  0.00  0.00    +0.143 A 
ATOM      5  C   LIG A   1      -0.344  -0.896   0.086  0.00  0.00    +0.018 A 
ATOM      6  C   LIG A   1      -1.025  -2.181   0.032  0.00  0.00    +0.018 A 
ATOM      7  C   LIG A   1      -2.360  -2.223   0.068  0.00  0.00    +0.092 A 
ATOM      8  C   LIG A   1       1.049  -0.804  -0.060  0.00  0.00    +0.023 A 
ATOM      9  C   LIG A   1       1.640   0.474  -0.098  0.00  0.00    +0.021 A 
ATOM     10  C   LIG A   1       0.829   1.593   0.063  0.00  0.00    +0.138 A 
ATOM     11  C   LIG A   1      -0.547   1.544   0.261  0.00  0.00    +0.093 A 
ATOM     12  O   LIG A   1       1.572   2.731  -0.027  0.00  0.00    -0.463 OA
ATOM     13  C   LIG A   1       2.854   2.349  -0.262  0.00  0.00    +0.196 A 
ATOM     14  C   LIG A   1       2.953   0.978  -0.298  0.00  0.00    +0.049 A 
ENDROOT
TORSDOF 0
