@<TRIPOS>MOLECULE
NuBBE_1285
 36 38 0 0 0
SMALL
GASTEIGER

@<TRIPOS>ATOM
      1 O          -6.2310    1.0060   -0.1180 O.2     1  LIG1       -0.2452
      2 C          -5.0319    1.2190   -0.1963 C.ar    1  LIG1        0.3373
      3 O          -4.0802    0.2123   -0.1145 O.2     1  LIG1       -0.4183
      4 C          -2.6910    0.4749   -0.2246 C.ar    1  LIG1        0.1841
      5 C          -1.8020   -0.6058   -0.1030 C.ar    1  LIG1        0.2052
      6 O          -2.3492   -1.8405    0.1011 O.3     1  LIG1       -0.4885
      7 C          -1.5519   -2.7615    0.8368 C.3     1  LIG1        0.0791
      8 C          -0.4523   -0.3161   -0.2447 C.ar    1  LIG1        0.1695
      9 C          -0.0039    0.9823   -0.4705 C.ar    1  LIG1        0.0023
     10 C           1.4768    1.0029   -0.5307 C.3     1  LIG1        0.0158
     11 C           1.7469   -0.5029   -0.6751 C.3     1  LIG1        0.1324
     12 H           1.8127   -0.7691   -1.7410 H       1  LIG1        0.0765
     13 C           3.0161   -1.0135    0.0533 C.3     1  LIG1        0.0974
     14 C           2.9652   -0.7909    1.5684 C.3     1  LIG1       -0.0328
     15 O           3.1355   -2.4310   -0.1563 O.3     1  LIG1       -0.3855
     16 C           4.2826   -0.3862   -0.5310 C.3     1  LIG1       -0.0328
     17 O           0.5814   -1.2173   -0.1672 O.3     1  LIG1       -0.4816
     18 C          -0.8817    2.0528   -0.5421 C.ar    1  LIG1       -0.0441
     19 C          -2.2484    1.7950   -0.4243 C.ar    1  LIG1        0.0218
     20 C          -3.2242    2.8711   -0.4829 C.ar    1  LIG1       -0.0442
     21 C          -4.5249    2.5931   -0.3742 C.ar    1  LIG1        0.0236
     22 H          -2.1872   -3.6103    1.1083 H       1  LIG1        0.0660
     23 H          -1.1794   -2.3148    1.7655 H       1  LIG1        0.0660
     24 H          -0.7350   -3.1597    0.2286 H       1  LIG1        0.0660
     25 H           1.8647    1.4297    0.3971 H       1  LIG1        0.0351
     26 H           1.8672    1.5675   -1.3818 H       1  LIG1        0.0351
     27 H           2.0725   -1.2501    2.0068 H       1  LIG1        0.0258
     28 H           2.9745    0.2701    1.8314 H       1  LIG1        0.0258
     29 H           3.8250   -1.2641    2.0558 H       1  LIG1        0.0258
     30 H           2.3659   -2.8482    0.2738 H       1  LIG1        0.2103
     31 H           4.2711    0.7054   -0.4634 H       1  LIG1        0.0258
     32 H           4.4113   -0.6718   -1.5816 H       1  LIG1        0.0258
     33 H           5.1721   -0.7518   -0.0044 H       1  LIG1        0.0258
     34 H          -0.5078    3.0629   -0.6805 H       1  LIG1        0.0628
     35 H          -2.8798    3.8921   -0.6080 H       1  LIG1        0.0627
     36 H          -5.2800    3.3689   -0.4109 H       1  LIG1        0.0689
@<TRIPOS>BOND
     1     1     2    2
     2     2     3   ar
     3     3     4   ar
     4     4     5   ar
     5     5     6    1
     6     6     7    1
     7     5     8   ar
     8     8     9   ar
     9     9    10    1
    10    10    11    1
    11    11    12    1
    12    11    13    1
    13    13    14    1
    14    13    15    1
    15    13    16    1
    16    11    17    1
    17     8    17    1
    18     9    18   ar
    19    18    19   ar
    20     4    19   ar
    21    19    20   ar
    22    20    21   ar
    23     2    21   ar
    24     7    22    1
    25     7    23    1
    26     7    24    1
    27    10    25    1
    28    10    26    1
    29    14    27    1
    30    14    28    1
    31    14    29    1
    32    15    30    1
    33    16    31    1
    34    16    32    1
    35    16    33    1
    36    18    34    1
    37    20    35    1
    38    21    36    1
