REMARK  Name = NuBBE_1519
REMARK  15 active torsions:
REMARK  status: ('A' for Active; 'I' for Inactive)
REMARK    1  A    between atoms: C_1  and  C_2
REMARK    2  A    between atoms: C_3  and  C_4
REMARK    3  A    between atoms: C_5  and  C_9
REMARK    4  A    between atoms: C_11  and  O_13
REMARK    5  A    between atoms: O_13  and  C_14
REMARK    6  A    between atoms: C_16  and  C_19
REMARK    7  A    between atoms: C_19  and  C_21
REMARK    8  A    between atoms: C_19  and  O_26
REMARK    9  A    between atoms: C_21  and  O_22
REMARK   10  A    between atoms: C_21  and  C_24
REMARK   11  A    between atoms: C_21  and  C_25
REMARK   12  A    between atoms: O_22  and  C_23
REMARK   13  A    between atoms: C_36  and  C_37
REMARK   14  A    between atoms: C_42  and  C_43
REMARK   15  A    between atoms: C_42  and  C_44
REMARK                            x       y       z     vdW  Elec       q    Type
REMARK                         _______ _______ _______ _____ _____    ______ ____
ROOT
ATOM      1  C   LIG A   1      -0.426   0.596  -1.603  0.00  0.00    +0.016 C 
ATOM      2  C   LIG A   1       1.056   0.668  -1.115  0.00  0.00    -0.005 C 
ATOM      3  C   LIG A   1       1.334   0.183   0.354  0.00  0.00    -0.020 C 
ATOM      4  C   LIG A   1       2.838   0.414   0.776  0.00  0.00    +0.012 C 
ATOM      5  C   LIG A   1       0.498   1.171   1.217  0.00  0.00    +0.004 C 
ATOM      6  C   LIG A   1       0.687   2.516   0.423  0.00  0.00    +0.005 C 
ATOM      7  C   LIG A   1       1.345   2.173  -0.947  0.00  0.00    +0.012 C 
ATOM      8  C   LIG A   1       1.076  -1.320   0.503  0.00  0.00    +0.008 C 
ATOM      9  C   LIG A   1       1.941  -2.128  -0.473  0.00  0.00    +0.009 C 
ATOM     10  C   LIG A   1       1.646  -1.709  -1.929  0.00  0.00    +0.021 C 
ATOM     11  C   LIG A   1       1.795  -0.200  -2.140  0.00  0.00    -0.063 C 
ATOM     12  C   LIG A   1       2.314   0.300  -3.274  0.00  0.00    -0.026 C 
ATOM     13  C   LIG A   1       2.697  -0.538  -4.458  0.00  0.00    +0.032 C 
ATOM     14  C   LIG A   1       2.207  -2.012  -4.435  0.00  0.00    +0.012 C 
ATOM     15  C   LIG A   1       2.347  -2.624  -2.994  0.00  0.00    -0.021 C 
ATOM     16  C   LIG A   1       3.863  -2.776  -2.691  0.00  0.00    +0.012 C 
ATOM     17  C   LIG A   1       1.703  -4.044  -2.917  0.00  0.00    +0.015 C 
ATOM     18  C   LIG A   1       1.475  -4.679  -4.276  0.00  0.00    +0.075 C 
ATOM     19  C   LIG A   1       0.522  -3.816  -5.073  0.00  0.00    +0.139 C 
ATOM     20  O   LIG A   1      -0.434  -4.313  -5.642  0.00  0.00    -0.297 OA
ATOM     21  C   LIG A   1       0.829  -2.306  -5.146  0.00  0.00    +0.027 C 
ATOM     22  C   LIG A   1       0.917  -1.960  -6.649  0.00  0.00    +0.019 C 
ATOM     23  C   LIG A   1      -0.386  -1.561  -4.577  0.00  0.00    +0.019 C 
ENDROOT
BRANCH   5  24
ATOM     24  C   LIG A   1      -1.001   0.869   1.524  0.00  0.00    +0.051 C 
ATOM     25  C   LIG A   1      -1.381  -0.400   2.290  0.00  0.00    +0.254 C 
ATOM     26  O   LIG A   1      -2.687  -0.146   2.820  0.00  0.00    -0.345 OA
ATOM     27  C   LIG A   1      -2.840   1.273   3.039  0.00  0.00    +0.153 C 
ATOM     28  C   LIG A   1      -1.602   1.929   2.438  0.00  0.00    +0.043 C 
BRANCH  25  29
ATOM     29  O   LIG A   1      -0.479  -0.675   3.353  0.00  0.00    -0.354 OA
ATOM     30  C   LIG A   1      -0.816  -1.893   4.010  0.00  0.00    +0.197 C 
ENDBRANCH  25  29
BRANCH  27  31
ATOM     31  C   LIG A   1      -3.055   1.563   4.550  0.00  0.00    +0.174 C 
BRANCH  31  32
ATOM     32  C   LIG A   1      -3.244   3.083   4.913  0.00  0.00    +0.092 C 
ATOM     33  C   LIG A   1      -4.531   3.624   4.268  0.00  0.00    +0.044 C 
ATOM     34  C   LIG A   1      -3.341   3.229   6.444  0.00  0.00    +0.044 C 
BRANCH  32  35
ATOM     35  O   LIG A   1      -2.083   3.786   4.443  0.00  0.00    -0.374 OA
ATOM     36  C   LIG A   1      -2.017   5.188   4.635  0.00  0.00    +0.194 C 
ENDBRANCH  32  35
ENDBRANCH  31  32
BRANCH  31  37
ATOM     37  O   LIG A   1      -4.201   0.810   4.996  0.00  0.00    -0.386 OA
ATOM     38  H   LIG A   1      -4.133   0.720   5.961  0.00  0.00    +0.210 HD
ENDBRANCH  31  37
ENDBRANCH  27  31
ENDBRANCH   5  24
TORSDOF 6
