REMARK  Name = NuBBE_1042
REMARK  14 active torsions:
REMARK  status: ('A' for Active; 'I' for Inactive)
REMARK    1  A    between atoms: C_5  and  C_6
REMARK    2  A    between atoms: C_15  and  C_16
REMARK    3  A    between atoms: C_17  and  C_34
REMARK    4  A    between atoms: C_20  and  C_21
REMARK    5  A    between atoms: C_21  and  C_23
REMARK    6  A    between atoms: C_21  and  C_24
REMARK    7  A    between atoms: C_24  and  C_25
REMARK    8  A    between atoms: C_25  and  C_26
REMARK    9  A    between atoms: C_27  and  C_28
REMARK   10  A    between atoms: C_27  and  O_29
REMARK   11  A    between atoms: O_29  and  C_30
REMARK   12  A    between atoms: C_30  and  C_31
REMARK   13  A    between atoms: C_36  and  C_37
REMARK   14  A    between atoms: C_36  and  C_38
REMARK                            x       y       z     vdW  Elec       q    Type
REMARK                         _______ _______ _______ _____ _____    ______ ____
ROOT
ATOM      1  O   LIG A   1      -1.605  -6.523   4.564  0.00  0.00    -0.297 OA
ATOM      2  C   LIG A   1      -1.197  -5.499   4.013  0.00  0.00    +0.139 C 
ATOM      3  C   LIG A   1      -2.119  -4.322   3.808  0.00  0.00    +0.075 C 
ATOM      4  C   LIG A   1      -2.060  -3.919   2.349  0.00  0.00    +0.015 C 
ATOM      5  C   LIG A   1      -0.644  -3.475   1.882  0.00  0.00    -0.021 C 
ATOM      6  C   LIG A   1      -0.452  -4.085   0.463  0.00  0.00    +0.012 C 
ATOM      7  C   LIG A   1       0.465  -3.948   2.894  0.00  0.00    +0.012 C 
ATOM      8  C   LIG A   1       1.872  -3.681   2.316  0.00  0.00    +0.032 C 
ATOM      9  C   LIG A   1       1.994  -2.314   1.690  0.00  0.00    -0.026 C 
ATOM     10  C   LIG A   1       0.960  -1.475   1.468  0.00  0.00    -0.063 C 
ATOM     11  C   LIG A   1      -0.487  -1.884   1.842  0.00  0.00    +0.021 C 
ATOM     12  C   LIG A   1      -1.630  -1.169   1.064  0.00  0.00    +0.009 C 
ATOM     13  C   LIG A   1      -1.302   0.219   0.503  0.00  0.00    +0.008 C 
ATOM     14  C   LIG A   1       0.057   0.210  -0.213  0.00  0.00    -0.020 C 
ATOM     15  C   LIG A   1       0.060  -0.883  -1.326  0.00  0.00    +0.012 C 
ATOM     16  C   LIG A   1       1.147  -0.070   0.890  0.00  0.00    -0.005 C 
ATOM     17  C   LIG A   1       2.425   0.251   0.096  0.00  0.00    +0.012 C 
ATOM     18  C   LIG A   1       2.064   1.495  -0.735  0.00  0.00    +0.005 C 
ATOM     19  C   LIG A   1       0.508   1.579  -0.832  0.00  0.00    -0.001 C 
ATOM     20  C   LIG A   1       1.137   0.897   2.112  0.00  0.00    +0.016 C 
ATOM     21  C   LIG A   1       0.263  -5.348   3.557  0.00  0.00    +0.027 C 
ATOM     22  C   LIG A   1       1.119  -5.433   4.840  0.00  0.00    +0.019 C 
ATOM     23  C   LIG A   1       0.619  -6.543   2.663  0.00  0.00    +0.019 C 
ENDROOT
BRANCH  19  24
ATOM     24  C   LIG A   1       0.048   1.942  -2.286  0.00  0.00    -0.010 C 
ATOM     25  C   LIG A   1      -1.473   1.990  -2.486  0.00  0.00    +0.008 C 
BRANCH  24  26
ATOM     26  C   LIG A   1       0.692   3.250  -2.841  0.00  0.00    +0.008 C 
BRANCH  26  27
ATOM     27  C   LIG A   1       0.224   4.556  -2.188  0.00  0.00    +0.031 C 
BRANCH  27  28
ATOM     28  C   LIG A   1       0.895   5.781  -2.754  0.00  0.00    +0.014 C 
ATOM     29  C   LIG A   1       0.422   6.550  -3.752  0.00  0.00    +0.102 C 
ATOM     30  C   LIG A   1       1.100   7.815  -4.202  0.00  0.00    +0.086 C 
BRANCH  29  31
ATOM     31  O   LIG A   1      -0.708   6.140  -4.495  0.00  0.00    -0.431 OA
BRANCH  31  32
ATOM     32  C   LIG A   1      -1.756   7.016  -4.546  0.00  0.00    +0.309 C 
ATOM     33  C   LIG A   1      -2.836   6.495  -5.441  0.00  0.00    +0.136 C 
ATOM     34  O   LIG A   1      -1.848   8.090  -3.950  0.00  0.00    -0.251 OA
ENDBRANCH  31  32
ENDBRANCH  29  31
ENDBRANCH  27  28
ENDBRANCH  26  27
ENDBRANCH  24  26
ENDBRANCH  19  24
TORSDOF 6
