REMARK  Name = NuBBE_1734
REMARK  3 active torsions:
REMARK  status: ('A' for Active; 'I' for Inactive)
REMARK    1  A    between atoms: C_1  and  C_2
REMARK    2  A    between atoms: C_2  and  C_3
REMARK    3  A    between atoms: C_6  and  C_7
REMARK                            x       y       z     vdW  Elec       q    Type
REMARK                         _______ _______ _______ _____ _____    ______ ____
ROOT
ATOM      1  C   LIG A   1      -2.144  -1.467   0.816  0.00  0.00    +0.011 C 
ATOM      2  C   LIG A   1      -0.641  -1.366   0.848  0.00  0.00    -0.028 C 
ATOM      3  C   LIG A   1       0.023  -2.403   1.712  0.00  0.00    +0.011 C 
ATOM      4  C   LIG A   1      -0.057   0.012   0.781  0.00  0.00    +0.003 C 
ATOM      5  C   LIG A   1      -0.422   1.346   0.201  0.00  0.00    +0.034 C 
ATOM      6  C   LIG A   1       0.605   1.737  -0.877  0.00  0.00    -0.076 C 
ATOM      7  C   LIG A   1       0.557   3.152  -1.368  0.00  0.00    +0.038 C 
ATOM      8  C   LIG A   1       1.500   0.834  -1.349  0.00  0.00    -0.027 C 
ATOM      9  C   LIG A   1       1.452  -0.645  -0.942  0.00  0.00    +0.031 C 
ATOM     10  C   LIG A   1       0.081  -0.944  -0.414  0.00  0.00    +0.003 C 
ENDROOT
TORSDOF 0
