@<TRIPOS>MOLECULE
NuBBE_1681
 57 57 0 0 0
SMALL
GASTEIGER

@<TRIPOS>ATOM
      1 C          -5.5826   -1.6539    0.6095 C.3     1  LIG1       -0.0653
      2 C          -4.1606   -1.4839    0.1901 C.3     1  LIG1       -0.0559
      3 C          -3.9294   -1.5689   -1.3032 C.3     1  LIG1       -0.0533
      4 C          -2.5063   -1.3239   -1.6436 C.3     1  LIG1       -0.0528
      5 C          -2.2282    0.1495   -1.3350 C.3     1  LIG1       -0.0496
      6 C          -2.2274    0.8261    0.3248 C.3     1  LIG1       -0.0348
      7 C          -1.2445    2.3179    0.9946 C.2     1  LIG1       -0.0879
      8 C           0.2010    2.6386    1.2205 C.2     1  LIG1       -0.0879
      9 C           1.6735    1.7147    1.0984 C.3     1  LIG1       -0.0348
     10 C           3.1446    2.0372    1.2354 C.3     1  LIG1       -0.0496
     11 C           4.1856    0.8647    1.0353 C.3     1  LIG1       -0.0528
     12 C           4.0980   -0.4116    1.8952 C.3     1  LIG1       -0.0530
     13 C           2.9474   -1.3959    1.6848 C.3     1  LIG1       -0.0528
     14 C           2.8256   -2.0731    0.2807 C.3     1  LIG1       -0.0491
     15 C           2.7122   -1.2304   -1.0480 C.3     1  LIG1       -0.0275
     16 C           1.4581   -0.4889   -1.2563 C.ar    1  LIG1       -0.0405
     17 C           0.5795   -0.7129   -0.2276 C.ar    1  LIG1       -0.0168
     18 C          -0.0356    0.3247    0.0197 C.ar    1  LIG1        0.1206
     19 O          -0.2968    0.3337    1.5273 O.3     1  LIG1       -0.5066
     20 C          -0.2318    1.5863   -1.0524 C.ar    1  LIG1        0.0213
     21 C           0.3636    1.5535   -2.2621 C.ar    1  LIG1        0.1206
     22 O          -0.0074    2.3526   -3.2604 O.3     1  LIG1       -0.5066
     23 C           1.2742    0.5257   -2.3201 C.ar    1  LIG1       -0.0168
     24 H          -5.7438   -2.6668    0.9625 H       1  LIG1        0.0230
     25 H          -6.2447   -1.3957   -0.2187 H       1  LIG1        0.0230
     26 H          -5.7899   -0.9527    1.4296 H       1  LIG1        0.0230
     27 H          -3.4421   -2.0730    0.7747 H       1  LIG1        0.0263
     28 H          -4.0467   -0.4610    0.4739 H       1  LIG1        0.0263
     29 H          -4.4857   -0.7697   -1.8082 H       1  LIG1        0.0265
     30 H          -4.2239   -2.5316   -1.7066 H       1  LIG1        0.0265
     31 H          -2.3345   -1.4638   -2.7322 H       1  LIG1        0.0265
     32 H          -1.7960   -2.0392   -1.1874 H       1  LIG1        0.0265
     33 H          -2.6970    0.8519   -2.0117 H       1  LIG1        0.0268
     34 H          -1.2450   -0.0087   -1.7888 H       1  LIG1        0.0268
     35 H          -1.9602   -0.1868    0.7109 H       1  LIG1        0.0307
     36 H          -3.1173    0.8805    0.9251 H       1  LIG1        0.0307
     37 H          -1.9206    3.1616    0.9230 H       1  LIG1        0.0569
     38 H           0.5483    3.6640    1.2702 H       1  LIG1        0.0569
     39 H           1.7916    1.4741    0.0471 H       1  LIG1        0.0307
     40 H           1.5875    0.8359    1.7242 H       1  LIG1        0.0307
     41 H           3.2651    2.4492    2.2243 H       1  LIG1        0.0268
     42 H           3.3585    2.7530    0.4360 H       1  LIG1        0.0268
     43 H           5.1628    1.3148    1.2493 H       1  LIG1        0.0265
     44 H           4.3212    0.5989   -0.0116 H       1  LIG1        0.0265
     45 H           4.0894   -0.0885    2.9427 H       1  LIG1        0.0265
     46 H           5.0207   -0.9967    1.7698 H       1  LIG1        0.0265
     47 H           2.0268   -0.9471    2.0564 H       1  LIG1        0.0265
     48 H           3.0498   -2.2135    2.4194 H       1  LIG1        0.0265
     49 H           1.9531   -2.7456    0.3345 H       1  LIG1        0.0268
     50 H           3.6787   -2.7438    0.1639 H       1  LIG1        0.0268
     51 H           2.7617   -1.8961   -1.9151 H       1  LIG1        0.0313
     52 H           3.5415   -0.5422   -1.1389 H       1  LIG1        0.0313
     53 H           0.6497   -1.3732    0.6348 H       1  LIG1        0.0657
     54 H          -0.8579   -0.3381    1.9636 H       1  LIG1        0.2921
     55 H          -1.0694    2.3071   -1.0642 H       1  LIG1        0.0691
     56 H          -0.9628    2.5608   -3.2266 H       1  LIG1        0.2921
     57 H           2.1182    0.7004   -3.0337 H       1  LIG1        0.0657
@<TRIPOS>BOND
     1     1     2    1
     2     2     3    1
     3     3     4    1
     4     4     5    1
     5     5     6    1
     6     6     7    1
     7     7     8    2
     8     8     9    1
     9     9    10    1
    10    10    11    1
    11    11    12    1
    12    12    13    1
    13    13    14    1
    14    14    15    1
    15    15    16    1
    16    16    17   ar
    17    17    18   ar
    18    18    19    1
    19    18    20   ar
    20    20    21   ar
    21    21    22    1
    22    21    23   ar
    23    16    23   ar
    24     1    24    1
    25     1    25    1
    26     1    26    1
    27     2    27    1
    28     2    28    1
    29     3    29    1
    30     3    30    1
    31     4    31    1
    32     4    32    1
    33     5    33    1
    34     5    34    1
    35     6    35    1
    36     6    36    1
    37     7    37    1
    38     8    38    1
    39     9    39    1
    40     9    40    1
    41    10    41    1
    42    10    42    1
    43    11    43    1
    44    11    44    1
    45    12    45    1
    46    12    46    1
    47    13    47    1
    48    13    48    1
    49    14    49    1
    50    14    50    1
    51    15    51    1
    52    15    52    1
    53    17    53    1
    54    19    54    1
    55    20    55    1
    56    22    56    1
    57    23    57    1
