@<TRIPOS>MOLECULE
NuBBE_2080
 40 42 0 0 0
SMALL
GASTEIGER

@<TRIPOS>ATOM
      1 O           0.2049    6.7646    1.0579 O.3     1  LIG1       -0.5066
      2 C           0.5166    5.5227    0.5860 C.ar    1  LIG1        0.1203
      3 C           1.8157    5.0290    0.6410 C.ar    1  LIG1        0.0216
      4 C           2.0773    3.7469    0.1479 C.ar    1  LIG1        0.1235
      5 O           3.3502    3.2490    0.2075 O.3     1  LIG1       -0.5064
      6 C           1.0620    2.9543   -0.4064 C.ar    1  LIG1       -0.0057
      7 C           1.3366    1.5745   -0.9686 C.3     1  LIG1       -0.0239
      8 C           0.5208    0.4622   -0.2900 C.3     1  LIG1       -0.0448
      9 C           0.8624   -0.9099   -0.8798 C.3     1  LIG1       -0.0238
     10 C           0.0883   -2.0511   -0.2445 C.ar    1  LIG1       -0.0020
     11 C           0.6685   -2.7298    0.8467 C.ar    1  LIG1       -0.0095
     12 C          -0.0076   -3.8091    1.3799 C.ar    1  LIG1        0.1667
     13 O           0.4324   -4.5994    2.3985 O.3     1  LIG1       -0.4526
     14 C          -0.6289   -5.5767    2.4534 C.3     1  LIG1        0.2332
     15 O          -1.7093   -5.3041    1.5355 O.3     1  LIG1       -0.4525
     16 C          -1.2212   -4.2088    0.8916 C.ar    1  LIG1        0.1697
     17 C          -1.8418   -3.5549   -0.1505 C.ar    1  LIG1        0.0258
     18 C          -1.1784   -2.4650   -0.7352 C.ar    1  LIG1        0.1270
     19 O          -1.6775   -1.7589   -1.8034 O.3     1  LIG1       -0.4947
     20 C          -2.9514   -2.1569   -2.2973 C.3     1  LIG1        0.0788
     21 C          -0.2370    3.4880   -0.4605 C.ar    1  LIG1       -0.0517
     22 C          -0.5097    4.7621    0.0439 C.ar    1  LIG1       -0.0197
     23 H           1.0153    7.1937    1.3754 H       1  LIG1        0.2921
     24 H           2.6120    5.6303    1.0627 H       1  LIG1        0.0691
     25 H           3.9231    3.8938    0.6516 H       1  LIG1        0.2921
     26 H           2.4017    1.3302   -0.8780 H       1  LIG1        0.0314
     27 H           1.1260    1.5957   -2.0458 H       1  LIG1        0.0314
     28 H          -0.5525    0.6525   -0.4064 H       1  LIG1        0.0272
     29 H           0.7244    0.4671    0.7885 H       1  LIG1        0.0272
     30 H           1.9359   -1.1028   -0.7612 H       1  LIG1        0.0314
     31 H           0.6898   -0.9104   -1.9641 H       1  LIG1        0.0314
     32 H           1.6300   -2.4345    1.2501 H       1  LIG1        0.0659
     33 H          -1.0332   -5.6029    3.4716 H       1  LIG1        0.1166
     34 H          -0.2119   -6.5637    2.2158 H       1  LIG1        0.1166
     35 H          -2.8005   -3.9189   -0.4853 H       1  LIG1        0.0692
     36 H          -2.9475   -3.2042   -2.6213 H       1  LIG1        0.0660
     37 H          -3.1828   -1.5457   -3.1739 H       1  LIG1        0.0660
     38 H          -3.7311   -1.9796   -1.5481 H       1  LIG1        0.0660
     39 H          -1.0506    2.9128   -0.8961 H       1  LIG1        0.0623
     40 H          -1.5211    5.1578    0.0107 H       1  LIG1        0.0654
@<TRIPOS>BOND
     1     1     2    1
     2     2     3   ar
     3     3     4   ar
     4     4     5    1
     5     4     6   ar
     6     6     7    1
     7     7     8    1
     8     8     9    1
     9     9    10    1
    10    10    11   ar
    11    11    12   ar
    12    12    13    1
    13    13    14    1
    14    14    15    1
    15    12    16   ar
    16    15    16    1
    17    16    17   ar
    18    17    18   ar
    19    10    18   ar
    20    18    19    1
    21    19    20    1
    22     6    21   ar
    23    21    22   ar
    24     2    22   ar
    25     1    23    1
    26     3    24    1
    27     5    25    1
    28     7    26    1
    29     7    27    1
    30     8    28    1
    31     8    29    1
    32     9    30    1
    33     9    31    1
    34    11    32    1
    35    14    33    1
    36    14    34    1
    37    17    35    1
    38    20    36    1
    39    20    37    1
    40    20    38    1
    41    21    39    1
    42    22    40    1
