@<TRIPOS>MOLECULE
NuBBE_1429
 39 39 0 0 0
SMALL
GASTEIGER

@<TRIPOS>ATOM
      1 C           1.2909   -2.3438    0.1942 C.3     1  LIG1       -0.0404
      2 C           0.8200   -3.2147   -0.9755 C.3     1  LIG1       -0.0621
      3 C           1.0074   -3.0647    1.5174 C.3     1  LIG1       -0.0621
      4 C           0.7171   -0.8918    0.1135 C.3     1  LIG1       -0.0200
      5 H           1.0205   -0.4979   -0.8644 H       1  LIG1        0.0346
      6 C           1.3804    0.0126    1.1850 C.3     1  LIG1       -0.0428
      7 C           1.3066    1.5235    0.8982 C.3     1  LIG1       -0.0315
      8 C          -0.0259    2.1881    1.1716 C.2     1  LIG1       -0.0765
      9 C          -0.8520    2.6840    0.2280 C.2     1  LIG1       -0.0847
     10 C          -0.6760    2.6677   -1.2685 C.3     1  LIG1       -0.0305
     11 C          -1.6990    1.7730   -1.9882 C.3     1  LIG1       -0.0248
     12 C          -1.3850    0.2941   -1.8995 C.2     1  LIG1       -0.0544
     13 C          -0.9279   -0.4030   -2.9515 C.2     1  LIG1       -0.0955
     14 C          -1.6817   -0.3552   -0.6381 C.2     1  LIG1       -0.0628
     15 C          -0.7939   -0.8644    0.2325 C.2     1  LIG1       -0.0804
     16 C          -0.3948    2.3069    2.6298 C.3     1  LIG1       -0.0438
     17 H           2.3832   -2.2657    0.1019 H       1  LIG1        0.0301
     18 H          -0.2624   -3.3764   -0.9550 H       1  LIG1        0.0233
     19 H           1.3032   -4.1975   -0.9431 H       1  LIG1        0.0233
     20 H           1.0838   -2.7530   -1.9321 H       1  LIG1        0.0233
     21 H          -0.0617   -3.2476    1.6627 H       1  LIG1        0.0233
     22 H           1.3794   -2.4952    2.3739 H       1  LIG1        0.0233
     23 H           1.5103   -4.0383    1.5349 H       1  LIG1        0.0233
     24 H           2.4483   -0.2404    1.2329 H       1  LIG1        0.0274
     25 H           0.9746   -0.2039    2.1803 H       1  LIG1        0.0274
     26 H           1.6537    1.7065   -0.1230 H       1  LIG1        0.0310
     27 H           2.0516    2.0221    1.5337 H       1  LIG1        0.0310
     28 H          -1.7830    3.1488    0.5526 H       1  LIG1        0.0572
     29 H           0.3374    2.3899   -1.5712 H       1  LIG1        0.0311
     30 H          -0.8169    3.6991   -1.6170 H       1  LIG1        0.0311
     31 H          -1.7182    2.0740   -3.0445 H       1  LIG1        0.0316
     32 H          -2.7124    1.9636   -1.6107 H       1  LIG1        0.0316
     33 H          -0.7293    0.0745   -3.9053 H       1  LIG1        0.0537
     34 H          -0.7486   -1.4712   -2.8903 H       1  LIG1        0.0537
     35 H          -2.7348   -0.3543   -0.3595 H       1  LIG1        0.0617
     36 H          -1.1997   -1.2644    1.1604 H       1  LIG1        0.0575
     37 H          -0.5436    1.3177    3.0729 H       1  LIG1        0.0274
     38 H          -1.3193    2.8751    2.7789 H       1  LIG1        0.0274
     39 H           0.3979    2.8223    3.1819 H       1  LIG1        0.0274
@<TRIPOS>BOND
     1     1     2    1
     2     1     3    1
     3     4     6    1
     4     6     7    1
     5     7     8    1
     6     8     9    2
     7     9    10    1
     8    10    11    1
     9    11    12    1
    10    12    13    2
    11    12    14    1
    12    14    15    2
    13     4    15    1
    14     8    16    1
    15     4     5    1
    16     4     1    1
    17     1    17    1
    18     2    18    1
    19     2    19    1
    20     2    20    1
    21     3    21    1
    22     3    22    1
    23     3    23    1
    24     6    24    1
    25     6    25    1
    26     7    26    1
    27     7    27    1
    28     9    28    1
    29    10    29    1
    30    10    30    1
    31    11    31    1
    32    11    32    1
    33    13    33    1
    34    13    34    1
    35    14    35    1
    36    15    36    1
    37    16    37    1
    38    16    38    1
    39    16    39    1
