REMARK  Name = NuBBE_1555
REMARK  14 active torsions:
REMARK  status: ('A' for Active; 'I' for Inactive)
REMARK    1  A    between atoms: C_1  and  C_2
REMARK    2  A    between atoms: C_3  and  C_4
REMARK    3  A    between atoms: C_9  and  C_10
REMARK    4  A    between atoms: C_13  and  O_15
REMARK    5  A    between atoms: C_16  and  C_17
REMARK    6  A    between atoms: C_16  and  C_18
REMARK    7  A    between atoms: C_24  and  C_25
REMARK    8  A    between atoms: C_25  and  O_26
REMARK    9  A    between atoms: C_25  and  C_27
REMARK   10  A    between atoms: C_25  and  C_28
REMARK   11  A    between atoms: C_28  and  C_29
REMARK   12  A    between atoms: C_29  and  C_30
REMARK   13  A    between atoms: C_31  and  C_32
REMARK   14  A    between atoms: C_31  and  C_33
REMARK                            x       y       z     vdW  Elec       q    Type
REMARK                         _______ _______ _______ _____ _____    ______ ____
ROOT
ATOM      1  C   LIG A   1      -3.366   1.253   0.230  0.00  0.00    +0.012 C 
ATOM      2  C   LIG A   1      -1.813   1.232   0.351  0.00  0.00    -0.023 C 
ATOM      3  C   LIG A   1      -1.221  -0.212   0.884  0.00  0.00    -0.023 C 
ATOM      4  C   LIG A   1      -0.098  -0.003   1.938  0.00  0.00    +0.012 C 
ATOM      5  C   LIG A   1      -2.357  -1.002   1.603  0.00  0.00    +0.008 C 
ATOM      6  C   LIG A   1      -2.055  -2.456   1.954  0.00  0.00    +0.005 C 
ATOM      7  C   LIG A   1      -1.687  -3.257   0.693  0.00  0.00    +0.003 C 
ATOM      8  C   LIG A   1      -0.407  -2.665   0.009  0.00  0.00    -0.025 C 
ATOM      9  C   LIG A   1       0.881  -2.816   0.873  0.00  0.00    +0.012 C 
ATOM     10  C   LIG A   1      -0.149  -3.481  -1.297  0.00  0.00    +0.010 C 
ATOM     11  C   LIG A   1      -0.079  -4.994  -1.097  0.00  0.00    +0.032 C 
ATOM     12  C   LIG A   1      -1.355  -5.521  -0.449  0.00  0.00    +0.120 C 
ATOM     13  C   LIG A   1      -1.708  -4.822   0.897  0.00  0.00    -0.006 C 
ATOM     14  C   LIG A   1      -0.789  -5.314   2.036  0.00  0.00    +0.014 C 
ATOM     15  C   LIG A   1      -3.145  -5.277   1.280  0.00  0.00    +0.014 C 
ATOM     16  C   LIG A   1      -0.621  -1.096  -0.302  0.00  0.00    +0.002 C 
ATOM     17  C   LIG A   1      -1.417  -0.815  -1.586  0.00  0.00    +0.005 C 
ATOM     18  C   LIG A   1      -1.155   0.601  -2.079  0.00  0.00    +0.005 C 
ATOM     19  C   LIG A   1      -1.244   1.695  -1.018  0.00  0.00    +0.001 C 
ATOM     20  C   LIG A   1       0.092   2.439  -0.721  0.00  0.00    +0.024 C 
ATOM     21  C   LIG A   1      -0.060   2.922   0.741  0.00  0.00    +0.007 C 
ATOM     22  C   LIG A   1      -1.438   2.466   1.209  0.00  0.00    +0.008 C 
ENDROOT
BRANCH  12  23
ATOM     23  O   LIG A   1      -1.228  -6.931  -0.267  0.00  0.00    -0.391 OA
ATOM     24  H   LIG A   1      -1.058  -7.326  -1.139  0.00  0.00    +0.210 HD
ENDBRANCH  12  23
BRANCH  20  25
ATOM     25  C   LIG A   1       0.420   3.607  -1.716  0.00  0.00    +0.067 C 
ATOM     26  C   LIG A   1       0.452   3.152  -3.181  0.00  0.00    +0.041 C 
BRANCH  25  27
ATOM     27  O   LIG A   1      -0.640   4.579  -1.662  0.00  0.00    -0.389 OA
ATOM     28  H   LIG A   1      -0.609   5.028  -0.801  0.00  0.00    +0.210 HD
ENDBRANCH  25  27
BRANCH  25  29
ATOM     29  C   LIG A   1       1.736   4.351  -1.380  0.00  0.00    +0.039 C 
BRANCH  29  30
ATOM     30  C   LIG A   1       3.002   3.494  -1.394  0.00  0.00    +0.030 C 
BRANCH  30  31
ATOM     31  C   LIG A   1       4.209   4.328  -1.070  0.00  0.00    -0.028 C 
ATOM     32  C   LIG A   1       4.737   4.540   0.152  0.00  0.00    -0.080 C 
ATOM     33  C   LIG A   1       4.189   3.979   1.434  0.00  0.00    +0.038 C 
ATOM     34  C   LIG A   1       5.952   5.415   0.328  0.00  0.00    +0.038 C 
ENDBRANCH  30  31
ENDBRANCH  29  30
ENDBRANCH  25  29
ENDBRANCH  20  25
TORSDOF 6
