@<TRIPOS>MOLECULE
NuBBE_1832
 43 46 0 0 0
SMALL
GASTEIGER

@<TRIPOS>ATOM
      1 O          -4.6326    0.8444   -0.2041 O.3     1  LIG1       -0.5030
      2 C          -3.2748    1.0606   -0.1432 C.ar    1  LIG1        0.1656
      3 C          -2.8137    2.3882   -0.0914 C.ar    1  LIG1        0.1624
      4 O          -3.7931    3.3530   -0.0668 O.3     1  LIG1       -0.4914
      5 C          -3.3414    4.7040   -0.0097 C.3     1  LIG1        0.0790
      6 C          -1.4415    2.6445   -0.0864 C.ar    1  LIG1       -0.0053
      7 C          -0.5470    1.5598   -0.1388 C.ar    1  LIG1        0.0276
      8 C          -1.0548    0.2689   -0.1718 C.ar    1  LIG1        0.1431
      9 O          -0.0238   -0.6214   -0.2166 O.2     1  LIG1       -0.4541
     10 C           1.1476    0.0858   -0.2313 C.ar    1  LIG1        0.1393
     11 C           2.3612   -0.7249   -0.3118 C.ar    1  LIG1        0.0212
     12 C           2.3948   -2.0125    0.2500 C.ar    1  LIG1       -0.0055
     13 C           3.5616   -2.7428    0.1506 C.ar    1  LIG1        0.1669
     14 C           4.6783   -2.2449   -0.4762 C.ar    1  LIG1        0.1663
     15 C           4.6913   -0.9902   -1.0396 C.ar    1  LIG1       -0.0155
     16 C           3.5188   -0.2302   -0.9580 C.ar    1  LIG1       -0.0474
     17 O           5.7161   -3.1223   -0.4678 O.3     1  LIG1       -0.4526
     18 C           5.1247   -4.2329    0.2383 C.3     1  LIG1        0.2332
     19 O           3.7582   -3.9981    0.6363 O.3     1  LIG1       -0.4526
     20 C           0.8775    1.4458   -0.1781 C.ar    1  LIG1        0.0032
     21 C           1.8288    2.5866   -0.1640 C.3     1  LIG1       -0.0355
     22 C          -2.4186   -0.0564   -0.1757 C.ar    1  LIG1        0.0442
     23 C          -2.9350   -1.4697   -0.2347 C.3     1  LIG1       -0.0026
     24 C          -3.1188   -2.0929    1.1232 C.2     1  LIG1       -0.0866
     25 C          -4.2834   -2.5603    1.5802 C.2     1  LIG1       -0.1023
     26 H          -5.0304    1.7312   -0.2985 H       1  LIG1        0.2923
     27 H          -4.2202    5.3546    0.0101 H       1  LIG1        0.0660
     28 H          -2.7581    4.9602   -0.9009 H       1  LIG1        0.0660
     29 H          -2.7672    4.8917    0.9046 H       1  LIG1        0.0660
     30 H          -1.0365    3.6475   -0.0580 H       1  LIG1        0.0662
     31 H           1.5305   -2.4320    0.7551 H       1  LIG1        0.0662
     32 H           5.5762   -0.6079   -1.5353 H       1  LIG1        0.0655
     33 H           3.5124    0.7524   -1.4225 H       1  LIG1        0.0626
     34 H           5.7215   -4.4332    1.1354 H       1  LIG1        0.1166
     35 H           5.1554   -5.1166   -0.4095 H       1  LIG1        0.1166
     36 H           2.8012    2.3051    0.2480 H       1  LIG1        0.0279
     37 H           1.4442    3.4057    0.4528 H       1  LIG1        0.0279
     38 H           1.9739    2.9682   -1.1802 H       1  LIG1        0.0279
     39 H          -2.2305   -2.0853   -0.8063 H       1  LIG1        0.0358
     40 H          -3.8713   -1.4964   -0.8056 H       1  LIG1        0.0358
     41 H          -2.2294   -2.1765    1.7469 H       1  LIG1        0.0570
     42 H          -5.1923   -2.4969    0.9865 H       1  LIG1        0.0532
     43 H          -4.3597   -3.0135    2.5647 H       1  LIG1        0.0532
@<TRIPOS>BOND
     1     1     2    1
     2     2     3   ar
     3     3     4    1
     4     4     5    1
     5     3     6   ar
     6     6     7   ar
     7     7     8   ar
     8     8     9   ar
     9     9    10   ar
    10    10    11    1
    11    11    12   ar
    12    12    13   ar
    13    13    14   ar
    14    14    15   ar
    15    15    16   ar
    16    11    16   ar
    17    14    17    1
    18    17    18    1
    19    18    19    1
    20    13    19    1
    21    10    20   ar
    22     7    20   ar
    23    20    21    1
    24     2    22   ar
    25     8    22   ar
    26    22    23    1
    27    23    24    1
    28    24    25    2
    29     1    26    1
    30     5    27    1
    31     5    28    1
    32     5    29    1
    33     6    30    1
    34    12    31    1
    35    15    32    1
    36    16    33    1
    37    18    34    1
    38    18    35    1
    39    21    36    1
    40    21    37    1
    41    21    38    1
    42    23    39    1
    43    23    40    1
    44    24    41    1
    45    25    42    1
    46    25    43    1
