REMARK  Name = NuBBE_441
REMARK  5 active torsions:
REMARK  status: ('A' for Active; 'I' for Inactive)
REMARK    1  A    between atoms: C_5  and  O_6
REMARK    2  A    between atoms: C_14  and  O_16
REMARK    3  A    between atoms: C_17  and  C_18
REMARK    4  A    between atoms: C_18  and  O_19
REMARK    5  A    between atoms: O_19  and  C_20
REMARK                            x       y       z     vdW  Elec       q    Type
REMARK                         _______ _______ _______ _____ _____    ______ ____
ROOT
ATOM      1  C   LIG A   1      -0.849  -0.419   0.034  0.00  0.00    +0.041 C 
ATOM      2  C   LIG A   1      -1.161  -1.528  -0.956  0.00  0.00    -0.023 C 
ATOM      3  C   LIG A   1      -0.453  -2.658  -0.719  0.00  0.00    +0.006 C 
ATOM      4  C   LIG A   1       0.663  -2.382   0.224  0.00  0.00    +0.115 C 
ATOM      5  C   LIG A   1       0.000  -1.240   0.946  0.00  0.00    +0.091 C 
ATOM      6  C   LIG A   1       1.192  -0.641   1.594  0.00  0.00    +0.260 C 
ATOM      7  O   LIG A   1       1.593  -1.790   2.381  0.00  0.00    -0.348 OA
ATOM      8  C   LIG A   1       1.265  -2.979   1.514  0.00  0.00    +0.202 C 
ATOM      9  O   LIG A   1       0.726   0.564   2.165  0.00  0.00    -0.322 OA
ATOM     10  C   LIG A   1       0.439   1.504   1.090  0.00  0.00    +0.264 C 
ATOM     11  C   LIG A   1      -0.094   0.878  -0.255  0.00  0.00    +0.161 C 
ENDROOT
BRANCH   4  12
ATOM     12  O   LIG A   1       1.737  -1.968  -0.635  0.00  0.00    -0.382 OA
ATOM     13  H   LIG A   1       2.115  -2.775  -1.027  0.00  0.00    +0.211 HD
ENDBRANCH   4  12
BRANCH  10  14
ATOM     14  O   LIG A   1      -0.440   2.481   1.625  0.00  0.00    -0.366 OA
ATOM     15  H   LIG A   1      -1.284   2.040   1.810  0.00  0.00    +0.212 HD
ENDBRANCH  10  14
BRANCH  11  16
ATOM     16  C   LIG A   1      -0.948   1.856  -1.019  0.00  0.00    +0.315 C 
ATOM     17  O   LIG A   1      -2.136   1.690  -1.284  0.00  0.00    -0.250 OA
BRANCH  16  18
ATOM     18  O   LIG A   1      -0.201   2.916  -1.431  0.00  0.00    -0.468 OA
ATOM     19  C   LIG A   1      -0.909   3.841  -2.257  0.00  0.00    +0.280 C 
ENDBRANCH  16  18
ENDBRANCH  11  16
TORSDOF 4
