@<TRIPOS>MOLECULE
NuBBE_1725
 74 78 0 0 0
SMALL
GASTEIGER

@<TRIPOS>ATOM
      1 C          -1.7385    0.0622    0.4072 C.3     1  LIG1       -0.0588
      2 C          -0.5324   -0.2430   -0.5339 C.3     1  LIG1       -0.0231
      3 C           0.7239   -0.7430    0.2598 C.3     1  LIG1       -0.0294
      4 H           1.4743   -0.9540   -0.5159 H       1  LIG1        0.0312
      5 C           0.5965   -2.1545    0.9756 C.3     1  LIG1       -0.0252
      6 C          -0.3650   -2.0744    2.1853 C.3     1  LIG1       -0.0590
      7 C           0.1573   -3.1925   -0.1274 C.3     1  LIG1       -0.0278
      8 H           0.9233   -3.1125   -0.9156 H       1  LIG1        0.0312
      9 C          -1.1442   -2.7576   -0.8327 C.3     1  LIG1       -0.0486
     10 C          -0.9976   -1.3773   -1.4931 C.3     1  LIG1       -0.0466
     11 C           0.2051   -4.7076    0.2989 C.3     1  LIG1       -0.0056
     12 C          -0.8922   -5.0991    1.3101 C.3     1  LIG1       -0.0572
     13 C          -0.0150   -5.6113   -0.9446 C.3     1  LIG1       -0.0572
     14 C           1.6054   -5.0390    0.8986 C.3     1  LIG1        0.0606
     15 H           1.5798   -6.0389    1.3489 H       1  LIG1        0.0599
     16 C           2.0765   -4.0478    1.9619 C.3     1  LIG1       -0.0258
     17 C           1.9991   -2.5874    1.5033 C.3     1  LIG1       -0.0447
     18 O           2.6055   -5.1102   -0.1228 O.3     1  LIG1       -0.3912
     19 C           1.3911    0.3657    1.1091 C.3     1  LIG1       -0.0489
     20 C           0.8221    1.7809    0.9897 C.3     1  LIG1       -0.0490
     21 C           0.3763    2.2298   -0.4063 C.3     1  LIG1       -0.0287
     22 H           1.2515    2.7156   -0.8621 H       1  LIG1        0.0310
     23 C          -0.0914    1.0658   -1.3514 C.3     1  LIG1       -0.0232
     24 C           1.0839    0.8092   -2.3447 C.3     1  LIG1       -0.0588
     25 C          -1.2420    1.6720   -2.1973 C.3     1  LIG1       -0.0465
     26 C          -1.2450    3.1614   -1.8919 C.3     1  LIG1       -0.0458
     27 C          -0.7815    3.2735   -0.4292 C.3     1  LIG1        0.0021
     28 H          -1.5965    2.9242    0.2182 H       1  LIG1        0.0342
     29 C          -0.4293    4.7341   -0.0129 C.3     1  LIG1        0.1143
     30 C           0.0317    4.8322    1.4506 C.3     1  LIG1       -0.0246
     31 O           0.6284    5.2417   -0.8445 O.3     1  LIG1       -0.4580
     32 C           0.4313    6.5669   -1.1065 C.2     1  LIG1        0.3077
     33 O           1.2269    7.2740   -1.7030 O.2     1  LIG1       -0.2508
     34 C          -0.8698    7.0264   -0.5243 C.3     1  LIG1        0.0486
     35 C          -1.5780    5.7179   -0.2503 C.3     1  LIG1       -0.0028
     36 H          -2.2811   -0.8379    0.6995 H       1  LIG1        0.0235
     37 H          -2.4967    0.6920   -0.0614 H       1  LIG1        0.0235
     38 H          -1.4537    0.5544    1.3356 H       1  LIG1        0.0235
     39 H          -0.3624   -1.0839    2.6490 H       1  LIG1        0.0235
     40 H          -0.0897   -2.7592    2.9907 H       1  LIG1        0.0235
     41 H          -1.3975   -2.3099    1.9236 H       1  LIG1        0.0235
     42 H          -1.9955   -2.7742   -0.1481 H       1  LIG1        0.0268
     43 H          -1.3963   -3.4608   -1.6334 H       1  LIG1        0.0268
     44 H          -1.9525   -1.1107   -1.9623 H       1  LIG1        0.0271
     45 H          -0.2850   -1.5017   -2.3139 H       1  LIG1        0.0271
     46 H          -0.9151   -6.1870    1.4510 H       1  LIG1        0.0236
     47 H          -1.8873   -4.8022    0.9646 H       1  LIG1        0.0236
     48 H          -0.7352   -4.6731    2.3007 H       1  LIG1        0.0236
     49 H          -1.0555   -5.5881   -1.2856 H       1  LIG1        0.0236
     50 H           0.2181   -6.6577   -0.7138 H       1  LIG1        0.0236
     51 H           0.6186   -5.3079   -1.7850 H       1  LIG1        0.0236
     52 H           3.1210   -4.2636    2.2207 H       1  LIG1        0.0290
     53 H           1.4995   -4.1878    2.8811 H       1  LIG1        0.0290
     54 H           2.7513   -2.4289    0.7197 H       1  LIG1        0.0271
     55 H           2.3050   -1.9533    2.3442 H       1  LIG1        0.0271
     56 H           2.6875   -4.2387   -0.5423 H       1  LIG1        0.2098
     57 H           2.4518    0.4073    0.8234 H       1  LIG1        0.0268
     58 H           1.3995    0.1070    2.1728 H       1  LIG1        0.0268
     59 H           1.6053    2.4597    1.3462 H       1  LIG1        0.0268
     60 H           0.0072    1.9018    1.7099 H       1  LIG1        0.0268
     61 H           2.0165    0.5498   -1.8361 H       1  LIG1        0.0235
     62 H           1.3000    1.7135   -2.9290 H       1  LIG1        0.0235
     63 H           0.8563    0.0268   -3.0724 H       1  LIG1        0.0235
     64 H          -2.2212    1.2535   -1.9557 H       1  LIG1        0.0271
     65 H          -1.1150    1.5025   -3.2731 H       1  LIG1        0.0271
     66 H          -2.2462    3.5706   -2.0531 H       1  LIG1        0.0269
     67 H          -0.5543    3.6796   -2.5675 H       1  LIG1        0.0269
     68 H           1.0523    4.4642    1.5749 H       1  LIG1        0.0268
     69 H          -0.6425    4.2900    2.1209 H       1  LIG1        0.0268
     70 H           0.0690    5.8716    1.7962 H       1  LIG1        0.0268
     71 H          -1.4242    7.6374   -1.2407 H       1  LIG1        0.0379
     72 H          -0.6790    7.5920    0.3915 H       1  LIG1        0.0379
     73 H          -2.1658    5.4691   -1.1381 H       1  LIG1        0.0309
     74 H          -2.2787    5.7804    0.5886 H       1  LIG1        0.0309
@<TRIPOS>BOND
     1     1     2    1
     2     2     3    1
     3     3     4    1
     4     3     5    1
     5     5     6    1
     6     5     7    1
     7     7     8    1
     8     7     9    1
     9     9    10    1
    10     2    10    1
    11     7    11    1
    12    11    12    1
    13    11    13    1
    14    11    14    1
    15    14    15    1
    16    14    16    1
    17    16    17    1
    18     5    17    1
    19    14    18    1
    20     3    19    1
    21    19    20    1
    22    20    21    1
    23    21    22    1
    24    21    23    1
    25     2    23    1
    26    23    24    1
    27    23    25    1
    28    25    26    1
    29    26    27    1
    30    27    28    1
    31    21    27    1
    32    27    29    1
    33    29    30    1
    34    29    31    1
    35    31    32    1
    36    32    33    2
    37    32    34    1
    38    34    35    1
    39    29    35    1
    40     1    36    1
    41     1    37    1
    42     1    38    1
    43     6    39    1
    44     6    40    1
    45     6    41    1
    46     9    42    1
    47     9    43    1
    48    10    44    1
    49    10    45    1
    50    12    46    1
    51    12    47    1
    52    12    48    1
    53    13    49    1
    54    13    50    1
    55    13    51    1
    56    16    52    1
    57    16    53    1
    58    17    54    1
    59    17    55    1
    60    18    56    1
    61    19    57    1
    62    19    58    1
    63    20    59    1
    64    20    60    1
    65    24    61    1
    66    24    62    1
    67    24    63    1
    68    25    64    1
    69    25    65    1
    70    26    66    1
    71    26    67    1
    72    30    68    1
    73    30    69    1
    74    30    70    1
    75    34    71    1
    76    34    72    1
    77    35    73    1
    78    35    74    1
