REMARK  Name = NuBBE_985
REMARK  13 active torsions:
REMARK  status: ('A' for Active; 'I' for Inactive)
REMARK    1  A    between atoms: C_1  and  C_2
REMARK    2  A    between atoms: C_2  and  C_35
REMARK    3  A    between atoms: C_11  and  C_29
REMARK    4  A    between atoms: C_12  and  C_28
REMARK    5  A    between atoms: C_15  and  C_17
REMARK    6  A    between atoms: C_17  and  C_19
REMARK    7  A    between atoms: C_17  and  C_20
REMARK    8  A    between atoms: C_20  and  O_21
REMARK    9  A    between atoms: C_20  and  C_22
REMARK   10  A    between atoms: C_23  and  C_24
REMARK   11  A    between atoms: C_24  and  O_25
REMARK   12  A    between atoms: C_24  and  C_26
REMARK   13  A    between atoms: C_24  and  C_27
REMARK                            x       y       z     vdW  Elec       q    Type
REMARK                         _______ _______ _______ _____ _____    ______ ____
ROOT
ATOM      1  C   LIG A   1       2.195   0.884  -4.754  0.00  0.00    +0.019 C 
ATOM      2  C   LIG A   1       1.355   0.072  -3.744  0.00  0.00    +0.027 C 
ATOM      3  C   LIG A   1       1.451  -1.413  -4.133  0.00  0.00    +0.139 C 
ATOM      4  C   LIG A   1       0.520  -2.355  -3.418  0.00  0.00    +0.075 C 
ATOM      5  C   LIG A   1      -0.888  -1.882  -3.673  0.00  0.00    +0.015 C 
ATOM      6  C   LIG A   1      -1.118  -0.460  -3.166  0.00  0.00    -0.019 C 
ATOM      7  C   LIG A   1      -2.607  -0.174  -3.070  0.00  0.00    +0.015 C 
ATOM      8  C   LIG A   1      -1.766  -0.121  -1.815  0.00  0.00    -0.019 C 
ATOM      9  C   LIG A   1      -1.832  -1.232  -0.801  0.00  0.00    +0.008 C 
ATOM     10  C   LIG A   1      -2.839  -0.939   0.297  0.00  0.00    +0.008 C 
ATOM     11  C   LIG A   1      -2.681   0.415   1.010  0.00  0.00    -0.023 C 
ATOM     12  C   LIG A   1      -2.570   1.583  -0.056  0.00  0.00    -0.023 C 
ATOM     13  C   LIG A   1      -2.092   2.750   0.828  0.00  0.00    +0.008 C 
ATOM     14  C   LIG A   1      -1.052   2.136   1.751  0.00  0.00    +0.005 C 
ATOM     15  C   LIG A   1      -1.469   0.659   2.009  0.00  0.00    +0.001 C 
ATOM     16  C   LIG A   1      -3.927   1.961  -0.690  0.00  0.00    +0.012 C 
ATOM     17  C   LIG A   1      -3.967   0.542   1.895  0.00  0.00    +0.012 C 
ATOM     18  C   LIG A   1      -1.498   1.244  -1.178  0.00  0.00    +0.002 C 
ATOM     19  C   LIG A   1      -1.358   2.336  -2.255  0.00  0.00    +0.005 C 
ATOM     20  C   LIG A   1      -0.272   2.020  -3.276  0.00  0.00    +0.005 C 
ATOM     21  C   LIG A   1      -0.145   0.561  -3.788  0.00  0.00    +0.009 C 
ATOM     22  O   LIG A   1       2.296  -1.846  -4.909  0.00  0.00    -0.297 OA
ATOM     23  C   LIG A   1       2.006   0.187  -2.349  0.00  0.00    +0.019 C 
ENDROOT
BRANCH  15  24
ATOM     24  C   LIG A   1      -0.208  -0.266   2.093  0.00  0.00    +0.022 C 
ATOM     25  C   LIG A   1      -0.543  -1.743   2.370  0.00  0.00    +0.010 C 
BRANCH  24  26
ATOM     26  C   LIG A   1       0.777   0.245   3.209  0.00  0.00    +0.140 C 
BRANCH  26  27
ATOM     27  O   LIG A   1       0.177   0.121   4.495  0.00  0.00    -0.388 OA
ATOM     28  H   LIG A   1       0.137  -0.826   4.708  0.00  0.00    +0.210 HD
ENDBRANCH  26  27
BRANCH  26  29
ATOM     29  C   LIG A   1       2.113  -0.456   3.182  0.00  0.00    +0.003 C 
ATOM     30  C   LIG A   1       2.918  -0.722   4.229  0.00  0.00    +0.005 C 
BRANCH  30  31
ATOM     31  C   LIG A   1       4.258  -1.426   4.175  0.00  0.00    +0.079 C 
ATOM     32  C   LIG A   1       4.670  -1.907   2.778  0.00  0.00    +0.045 C 
ATOM     33  C   LIG A   1       5.366  -0.546   4.759  0.00  0.00    +0.045 C 
BRANCH  31  34
ATOM     34  O   LIG A   1       4.146  -2.575   5.016  0.00  0.00    -0.385 OA
ATOM     35  H   LIG A   1       3.434  -3.128   4.654  0.00  0.00    +0.211 HD
ENDBRANCH  31  34
ENDBRANCH  30  31
ENDBRANCH  26  29
ENDBRANCH  24  26
ENDBRANCH  15  24
TORSDOF 6
