@<TRIPOS>MOLECULE
NuBBE_2439
 35 36 0 0 0
SMALL
GASTEIGER

@<TRIPOS>ATOM
      1 O          -3.4942    1.1366   -0.8907 O.3     1  LIG1       -0.5009
      2 C          -2.1322    1.0161   -0.8150 C.ar    1  LIG1        0.2026
      3 C          -1.3697    2.1863   -0.7701 C.ar    1  LIG1        0.1839
      4 C           0.0182    2.1574   -0.7263 C.ar    1  LIG1        0.0218
      5 C           0.6609    0.9198   -0.7401 C.ar    1  LIG1       -0.0439
      6 C          -0.0816   -0.2807   -0.7865 C.ar    1  LIG1        0.0024
      7 C          -1.4958   -0.2317   -0.8056 C.ar    1  LIG1        0.1685
      8 O          -2.1268   -1.4481   -0.8718 O.3     1  LIG1       -0.4910
      9 C          -3.4120   -1.5357   -0.2665 C.3     1  LIG1        0.0790
     10 C           0.6736   -1.5982   -0.7765 C.3     1  LIG1       -0.0056
     11 C           0.9162   -2.1249    0.6157 C.2     1  LIG1       -0.0809
     12 C           2.0915   -2.3610    1.2347 C.2     1  LIG1       -0.0793
     13 C           3.4535   -2.1002    0.6532 C.3     1  LIG1       -0.0440
     14 C           2.1250   -2.9458    2.6252 C.3     1  LIG1       -0.0440
     15 C           0.7479    3.4129   -0.6590 C.ar    1  LIG1       -0.0442
     16 C           0.0745    4.5675   -0.6431 C.ar    1  LIG1        0.0236
     17 C          -1.3965    4.6265   -0.7061 C.ar    1  LIG1        0.3373
     18 O          -1.9852    5.6975   -0.7004 O.2     1  LIG1       -0.2452
     19 O          -2.0695    3.4137   -0.7721 O.2     1  LIG1       -0.4183
     20 H          -3.6986    2.0901   -0.9262 H       1  LIG1        0.2924
     21 H           1.7481    0.8709   -0.7126 H       1  LIG1        0.0629
     22 H          -4.1842   -1.0891   -0.8986 H       1  LIG1        0.0660
     23 H          -3.4130   -1.1073    0.7416 H       1  LIG1        0.0660
     24 H          -3.6608   -2.5977   -0.1754 H       1  LIG1        0.0660
     25 H           1.6057   -1.4692   -1.3353 H       1  LIG1        0.0357
     26 H           0.1195   -2.3548   -1.3452 H       1  LIG1        0.0357
     27 H          -0.0032   -2.3645    1.1517 H       1  LIG1        0.0575
     28 H           3.4276   -1.6956   -0.3599 H       1  LIG1        0.0274
     29 H           4.0333   -3.0289    0.6191 H       1  LIG1        0.0274
     30 H           3.9944   -1.3808    1.2773 H       1  LIG1        0.0274
     31 H           1.1251   -3.1815    3.0042 H       1  LIG1        0.0274
     32 H           2.5912   -2.2421    3.3225 H       1  LIG1        0.0274
     33 H           2.7056   -3.8749    2.6318 H       1  LIG1        0.0274
     34 H           1.8314    3.3937   -0.6113 H       1  LIG1        0.0627
     35 H           0.5801    5.5236   -0.5827 H       1  LIG1        0.0689
@<TRIPOS>BOND
     1     1     2    1
     2     2     3   ar
     3     3     4   ar
     4     4     5   ar
     5     5     6   ar
     6     6     7   ar
     7     2     7   ar
     8     7     8    1
     9     8     9    1
    10     6    10    1
    11    10    11    1
    12    11    12    2
    13    12    13    1
    14    12    14    1
    15     4    15   ar
    16    15    16   ar
    17    16    17   ar
    18    17    18    2
    19    17    19   ar
    20     3    19   ar
    21     1    20    1
    22     5    21    1
    23     9    22    1
    24     9    23    1
    25     9    24    1
    26    10    25    1
    27    10    26    1
    28    11    27    1
    29    13    28    1
    30    13    29    1
    31    13    30    1
    32    14    31    1
    33    14    32    1
    34    14    33    1
    35    15    34    1
    36    16    35    1
