REMARK  Name = NuBBE_1622
REMARK  5 active torsions:
REMARK  status: ('A' for Active; 'I' for Inactive)
REMARK    1  A    between atoms: O_1  and  C_2
REMARK    2  A    between atoms: O_1  and  C_7
REMARK    3  A    between atoms: C_2  and  C_3
REMARK    4  A    between atoms: C_4  and  C_5
REMARK    5  A    between atoms: C_4  and  C_6
REMARK                            x       y       z     vdW  Elec       q    Type
REMARK                         _______ _______ _______ _____ _____    ______ ____
ROOT
ATOM      1  C   LIG A   1       0.795   0.538   0.095  0.00  0.00    +0.207 A 
ATOM      2  C   LIG A   1       1.480   1.759   0.252  0.00  0.00    +0.184 A 
ATOM      3  C   LIG A   1       2.855   1.838   0.503  0.00  0.00    +0.022 A 
ATOM      4  C   LIG A   1       3.615   0.665   0.606  0.00  0.00    +0.023 A 
ATOM      5  C   LIG A   1       2.979  -0.575   0.418  0.00  0.00    +0.025 A 
ATOM      6  C   LIG A   1       1.608  -0.605   0.161  0.00  0.00    +0.180 A 
ATOM      7  O   LIG A   1       1.213  -1.903  -0.004  0.00  0.00    -0.459 OA
ATOM      8  C   LIG A   1       2.301  -2.692   0.163  0.00  0.00    +0.196 A 
ATOM      9  C   LIG A   1       3.409  -1.930   0.438  0.00  0.00    +0.050 A 
ATOM     10  C   LIG A   1       3.485   3.140   0.660  0.00  0.00    +0.019 A 
ATOM     11  C   LIG A   1       2.755   4.247   0.522  0.00  0.00    +0.092 A 
ATOM     12  C   LIG A   1       1.314   4.212   0.222  0.00  0.00    +0.337 A 
ATOM     13  O   LIG A   1       0.683   5.257   0.069  0.00  0.00    -0.245 OA
ATOM     14  O   LIG A   1       0.728   2.961   0.134  0.00  0.00    -0.418 OA
ENDROOT
BRANCH   1  15
ATOM     15  O   LIG A   1      -0.577   0.588  -0.096  0.00  0.00    -0.481 OA
BRANCH  15  16
ATOM     16  C   LIG A   1      -1.239  -0.676  -0.225  0.00  0.00    +0.257 C 
BRANCH  16  17
ATOM     17  C   LIG A   1      -2.717  -0.433  -0.341  0.00  0.00    +0.012 C 
ATOM     18  C   LIG A   1      -3.664  -1.371  -0.546  0.00  0.00    -0.076 C 
ATOM     19  C   LIG A   1      -3.387  -2.837  -0.752  0.00  0.00    +0.038 C 
ATOM     20  C   LIG A   1      -5.123  -1.002  -0.554  0.00  0.00    +0.038 C 
ENDBRANCH  16  17
ENDBRANCH  15  16
ENDBRANCH   1  15
TORSDOF 3
