@<TRIPOS>MOLECULE
NuBBE_1693
 49 52 0 0 0
SMALL
GASTEIGER

@<TRIPOS>ATOM
      1 O          -4.0397    2.2134   -0.1996 O.3     1  LIG1       -0.5052
      2 C          -2.6739    2.1112   -0.1872 C.ar    1  LIG1        0.1418
      3 C          -1.8860    3.2770   -0.1374 C.ar    1  LIG1        0.0588
      4 C          -2.4683    4.6123   -0.0459 C.2     1  LIG1       -0.0478
      5 C          -1.6498    5.6669   -0.0832 C.2     1  LIG1       -0.0408
      6 C          -0.1497    5.5488   -0.2017 C.3     1  LIG1        0.1235
      7 C           0.3026    6.1066   -1.5559 C.3     1  LIG1       -0.0215
      8 C           0.5073    6.3479    0.9306 C.3     1  LIG1       -0.0215
      9 O           0.3736    4.2086   -0.0961 O.3     1  LIG1       -0.4814
     10 C          -0.4925    3.1515   -0.1300 C.ar    1  LIG1        0.1359
     11 C           0.1044    1.8895   -0.1315 C.ar    1  LIG1        0.0240
     12 C          -0.6858    0.7400   -0.1574 C.ar    1  LIG1        0.1463
     13 O          -0.0146   -0.4582   -0.1403 O.2     1  LIG1       -0.4544
     14 C          -0.7499   -1.6329   -0.1202 C.ar    1  LIG1        0.1395
     15 C           0.0610   -2.8660    0.0137 C.ar    1  LIG1        0.0245
     16 C          -0.3590   -4.0952   -0.5265 C.ar    1  LIG1       -0.0054
     17 C           0.4006   -5.2626   -0.3798 C.ar    1  LIG1        0.1656
     18 O          -0.1752   -6.3789   -0.9246 O.3     1  LIG1       -0.4913
     19 C           0.7182   -7.3671   -1.4254 C.3     1  LIG1        0.0790
     20 C           1.5904   -5.1968    0.3429 C.ar    1  LIG1        0.2010
     21 O           2.3413   -6.3154    0.5976 O.3     1  LIG1       -0.5009
     22 C           2.0428   -3.9811    0.8799 C.ar    1  LIG1        0.1656
     23 O           3.2276   -4.0714    1.5702 O.3     1  LIG1       -0.4913
     24 C           3.7271   -2.8719    2.1485 C.3     1  LIG1        0.0790
     25 C           1.2844   -2.8233    0.7043 C.ar    1  LIG1       -0.0054
     26 C          -2.0877   -1.6683   -0.1799 C.ar    1  LIG1        0.0288
     27 C          -2.0764    0.8417   -0.1989 C.ar    1  LIG1        0.1061
     28 C          -2.8512   -0.4147   -0.2782 C.ar    1  LIG1        0.1966
     29 O          -4.0668   -0.4745   -0.4336 O.2     1  LIG1       -0.2869
     30 H          -4.2913    2.9061   -0.8320 H       1  LIG1        0.2922
     31 H          -3.5376    4.7396    0.0726 H       1  LIG1        0.0624
     32 H          -2.0722    6.6669   -0.0207 H       1  LIG1        0.0611
     33 H           0.0029    7.1522   -1.6889 H       1  LIG1        0.0271
     34 H          -0.1193    5.5212   -2.3816 H       1  LIG1        0.0271
     35 H           1.3922    6.0449   -1.6597 H       1  LIG1        0.0271
     36 H           0.2209    7.4052    0.9078 H       1  LIG1        0.0271
     37 H           1.6002    6.2865    0.8689 H       1  LIG1        0.0271
     38 H           0.2305    5.9375    1.9093 H       1  LIG1        0.0271
     39 H           1.1881    1.8066   -0.1077 H       1  LIG1        0.0691
     40 H          -1.2920   -4.1674   -1.0823 H       1  LIG1        0.0662
     41 H           0.1169   -8.1206   -1.9440 H       1  LIG1        0.0660
     42 H           1.2423   -7.8951   -0.6261 H       1  LIG1        0.0660
     43 H           1.4158   -6.9374   -2.1523 H       1  LIG1        0.0660
     44 H           3.0638   -6.0107    1.1806 H       1  LIG1        0.2924
     45 H           4.6583   -3.1173    2.6677 H       1  LIG1        0.0660
     46 H           3.0284   -2.4703    2.8895 H       1  LIG1        0.0660
     47 H           3.9591   -2.1312    1.3765 H       1  LIG1        0.0660
     48 H           1.6153   -1.8778    1.1222 H       1  LIG1        0.0662
     49 H          -2.6768   -2.5758   -0.1540 H       1  LIG1        0.0693
@<TRIPOS>BOND
     1     1     2    1
     2     2     3   ar
     3     3     4    1
     4     4     5    2
     5     5     6    1
     6     6     7    1
     7     6     8    1
     8     6     9    1
     9     3    10   ar
    10     9    10    1
    11    10    11   ar
    12    11    12   ar
    13    12    13   ar
    14    13    14   ar
    15    14    15    1
    16    15    16   ar
    17    16    17   ar
    18    17    18    1
    19    18    19    1
    20    17    20   ar
    21    20    21    1
    22    20    22   ar
    23    22    23    1
    24    23    24    1
    25    22    25   ar
    26    15    25   ar
    27    14    26   ar
    28    12    27   ar
    29     2    27   ar
    30    27    28   ar
    31    26    28   ar
    32    28    29    2
    33     1    30    1
    34     4    31    1
    35     5    32    1
    36     7    33    1
    37     7    34    1
    38     7    35    1
    39     8    36    1
    40     8    37    1
    41     8    38    1
    42    11    39    1
    43    16    40    1
    44    19    41    1
    45    19    42    1
    46    19    43    1
    47    21    44    1
    48    24    45    1
    49    24    46    1
    50    24    47    1
    51    25    48    1
    52    26    49    1
