REMARK  Name = NuBBE_1594
REMARK  14 active torsions:
REMARK  status: ('A' for Active; 'I' for Inactive)
REMARK    1  A    between atoms: C_1  and  C_3
REMARK    2  A    between atoms: C_4  and  C_5
REMARK    3  A    between atoms: C_6  and  C_7
REMARK    4  A    between atoms: C_7  and  C_8
REMARK    5  A    between atoms: C_8  and  C_9
REMARK    6  A    between atoms: C_10  and  C_11
REMARK    7  A    between atoms: C_11  and  C_12
REMARK    8  A    between atoms: C_12  and  C_13
REMARK    9  A    between atoms: C_13  and  C_14
REMARK   10  A    between atoms: C_14  and  C_15
REMARK   11  A    between atoms: N_16  and  C_17
REMARK   12  A    between atoms: C_17  and  C_18
REMARK   13  A    between atoms: C_18  and  C_19
REMARK   14  A    between atoms: C_18  and  C_20
REMARK                            x       y       z     vdW  Elec       q    Type
REMARK                         _______ _______ _______ _____ _____    ______ ____
ROOT
ATOM      1  C   LIG A   1      -2.032   2.281  -0.832  0.00  0.00    -0.004 C 
ATOM      2  C   LIG A   1      -1.669   1.289  -0.004  0.00  0.00    -0.026 C 
ENDROOT
BRANCH   1   4
ATOM      3  C   LIG A   1      -0.213   2.533  -2.443  0.00  0.00    +0.067 C 
ATOM      4  C   LIG A   1      -1.083   3.080  -1.577  0.00  0.00    +0.005 C 
BRANCH   3   5
ATOM      5  C   LIG A   1       0.688   3.369  -3.278  0.00  0.00    +0.237 C 
ATOM      6  O   LIG A   1       0.682   4.596  -3.234  0.00  0.00    -0.271 OA
ATOM      7  N   LIG A   1       1.489   2.615  -4.101  0.00  0.00    -0.312 N 
ATOM      8  H   LIG A   1       1.384   1.609  -4.099  0.00  0.00    +0.149 HD
BRANCH   7   9
ATOM      9  C   LIG A   1       2.406   3.185  -5.074  0.00  0.00    +0.107 C 
BRANCH   9  10
ATOM     10  C   LIG A   1       3.878   2.853  -4.774  0.00  0.00    +0.000 C 
ATOM     11  C   LIG A   1       4.159   1.349  -4.844  0.00  0.00    +0.009 C 
ATOM     12  C   LIG A   1       4.778   3.595  -5.765  0.00  0.00    +0.009 C 
ENDBRANCH   9  10
ENDBRANCH   7   9
ENDBRANCH   3   5
ENDBRANCH   1   4
BRANCH   2  13
ATOM     13  C   LIG A   1      -2.642   0.430   0.761  0.00  0.00    +0.031 C 
BRANCH  13  14
ATOM     14  C   LIG A   1      -2.126  -0.989   1.057  0.00  0.00    +0.031 C 
BRANCH  14  15
ATOM     15  C   LIG A   1      -0.862  -1.003   1.876  0.00  0.00    -0.031 C 
ATOM     16  C   LIG A   1      -0.750  -1.113   3.209  0.00  0.00    -0.031 C 
BRANCH  16  17
ATOM     17  C   LIG A   1      -1.865  -1.222   4.211  0.00  0.00    +0.027 C 
BRANCH  17  18
ATOM     18  C   LIG A   1      -2.212  -2.668   4.573  0.00  0.00    +0.004 C 
BRANCH  18  19
ATOM     19  C   LIG A   1      -1.069  -3.454   5.226  0.00  0.00    +0.000 C 
BRANCH  19  20
ATOM     20  C   LIG A   1      -1.474  -4.891   5.573  0.00  0.00    -0.003 C 
ATOM     21  C   LIG A   1      -1.888  -5.702   4.353  0.00  0.00    +0.004 C 
ENDBRANCH  19  20
ENDBRANCH  18  19
ENDBRANCH  17  18
ENDBRANCH  16  17
ENDBRANCH  14  15
ENDBRANCH  13  14
ENDBRANCH   2  13
TORSDOF 11
