REMARK  Name = NuBBE_1155
REMARK  14 active torsions:
REMARK  status: ('A' for Active; 'I' for Inactive)
REMARK    1  A    between atoms: C_2  and  O_3
REMARK    2  A    between atoms: C_2  and  C_5
REMARK    3  A    between atoms: O_3  and  C_4
REMARK    4  A    between atoms: C_5  and  C_6
REMARK    5  A    between atoms: C_6  and  C_7
REMARK    6  A    between atoms: C_7  and  C_8
REMARK    7  A    between atoms: C_8  and  C_9
REMARK    8  A    between atoms: C_9  and  C_10
REMARK    9  A    between atoms: C_10  and  C_11
REMARK   10  A    between atoms: C_11  and  C_12
REMARK   11  A    between atoms: C_12  and  C_13
REMARK   12  A    between atoms: C_13  and  C_14
REMARK   13  A    between atoms: C_14  and  C_15
REMARK   14  A    between atoms: C_15  and  C_16
REMARK                            x       y       z     vdW  Elec       q    Type
REMARK                         _______ _______ _______ _____ _____    ______ ____
ROOT
ATOM      1  C   LIG A   1       0.044   0.334   0.531  0.00  0.00    -0.000 C 
ENDROOT
BRANCH   1   2
ATOM      2  C   LIG A   1      -0.750  -0.825   1.139  0.00  0.00    -0.000 C 
BRANCH   2   3
ATOM      3  C   LIG A   1      -2.247  -0.556   1.057  0.00  0.00    -0.000 C 
BRANCH   3   4
ATOM      4  C   LIG A   1      -3.061  -1.718   1.631  0.00  0.00    +0.000 C 
BRANCH   4   5
ATOM      5  C   LIG A   1      -4.567  -1.465   1.546  0.00  0.00    +0.000 C 
BRANCH   5   6
ATOM      6  C   LIG A   1      -5.051  -1.304   0.105  0.00  0.00    +0.011 C 
BRANCH   6   7
ATOM      7  C   LIG A   1      -6.546  -1.045   0.052  0.00  0.00    +0.120 C 
BRANCH   7   9
ATOM      8  O   LIG A   1      -6.581  -0.021  -2.149  0.00  0.00    -0.251 OA
ATOM      9  C   LIG A   1      -7.016  -0.869  -1.371  0.00  0.00    +0.307 C 
BRANCH   9  10
ATOM     10  O   LIG A   1      -7.991  -1.774  -1.642  0.00  0.00    -0.468 OA
ATOM     11  C   LIG A   1      -8.611  -1.621  -2.919  0.00  0.00    +0.280 C 
ENDBRANCH   9  10
ENDBRANCH   7   9
ENDBRANCH   6   7
ENDBRANCH   5   6
ENDBRANCH   4   5
ENDBRANCH   3   4
ENDBRANCH   2   3
ENDBRANCH   1   2
BRANCH   1  12
ATOM     12  C   LIG A   1       1.544   0.062   0.630  0.00  0.00    +0.000 C 
BRANCH  12  13
ATOM     13  C   LIG A   1       2.380   1.200   0.039  0.00  0.00    +0.000 C 
BRANCH  13  14
ATOM     14  C   LIG A   1       3.877   0.888   0.139  0.00  0.00    +0.005 C 
BRANCH  14  15
ATOM     15  C   LIG A   1       4.743   2.016  -0.435  0.00  0.00    +0.035 C 
BRANCH  15  16
ATOM     16  C   LIG A   1       6.226   1.744  -0.309  0.00  0.00    -0.047 A 
ATOM     17  C   LIG A   1       6.800   0.616  -0.914  0.00  0.00    +0.003 A 
ATOM     18  C   LIG A   1       8.175   0.387  -0.838  0.00  0.00    +0.000 A 
ATOM     19  C   LIG A   1       8.995   1.286  -0.161  0.00  0.00    +0.000 A 
ATOM     20  C   LIG A   1       8.439   2.409   0.447  0.00  0.00    +0.000 A 
ATOM     21  C   LIG A   1       7.062   2.638   0.374  0.00  0.00    +0.003 A 
ENDBRANCH  15  16
ENDBRANCH  14  15
ENDBRANCH  13  14
ENDBRANCH  12  13
ENDBRANCH   1  12
TORSDOF 13
