@<TRIPOS>MOLECULE
NuBBE_2165
 44 48 0 0 0
SMALL
GASTEIGER

@<TRIPOS>ATOM
      1 O           0.9718    0.4480   -1.8795 O.3     1  LIG1       -0.3789
      2 C           0.5703   -0.1229   -0.6217 C.3     1  LIG1        0.1233
      3 C           1.1217    0.7715    0.4761 C.ar    1  LIG1        0.0445
      4 C           1.0304    2.1593    0.4066 C.ar    1  LIG1        0.1731
      5 O           0.4720    2.8663   -0.6205 O.3     1  LIG1       -0.4522
      6 C           0.6323    4.2215   -0.1503 C.3     1  LIG1        0.2332
      7 O           1.3000    4.3054    1.1226 O.3     1  LIG1       -0.4526
      8 C           1.5016    2.9901    1.3987 C.ar    1  LIG1        0.1666
      9 C           2.0981    2.4957    2.5345 C.ar    1  LIG1       -0.0155
     10 C           2.1983    1.1087    2.6579 C.ar    1  LIG1       -0.0472
     11 C           1.7056    0.2508    1.6455 C.ar    1  LIG1        0.0276
     12 C           1.7854   -1.2189    1.8717 C.2     1  LIG1        0.1668
     13 C           1.1039   -2.1348    0.8638 C.3     1  LIG1        0.0251
     14 H           0.0506   -2.1918    1.1636 H       1  LIG1        0.0382
     15 C           1.6566   -3.5585    0.9711 C.3     1  LIG1       -0.0550
     16 C           1.1923   -1.5562   -0.5637 C.3     1  LIG1        0.0031
     17 H           0.6073   -2.2093   -1.2280 H       1  LIG1        0.0339
     18 C           2.6312   -1.6029   -1.1244 C.3     1  LIG1       -0.0585
     19 O           2.3202   -1.6430    2.8920 O.2     1  LIG1       -0.2917
     20 C          -0.9726   -0.1853   -0.6259 C.ar    1  LIG1       -0.0076
     21 C          -1.6679   -0.3142   -1.8480 C.ar    1  LIG1       -0.0099
     22 C          -3.0477   -0.3207   -1.8342 C.ar    1  LIG1        0.1666
     23 C          -3.7606   -0.2342   -0.6649 C.ar    1  LIG1        0.1662
     24 O          -5.1039   -0.2482   -0.8714 O.3     1  LIG1       -0.4526
     25 C          -5.1545   -0.3172   -2.3117 C.3     1  LIG1        0.2332
     26 O          -3.8525   -0.3985   -2.9277 O.3     1  LIG1       -0.4526
     27 C          -3.1339   -0.1410    0.5556 C.ar    1  LIG1       -0.0158
     28 C          -1.7338   -0.1140    0.5716 C.ar    1  LIG1       -0.0518
     29 H           0.6145    1.3561   -1.8971 H       1  LIG1        0.2111
     30 H          -0.3595    4.6795   -0.0599 H       1  LIG1        0.1166
     31 H           1.2131    4.7821   -0.8914 H       1  LIG1        0.1166
     32 H           2.4665    3.1583    3.3098 H       1  LIG1        0.0655
     33 H           2.6516    0.6888    3.5554 H       1  LIG1        0.0626
     34 H           1.3911   -3.9986    1.9393 H       1  LIG1        0.0237
     35 H           2.7493   -3.5819    0.9034 H       1  LIG1        0.0237
     36 H           1.2416   -4.2025    0.1893 H       1  LIG1        0.0237
     37 H           3.3201   -0.9832   -0.5425 H       1  LIG1        0.0234
     38 H           2.6640   -1.2593   -2.1635 H       1  LIG1        0.0234
     39 H           3.0216   -2.6250   -1.1334 H       1  LIG1        0.0234
     40 H          -1.1416   -0.3898   -2.7954 H       1  LIG1        0.0659
     41 H          -5.6643    0.5782   -2.6867 H       1  LIG1        0.1166
     42 H          -5.7359   -1.1998   -2.6011 H       1  LIG1        0.1166
     43 H          -3.7077   -0.0804    1.4738 H       1  LIG1        0.0655
     44 H          -1.2466   -0.0285    1.5407 H       1  LIG1        0.0622
@<TRIPOS>BOND
     1     2     3    1
     2     3     4   ar
     3     4     5    1
     4     5     6    1
     5     6     7    1
     6     4     8   ar
     7     7     8    1
     8     8     9   ar
     9     9    10   ar
    10     3    11   ar
    11    10    11   ar
    12    11    12    1
    13    12    13    1
    14    13    14    1
    15    13    15    1
    16    13    16    1
    17    12    19    2
    18    16     2    1
    19    20    21   ar
    20    21    22   ar
    21    22    23   ar
    22    23    24    1
    23    24    25    1
    24    25    26    1
    25    22    26    1
    26    23    27   ar
    27    27    28   ar
    28    20    28   ar
    29     2    20    1
    30     2     1    1
    31    16    18    1
    32    16    17    1
    33     1    29    1
    34     6    30    1
    35     6    31    1
    36     9    32    1
    37    10    33    1
    38    15    34    1
    39    15    35    1
    40    15    36    1
    41    18    37    1
    42    18    38    1
    43    18    39    1
    44    21    40    1
    45    25    41    1
    46    25    42    1
    47    27    43    1
    48    28    44    1
