REMARK  Name = NuBBE_1160
REMARK  5 active torsions:
REMARK  status: ('A' for Active; 'I' for Inactive)
REMARK    1  A    between atoms: C_3  and  C_38
REMARK    2  A    between atoms: C_10  and  C_12
REMARK    3  A    between atoms: C_17  and  C_36
REMARK    4  A    between atoms: C_30  and  C_34
REMARK    5  A    between atoms: C_30  and  C_35
REMARK                            x       y       z     vdW  Elec       q    Type
REMARK                         _______ _______ _______ _____ _____    ______ ____
ROOT
ATOM      1  O   LIG A   1      -2.150  -1.320  -1.539  0.00  0.00    -0.297 OA
ATOM      2  C   LIG A   1      -1.278  -0.456  -1.633  0.00  0.00    +0.143 C 
ATOM      3  C   LIG A   1       0.067  -0.557  -0.904  0.00  0.00    +0.062 C 
ATOM      4  C   LIG A   1       0.274  -1.968  -0.253  0.00  0.00    +0.128 C 
ATOM      5  O   LIG A   1       1.200  -2.765  -1.028  0.00  0.00    -0.351 OA
ATOM      6  C   LIG A   1      -0.123  -3.278  -0.940  0.00  0.00    +0.260 C 
ATOM      7  C   LIG A   1      -0.224  -4.545  -0.174  0.00  0.00    +0.340 C 
ATOM      8  O   LIG A   1       0.356  -4.594   1.060  0.00  0.00    -0.454 OA
ATOM      9  C   LIG A   1       1.116  -3.485   1.613  0.00  0.00    +0.218 C 
ATOM     10  C   LIG A   1       0.479  -2.094   1.244  0.00  0.00    +0.042 C 
ATOM     11  C   LIG A   1       1.357  -0.920   1.703  0.00  0.00    +0.014 C 
ATOM     12  C   LIG A   1       0.665   0.420   1.514  0.00  0.00    +0.006 C 
ATOM     13  C   LIG A   1       0.141   0.689   0.083  0.00  0.00    +0.017 C 
ATOM     14  C   LIG A   1      -1.112   1.685   0.060  0.00  0.00    +0.041 C 
ATOM     15  C   LIG A   1      -0.716   3.101   0.553  0.00  0.00    +0.140 C 
ATOM     16  C   LIG A   1      -1.491   3.600   1.763  0.00  0.00    +0.152 C 
ATOM     17  C   LIG A   1      -2.968   3.397   1.570  0.00  0.00    +0.310 C 
ATOM     18  O   LIG A   1      -3.322   2.196   1.048  0.00  0.00    -0.464 OA
ATOM     19  C   LIG A   1      -2.303   1.190   0.922  0.00  0.00    +0.242 C 
ATOM     20  O   LIG A   1      -3.805   4.220   1.919  0.00  0.00    -0.251 OA
ATOM     21  O   LIG A   1      -0.915   4.034  -0.525  0.00  0.00    -0.369 OA
ATOM     22  C   LIG A   1      -1.009   3.328  -1.773  0.00  0.00    +0.068 C 
ATOM     23  C   LIG A   1      -1.631   1.980  -1.376  0.00  0.00    +0.040 C 
ATOM     24  C   LIG A   1      -1.550   0.833  -2.375  0.00  0.00    +0.082 C 
ATOM     25  C   LIG A   1       0.389   3.308  -2.394  0.00  0.00    +0.041 C 
ATOM     26  C   LIG A   1      -1.941   4.124  -2.692  0.00  0.00    +0.041 C 
ATOM     27  C   LIG A   1      -0.905  -2.062   1.944  0.00  0.00    +0.018 C 
ATOM     28  O   LIG A   1      -0.828  -5.503  -0.640  0.00  0.00    -0.248 OA
ATOM     29  C   LIG A   1       1.186  -0.365  -1.981  0.00  0.00    +0.022 C 
ENDROOT
BRANCH   9  30
ATOM     30  C   LIG A   1       2.601  -3.667   1.411  0.00  0.00    +0.031 A 
ATOM     31  C   LIG A   1       3.255  -4.316   0.381  0.00  0.00    +0.202 A 
ATOM     32  O   LIG A   1       4.599  -4.292   0.558  0.00  0.00    -0.471 OA
ATOM     33  C   LIG A   1       4.831  -3.651   1.729  0.00  0.00    +0.195 A 
ATOM     34  C   LIG A   1       3.644  -3.261   2.301  0.00  0.00    +0.048 A 
ENDBRANCH   9  30
TORSDOF 1
