@<TRIPOS>MOLECULE
NuBBE_2067
 50 53 0 0 0
SMALL
GASTEIGER

@<TRIPOS>ATOM
      1 C           4.9364    1.1034   -1.2024 C.3     1  LIG1        0.0372
      2 O           4.5787   -0.1946   -0.7437 O.3     1  LIG1       -0.3757
      3 C           3.1727   -0.4927   -0.8227 C.3     1  LIG1        0.0790
      4 H           2.8908   -0.4839   -1.8836 H       1  LIG1        0.0641
      5 C           3.0316   -1.9209   -0.3384 C.2     1  LIG1       -0.0553
      6 C           2.2943   -2.2777    0.7323 C.2     1  LIG1       -0.0583
      7 C           1.6761   -1.2274    1.4744 C.2     1  LIG1       -0.0256
      8 C           2.0226   -0.9755    2.7517 C.2     1  LIG1       -0.0648
      9 C           1.8322    0.4684    3.0398 C.3     1  LIG1        0.0189
     10 N           0.9832    0.9967    1.9364 N.3     1  LIG1       -0.2825
     11 C          -0.3860    1.0061    2.4560 C.3     1  LIG1        0.0308
     12 C          -1.4611    1.3978    1.4482 C.3     1  LIG1        0.0964
     13 H          -1.4268    2.4697    1.2148 H       1  LIG1        0.0659
     14 O          -2.7595    1.0447    1.9669 O.3     1  LIG1       -0.3739
     15 C          -3.1290    1.6964    3.1720 C.3     1  LIG1        0.0373
     16 C          -1.2799    0.6076    0.1704 C.ar    1  LIG1       -0.0087
     17 C          -2.3251    0.6513   -0.7735 C.ar    1  LIG1       -0.0103
     18 C          -2.3137   -0.1288   -1.9276 C.ar    1  LIG1        0.1618
     19 O          -3.2804   -0.0243   -2.8888 O.3     1  LIG1       -0.4914
     20 C          -4.5541    0.4367   -2.4589 C.3     1  LIG1        0.0790
     21 C          -1.2397   -0.9953   -2.1364 C.ar    1  LIG1        0.1618
     22 O          -1.0962   -1.8668   -3.1915 O.3     1  LIG1       -0.4914
     23 C          -2.3025   -2.4250   -3.7145 C.3     1  LIG1        0.0790
     24 C          -0.1496   -0.9714   -1.2411 C.ar    1  LIG1       -0.0107
     25 C          -0.1179   -0.1470   -0.0899 C.ar    1  LIG1       -0.0134
     26 C           1.1533    0.0126    0.7864 C.3     1  LIG1        0.0756
     27 C           2.3274    0.5678   -0.0674 C.3     1  LIG1        0.0039
     28 H           6.0272    1.1629   -1.2448 H       1  LIG1        0.0524
     29 H           4.6036    1.8765   -0.5034 H       1  LIG1        0.0524
     30 H           4.5281    1.2966   -2.1974 H       1  LIG1        0.0524
     31 H           3.5590   -2.6860   -0.8989 H       1  LIG1        0.0598
     32 H           2.2365   -3.3016    1.0799 H       1  LIG1        0.0619
     33 H           2.6051   -1.6262    3.3806 H       1  LIG1        0.0588
     34 H           2.8016    0.9806    3.0236 H       1  LIG1        0.0470
     35 H           1.4038    0.6299    4.0357 H       1  LIG1        0.0470
     36 H          -0.4111    1.7410    3.2698 H       1  LIG1        0.0456
     37 H          -0.6565    0.0389    2.9053 H       1  LIG1        0.0456
     38 H          -4.0016    1.1772    3.5775 H       1  LIG1        0.0524
     39 H          -3.3916    2.7379    2.9753 H       1  LIG1        0.0524
     40 H          -2.3511    1.6440    3.9370 H       1  LIG1        0.0524
     41 H          -3.1529    1.3246   -0.5706 H       1  LIG1        0.0659
     42 H          -4.5539    1.5267   -2.3598 H       1  LIG1        0.0660
     43 H          -4.8638   -0.0471   -1.5264 H       1  LIG1        0.0660
     44 H          -5.2810    0.1677   -3.2300 H       1  LIG1        0.0660
     45 H          -2.9309   -2.8453   -2.9207 H       1  LIG1        0.0660
     46 H          -2.0339   -3.2401   -4.3939 H       1  LIG1        0.0660
     47 H          -2.8557   -1.7042   -4.3226 H       1  LIG1        0.0660
     48 H           0.6829   -1.6252   -1.4808 H       1  LIG1        0.0659
     49 H           2.9995    1.1361    0.5884 H       1  LIG1        0.0318
     50 H           1.9587    1.3071   -0.7932 H       1  LIG1        0.0318
@<TRIPOS>BOND
     1     1     2    1
     2     3     5    1
     3     5     6    2
     4     6     7    1
     5     7     8    2
     6     8     9    1
     7     9    10    1
     8    10    11    1
     9    11    12    1
    10    14    15    1
    11    12    16    1
    12    16    17   ar
    13    17    18   ar
    14    19    20    1
    15    18    21   ar
    16    22    23    1
    17    21    24   ar
    18    24    25   ar
    19    16    25   ar
    20    25    26    1
    21    10    26    1
    22     7    26    1
    23    26    27    1
    24     3    27    1
    25    18    19    1
    26    21    22    1
    27    12    14    1
    28    12    13    1
    29     3     4    1
    30     3     2    1
    31     1    28    1
    32     1    29    1
    33     1    30    1
    34     5    31    1
    35     6    32    1
    36     8    33    1
    37     9    34    1
    38     9    35    1
    39    11    36    1
    40    11    37    1
    41    15    38    1
    42    15    39    1
    43    15    40    1
    44    17    41    1
    45    20    42    1
    46    20    43    1
    47    20    44    1
    48    23    45    1
    49    23    46    1
    50    23    47    1
    51    24    48    1
    52    27    49    1
    53    27    50    1
