@<TRIPOS>MOLECULE
NuBBE_1055
 67 71 0 0 0
SMALL
GASTEIGER

@<TRIPOS>ATOM
      1 C          -0.0579    1.9300   -4.0655 C.3     1  LIG1       -0.0525
      2 C           0.5890    1.1511   -2.8904 C.3     1  LIG1        0.0318
      3 C           1.6934    0.3326   -3.6122 C.3     1  LIG1       -0.0525
      4 C          -0.4836    0.2351   -2.0445 C.3     1  LIG1       -0.0038
      5 H          -0.7652   -0.6024   -2.6994 H       1  LIG1        0.0326
      6 C          -1.8089    0.9957   -1.7631 C.3     1  LIG1        0.0496
      7 C          -2.7241    1.4641   -2.8820 C.2     1  LIG1        0.3071
      8 O          -2.6790    0.6251   -3.9481 O.3     1  LIG1       -0.4679
      9 C          -3.5126    0.9875   -5.0541 C.3     1  LIG1        0.0817
     10 O          -3.4599    2.4390   -2.7928 O.2     1  LIG1       -0.2509
     11 C           0.2288   -0.4460   -0.6903 C.3     1  LIG1        0.0623
     12 C           1.2901   -1.4356   -1.2869 C.3     1  LIG1       -0.0496
     13 C          -0.8087   -1.3331    0.7649 C.3     1  LIG1        0.1215
     14 C          -0.4361   -0.1395    2.5187 C.3     1  LIG1        0.1588
     15 C          -0.7864    1.0152    3.6528 C.3     1  LIG1       -0.0181
     16 O           0.5188    1.3201    1.7842 O.2     1  LIG1       -0.4822
     17 C           0.9822    1.0682    0.0919 C.2     1  LIG1        0.1115
     18 C           1.3345    2.1699   -0.5695 C.2     1  LIG1        0.0195
     19 C           1.3270    2.2140   -2.0427 C.2     1  LIG1        0.1651
     20 O           1.9610    3.1295   -2.5744 O.2     1  LIG1       -0.2920
     21 O          -2.1648   -1.4253    0.1910 O.3     1  LIG1       -0.3833
     22 C          -0.5598   -2.8845    0.9378 C.3     1  LIG1       -0.0180
     23 C          -0.1429   -3.1047    2.3471 C.3     1  LIG1       -0.0373
     24 C           0.0204   -1.6950    2.8934 C.3     1  LIG1        0.0346
     25 C           0.6272   -1.8954    4.3007 C.3     1  LIG1       -0.0520
     26 C          -1.5135   -1.0028    2.9790 C.2     1  LIG1       -0.0077
     27 C          -2.4910   -0.2573    2.3962 C.2     1  LIG1        0.0262
     28 C          -2.0538    0.7117    1.2792 C.2     1  LIG1        0.3326
     29 O          -0.6414    0.3950    0.8556 O.3     1  LIG1       -0.4525
     30 C           0.9537   -0.7004    1.5392 C.3     1  LIG1        0.1403
     31 H           1.2979   -1.4589    0.8417 H       1  LIG1        0.0795
     32 C           2.3487   -0.1324    2.1667 C.ar    1  LIG1        0.0313
     33 C           3.5011    0.1614    1.4440 C.ar    1  LIG1        0.0984
     34 O           4.5097    0.5939    2.2415 O.2     1  LIG1       -0.4706
     35 C           4.0362    0.5979    3.5049 C.ar    1  LIG1        0.0921
     36 C           2.7268    0.1812    3.5152 C.ar    1  LIG1       -0.0172
     37 O          -2.7396    1.6251    0.8580 O.2     1  LIG1       -0.2456
     38 H          -0.5688    1.2496   -4.7510 H       1  LIG1        0.0239
     39 H           0.6943    2.4410   -4.6828 H       1  LIG1        0.0239
     40 H          -0.7243    2.7242   -3.7222 H       1  LIG1        0.0239
     41 H           1.2680   -0.5197   -4.1539 H       1  LIG1        0.0239
     42 H           2.4885   -0.0001   -2.9450 H       1  LIG1        0.0239
     43 H           2.2209    0.9382   -4.3614 H       1  LIG1        0.0239
     44 H          -1.5837    1.8855   -1.1717 H       1  LIG1        0.0381
     45 H          -2.4772    0.3289   -1.2209 H       1  LIG1        0.0381
     46 H          -3.8927    0.0575   -5.4805 H       1  LIG1        0.0661
     47 H          -2.9167    1.5043   -5.8142 H       1  LIG1        0.0661
     48 H          -4.3671    1.6090   -4.7703 H       1  LIG1        0.0661
     49 H           1.3034   -2.4309   -0.8580 H       1  LIG1        0.0240
     50 H           2.3045   -1.0476   -1.1742 H       1  LIG1        0.0240
     51 H           1.0914   -1.6695   -2.3343 H       1  LIG1        0.0240
     52 H          -1.2411    1.9273    3.2413 H       1  LIG1        0.0272
     53 H           0.1616    1.3537    4.0937 H       1  LIG1        0.0272
     54 H          -1.3731    0.6854    4.5229 H       1  LIG1        0.0272
     55 H           1.5958    3.0852   -0.0547 H       1  LIG1        0.0686
     56 H          -2.0969   -1.8691   -0.6724 H       1  LIG1        0.2104
     57 H           0.1856   -3.3118    0.2751 H       1  LIG1        0.0295
     58 H          -1.4600   -3.4804    0.7387 H       1  LIG1        0.0295
     59 H           0.7929   -3.6740    2.3923 H       1  LIG1        0.0276
     60 H          -0.9032   -3.6700    2.9001 H       1  LIG1        0.0276
     61 H           0.0288   -2.6204    4.8685 H       1  LIG1        0.0239
     62 H           0.6071   -0.9919    4.9114 H       1  LIG1        0.0239
     63 H           1.6450   -2.2946    4.2492 H       1  LIG1        0.0239
     64 H          -3.5297   -0.2534    2.6930 H       1  LIG1        0.0690
     65 H           3.7500    0.1478    0.3925 H       1  LIG1        0.1033
     66 H           4.7235    0.9236    4.2751 H       1  LIG1        0.1029
     67 H           2.1561    0.1427    4.4256 H       1  LIG1        0.0653
@<TRIPOS>BOND
     1     1     2    1
     2     2     3    1
     3     2     4    1
     4     4     5    1
     5     4     6    1
     6     6     7    1
     7     7     8    1
     8     8     9    1
     9     7    10    2
    10     4    11    1
    11    11    12    1
    12    11    13    1
    13    13    14    1
    14    14    15    1
    15    14    16    1
    16    16    17    1
    17    11    17    1
    18    17    18    2
    19    18    19    1
    20     2    19    1
    21    19    20    2
    22    13    21    1
    23    13    22    1
    24    22    23    1
    25    23    24    1
    26    24    25    1
    27    24    26    1
    28    14    26    1
    29    26    27    2
    30    27    28    1
    31    28    29    1
    32    29    30    1
    33    24    30    1
    34    32    33   ar
    35    33    34   ar
    36    34    35   ar
    37    35    36   ar
    38    32    36   ar
    39    28    37    2
    40    30    32    1
    41    30    31    1
    42     1    38    1
    43     1    39    1
    44     1    40    1
    45     3    41    1
    46     3    42    1
    47     3    43    1
    48     6    44    1
    49     6    45    1
    50     9    46    1
    51     9    47    1
    52     9    48    1
    53    12    49    1
    54    12    50    1
    55    12    51    1
    56    15    52    1
    57    15    53    1
    58    15    54    1
    59    18    55    1
    60    21    56    1
    61    22    57    1
    62    22    58    1
    63    23    59    1
    64    23    60    1
    65    25    61    1
    66    25    62    1
    67    25    63    1
    68    27    64    1
    69    33    65    1
    70    35    66    1
    71    36    67    1
