@<TRIPOS>MOLECULE
NuBBE_1422
 49 53 0 0 0
SMALL
GASTEIGER

@<TRIPOS>ATOM
      1 H          -3.4566    0.2429   -0.6783 H       1  LIG1        0.0356
      2 C          -2.3796    0.4132   -0.5625 C.3     1  LIG1        0.0205
      3 C          -2.0145    1.8830   -0.7291 C.3     1  LIG1        0.0891
      4 H          -2.7713    2.3726   -1.3551 H       1  LIG1        0.0650
      5 C          -1.8906    2.6909    0.5461 C.ar    1  LIG1       -0.0149
      6 C          -3.0072    2.8285    1.4051 C.ar    1  LIG1       -0.0524
      7 C          -2.9328    3.5820    2.5818 C.ar    1  LIG1       -0.0158
      8 C          -1.7296    4.1917    2.8773 C.ar    1  LIG1        0.1662
      9 O          -1.4754    4.9597    3.9688 O.3     1  LIG1       -0.4526
     10 C          -0.0847    5.2808    3.7525 C.3     1  LIG1        0.2332
     11 O           0.4438    4.7446    2.5233 O.3     1  LIG1       -0.4526
     12 C          -0.6408    4.0693    2.0534 C.ar    1  LIG1        0.1666
     13 C          -0.6860    3.3358    0.8876 C.ar    1  LIG1       -0.0105
     14 O          -0.8023    1.9224   -1.5110 O.3     1  LIG1       -0.3712
     15 C          -0.3532    0.5817   -1.7402 C.3     1  LIG1        0.0544
     16 C          -1.5903   -0.2936   -1.6386 C.3     1  LIG1        0.0205
     17 C          -1.4158   -1.7168   -1.1122 C.3     1  LIG1        0.0891
     18 H          -2.1577   -2.3817   -1.5703 H       1  LIG1        0.0650
     19 C          -0.0458   -2.3280   -1.3178 C.ar    1  LIG1       -0.0149
     20 C           0.4757   -2.5307   -2.6005 C.ar    1  LIG1       -0.0524
     21 C           1.7772   -3.0173   -2.7676 C.ar    1  LIG1       -0.0160
     22 C           2.5829   -3.2933   -1.6554 C.ar    1  LIG1        0.1615
     23 C           2.0534   -3.1490   -0.3631 C.ar    1  LIG1        0.1618
     24 O           2.8725   -3.4574    0.6963 O.3     1  LIG1       -0.4914
     25 C           2.3511   -3.2051    1.9981 C.3     1  LIG1        0.0790
     26 C           0.7452   -2.6809   -0.2145 C.ar    1  LIG1       -0.0107
     27 O           3.8805   -3.7308   -1.7539 O.3     1  LIG1       -0.4915
     28 C           4.5951   -3.2926   -2.9044 C.3     1  LIG1        0.0790
     29 O          -1.7655   -1.6696    0.2934 O.3     1  LIG1       -0.3712
     30 C          -1.8998   -0.2975    0.6859 C.3     1  LIG1        0.0544
     31 H          -2.1204   -0.2804   -2.5981 H       1  LIG1        0.0356
     32 H          -3.9516    2.3455    1.1553 H       1  LIG1        0.0622
     33 H          -3.7859    3.6894    3.2393 H       1  LIG1        0.0655
     34 H           0.4996    4.8787    4.5885 H       1  LIG1        0.1166
     35 H           0.0279    6.3710    3.7379 H       1  LIG1        0.1166
     36 H           0.1935    3.2705    0.2555 H       1  LIG1        0.0659
     37 H           0.4095    0.3588   -0.9867 H       1  LIG1        0.0564
     38 H           0.1136    0.5286   -2.7282 H       1  LIG1        0.0564
     39 H          -0.1178   -2.2997   -3.4826 H       1  LIG1        0.0622
     40 H           2.1442   -3.1745   -3.7772 H       1  LIG1        0.0655
     41 H           3.1151   -3.4728    2.7327 H       1  LIG1        0.0660
     42 H           1.4701   -3.8256    2.1982 H       1  LIG1        0.0660
     43 H           2.1212   -2.1414    2.1317 H       1  LIG1        0.0660
     44 H           0.3157   -2.5634    0.7747 H       1  LIG1        0.0659
     45 H           5.6646   -3.3729   -2.6867 H       1  LIG1        0.0660
     46 H           4.3874   -2.2442   -3.1475 H       1  LIG1        0.0660
     47 H           4.3759   -3.9408   -3.7586 H       1  LIG1        0.0660
     48 H          -0.9253    0.0518    1.0457 H       1  LIG1        0.0564
     49 H          -2.6150   -0.2335    1.5109 H       1  LIG1        0.0564
@<TRIPOS>BOND
     1     1     2    1
     2     2     3    1
     3     5     6   ar
     4     6     7   ar
     5     7     8   ar
     6     8     9    1
     7     9    10    1
     8    10    11    1
     9    11    12    1
    10     8    12   ar
    11    12    13   ar
    12     5    13   ar
    13     3    14    1
    14    14    15    1
    15    15    16    1
    16     2    16    1
    17    16    17    1
    18    19    20   ar
    19    20    21   ar
    20    21    22   ar
    21    22    23   ar
    22    23    24    1
    23    24    25    1
    24    23    26   ar
    25    19    26   ar
    26    22    27    1
    27    27    28    1
    28    17    29    1
    29    29    30    1
    30     2    30    1
    31    16    31    1
    32     3     5    1
    33     3     4    1
    34    17    19    1
    35    17    18    1
    36     6    32    1
    37     7    33    1
    38    10    34    1
    39    10    35    1
    40    13    36    1
    41    15    37    1
    42    15    38    1
    43    20    39    1
    44    21    40    1
    45    25    41    1
    46    25    42    1
    47    25    43    1
    48    26    44    1
    49    28    45    1
    50    28    46    1
    51    28    47    1
    52    30    48    1
    53    30    49    1
