@<TRIPOS>MOLECULE
NuBBE_1353
 82 86 0 0 0
SMALL
GASTEIGER

@<TRIPOS>ATOM
      1 C          -3.9784   -2.6102   -1.3670 C.3     1  LIG1       -0.0572
      2 C          -2.8994   -2.3101   -0.2529 C.3     1  LIG1       -0.0056
      3 C          -2.8884   -3.5681    0.6465 C.3     1  LIG1        0.0606
      4 O          -4.0680   -3.6522    1.4418 O.3     1  LIG1       -0.3912
      5 C          -1.6495   -3.7017    1.5322 C.3     1  LIG1       -0.0258
      6 C          -0.2782   -3.6033    0.7251 C.3     1  LIG1       -0.0447
      7 C          -0.1179   -2.1394    0.1047 C.3     1  LIG1       -0.0250
      8 C          -1.4498   -2.1504   -0.8290 C.3     1  LIG1       -0.0278
      9 C          -1.4633   -1.1422   -1.9340 C.3     1  LIG1       -0.0486
     10 C          -0.1937   -1.2383   -2.6667 C.3     1  LIG1       -0.0463
     11 C           1.1274   -0.5831   -2.1677 C.3     1  LIG1       -0.0193
     12 C           1.3449   -1.6882   -0.8492 C.3     1  LIG1       -0.0257
     13 C           2.5505   -1.2735    0.0595 C.3     1  LIG1       -0.0306
     14 C           2.7600    0.2328    0.2634 C.2     1  LIG1       -0.0836
     15 C           2.0068    1.1481   -0.2491 C.2     1  LIG1       -0.0630
     16 C           1.7121    0.9492   -1.7543 C.3     1  LIG1       -0.0028
     17 C           0.8554    2.1232   -2.2313 C.3     1  LIG1       -0.0167
     18 C          -0.3520    2.2219   -1.3158 C.3     1  LIG1        0.0620
     19 H          -0.7762    1.2379   -1.3169 H       1  LIG1        0.0599
     20 C          -0.0246    2.5817    0.1980 C.3     1  LIG1        0.0007
     21 C           1.5291    2.5422    0.4106 C.3     1  LIG1       -0.0088
     22 C           1.9681    2.7980    1.9103 C.3     1  LIG1       -0.0342
     23 H           3.0656    2.7900    1.9149 H       1  LIG1        0.0307
     24 C           1.4264    1.7710    2.9113 C.3     1  LIG1       -0.0407
     25 H           1.3351    2.2573    3.8960 H       1  LIG1        0.0301
     26 C          -0.0526    1.4339    2.5965 C.3     1  LIG1       -0.0496
     27 C          -0.5888    1.4921    1.1314 C.3     1  LIG1       -0.0445
     28 C           2.4926    0.7330    3.3058 C.3     1  LIG1       -0.0622
     29 C           1.5687    4.1661    2.5203 C.3     1  LIG1       -0.0616
     30 C          -0.8001    3.8604    0.5423 C.3     1  LIG1       -0.0567
     31 O          -1.3223    3.0499   -1.9401 O.3     1  LIG1       -0.3912
     32 C           3.1868    1.1709   -2.3787 C.3     1  LIG1       -0.0552
     33 C           1.6337   -0.6076   -3.7018 C.3     1  LIG1       -0.0585
     34 C          -0.0475   -1.4226    1.4815 C.3     1  LIG1       -0.0590
     35 H          -2.8845   -4.4588    0.0035 H       1  LIG1        0.0599
     36 C          -3.3749   -0.9858    0.3751 C.3     1  LIG1       -0.0572
     37 H          -3.8488   -3.6059   -1.8046 H       1  LIG1        0.0236
     38 H          -3.9826   -1.8913   -2.1911 H       1  LIG1        0.0236
     39 H          -4.9948   -2.5555   -0.9586 H       1  LIG1        0.0236
     40 H          -4.8370   -3.4949    0.8666 H       1  LIG1        0.2098
     41 H          -1.6992   -4.6500    2.0792 H       1  LIG1        0.0290
     42 H          -1.7417   -2.9514    2.3286 H       1  LIG1        0.0290
     43 H          -0.2611   -4.3749   -0.0491 H       1  LIG1        0.0271
     44 H           0.5396   -3.8517    1.4140 H       1  LIG1        0.0271
     45 H          -1.3314   -3.1039   -1.3749 H       1  LIG1        0.0312
     46 H          -1.7946   -0.1560   -1.6603 H       1  LIG1        0.0268
     47 H          -2.1920   -1.4608   -2.6866 H       1  LIG1        0.0268
     48 H          -0.4845   -1.1302   -3.7194 H       1  LIG1        0.0271
     49 H           0.0662   -2.3220   -2.7131 H       1  LIG1        0.0271
     50 H           1.6473   -2.6457   -1.2900 H       1  LIG1        0.0315
     51 H           3.4673   -1.7170   -0.3219 H       1  LIG1        0.0310
     52 H           2.4397   -1.7026    1.0576 H       1  LIG1        0.0310
     53 H           3.8602    0.4177    0.1740 H       1  LIG1        0.0572
     54 H           0.5692    2.0190   -3.2822 H       1  LIG1        0.0299
     55 H           1.4100    3.0755   -2.2039 H       1  LIG1        0.0299
     56 H           1.9805    3.3654   -0.1564 H       1  LIG1        0.0355
     57 H          -0.6505    2.1934    3.1167 H       1  LIG1        0.0268
     58 H          -0.3400    0.5102    3.1077 H       1  LIG1        0.0268
     59 H          -1.6822    1.5459    1.1718 H       1  LIG1        0.0272
     60 H          -0.4106    0.5720    0.5948 H       1  LIG1        0.0272
     61 H           3.3266    1.2700    3.7876 H       1  LIG1        0.0233
     62 H           2.9710    0.1942    2.5000 H       1  LIG1        0.0233
     63 H           2.1315   -0.0036    4.0250 H       1  LIG1        0.0233
     64 H           0.6138    4.1196    3.0632 H       1  LIG1        0.0233
     65 H           1.5097    4.9729    1.7917 H       1  LIG1        0.0233
     66 H           2.2965    4.4423    3.2939 H       1  LIG1        0.0233
     67 H          -0.4546    4.7144   -0.0419 H       1  LIG1        0.0236
     68 H          -0.7834    4.1082    1.5997 H       1  LIG1        0.0236
     69 H          -1.8691    3.7125    0.3250 H       1  LIG1        0.0236
     70 H          -2.1551    2.5447   -1.9467 H       1  LIG1        0.2098
     71 H           3.8775    1.7414   -1.7467 H       1  LIG1        0.0238
     72 H           3.1548    1.7288   -3.3266 H       1  LIG1        0.0238
     73 H           3.6944    0.2105   -2.5540 H       1  LIG1        0.0238
     74 H           0.8445   -0.1029   -4.3112 H       1  LIG1        0.0235
     75 H           1.8074   -1.5978   -4.1155 H       1  LIG1        0.0235
     76 H           2.4234    0.0431   -4.0565 H       1  LIG1        0.0235
     77 H          -1.0130   -1.0886    1.8581 H       1  LIG1        0.0235
     78 H           0.6671   -0.6174    1.4932 H       1  LIG1        0.0235
     79 H           0.3746   -2.0398    2.2930 H       1  LIG1        0.0235
     80 H          -2.5510   -0.4039    0.7711 H       1  LIG1        0.0236
     81 H          -4.1122   -1.1206    1.1677 H       1  LIG1        0.0236
     82 H          -3.8367   -0.3373   -0.3853 H       1  LIG1        0.0236
@<TRIPOS>BOND
     1     2     3    1
     2     3     5    1
     3     5     6    1
     4     6     7    1
     5     7     8    1
     6     8     9    1
     7     9    10    1
     8    10    11    1
     9    11    12    1
    10    12    13    1
    11    13    14    1
    12    14    15    2
    13    15    16    1
    14    16    17    1
    15    17    18    1
    16    18    20    1
    17    20    21    1
    18    15    21    1
    19    21    22    1
    20    22    24    1
    21    24    26    1
    22    26    27    1
    23    27    20    1
    24    11    16    1
    25    12     7    1
    26     8     2    1
    27     1     2    1
    28     2    36    1
    29     3     4    1
    30     3    35    1
    31     7    34    1
    32    11    33    1
    33    16    32    1
    34    20    30    1
    35    24    25    1
    36    24    28    1
    37    18    31    1
    38    18    19    1
    39    22    29    1
    40    22    23    1
    41     1    37    1
    42     1    38    1
    43     1    39    1
    44     4    40    1
    45     5    41    1
    46     5    42    1
    47     6    43    1
    48     6    44    1
    49     8    45    1
    50     9    46    1
    51     9    47    1
    52    10    48    1
    53    10    49    1
    54    12    50    1
    55    13    51    1
    56    13    52    1
    57    14    53    1
    58    17    54    1
    59    17    55    1
    60    21    56    1
    61    26    57    1
    62    26    58    1
    63    27    59    1
    64    27    60    1
    65    28    61    1
    66    28    62    1
    67    28    63    1
    68    29    64    1
    69    29    65    1
    70    29    66    1
    71    30    67    1
    72    30    68    1
    73    30    69    1
    74    31    70    1
    75    32    71    1
    76    32    72    1
    77    32    73    1
    78    33    74    1
    79    33    75    1
    80    33    76    1
    81    34    77    1
    82    34    78    1
    83    34    79    1
    84    36    80    1
    85    36    81    1
    86    36    82    1
