REMARK  Name = NuBBE_1381
REMARK  7 active torsions:
REMARK  status: ('A' for Active; 'I' for Inactive)
REMARK    1  A    between atoms: C_1  and  C_2
REMARK    2  A    between atoms: C_2  and  C_3
REMARK    3  A    between atoms: C_4  and  C_5
REMARK    4  A    between atoms: C_5  and  C_6
REMARK    5  A    between atoms: C_6  and  C_7
REMARK    6  A    between atoms: C_7  and  C_8
REMARK    7  A    between atoms: C_9  and  C_10
REMARK                            x       y       z     vdW  Elec       q    Type
REMARK                         _______ _______ _______ _____ _____    ______ ____
ROOT
ATOM      1  C   LIG A   1       0.618   0.655   0.791  0.00  0.00    +0.034 C 
ENDROOT
BRANCH   1   2
ATOM      2  C   LIG A   1       2.116   0.834   0.651  0.00  0.00    -0.069 C 
ATOM      3  C   LIG A   1       2.547   1.721  -0.489  0.00  0.00    +0.039 C 
ATOM      4  C   LIG A   1       3.045   0.293   1.463  0.00  0.00    +0.041 C 
BRANCH   4   5
ATOM      5  C   LIG A   1       2.768  -0.606   2.605  0.00  0.00    +0.251 C 
ATOM      6  O   LIG A   1       3.679  -1.046   3.297  0.00  0.00    -0.296 OA
ENDBRANCH   4   5
ENDBRANCH   1   2
BRANCH   1   7
ATOM      7  C   LIG A   1       0.090  -0.530  -0.030  0.00  0.00    +0.031 C 
BRANCH   7  11
ATOM      8  C   LIG A   1      -3.802  -0.824  -0.484  0.00  0.00    +0.038 C 
ATOM      9  C   LIG A   1      -2.347  -0.633  -0.833  0.00  0.00    -0.080 C 
ATOM     10  C   LIG A   1      -2.099  -0.397  -2.297  0.00  0.00    +0.038 C 
ATOM     11  C   LIG A   1      -1.400  -0.685   0.125  0.00  0.00    -0.028 C 
ENDBRANCH   7  11
ENDBRANCH   1   7
TORSDOF 4
