@<TRIPOS>MOLECULE
NuBBE_1692
 56 59 0 0 0
SMALL
GASTEIGER

@<TRIPOS>ATOM
      1 C           3.2467   -0.6805   -1.5957 C.3     1  LIG1        0.0788
      2 O           2.3586   -1.5579   -0.9242 O.3     1  LIG1       -0.4936
      3 C           1.4697   -1.0203   -0.0185 C.ar    1  LIG1        0.1450
      4 C           1.0666   -1.9203    1.0118 C.ar    1  LIG1        0.0590
      5 C           1.6384   -3.2917    1.0097 C.2     1  LIG1       -0.0488
      6 C           2.7276   -3.6339    1.7277 C.2     1  LIG1       -0.0526
      7 C           3.2902   -5.0273    1.9247 C.3     1  LIG1        0.0789
      8 C           4.7966   -4.9240    2.1695 C.3     1  LIG1       -0.0327
      9 O           2.6844   -5.6094    3.0846 O.3     1  LIG1       -0.3851
     10 C           3.0062   -5.9732    0.7595 C.3     1  LIG1       -0.0327
     11 C           0.1168   -1.4943    1.9789 C.ar    1  LIG1        0.1342
     12 O          -0.3065   -2.1791    3.0995 O.3     1  LIG1       -0.4943
     13 C           0.6329   -3.0671    3.6955 C.3     1  LIG1        0.0788
     14 C          -0.5436   -0.2656    1.8047 C.ar    1  LIG1        0.0239
     15 C          -0.2070    0.5713    0.7444 C.ar    1  LIG1        0.1463
     16 O          -0.9765    1.7038    0.5448 O.2     1  LIG1       -0.4544
     17 C          -0.8707    2.3091   -0.7043 C.ar    1  LIG1        0.1395
     18 C          -1.9706    3.2124   -1.0665 C.ar    1  LIG1        0.0245
     19 C          -3.0899    2.7102   -1.7675 C.ar    1  LIG1       -0.0054
     20 C          -4.1235    3.5597   -2.1888 C.ar    1  LIG1        0.1660
     21 O          -5.1564    2.9624   -2.8551 O.3     1  LIG1       -0.4913
     22 C          -5.8688    3.7960   -3.7666 C.3     1  LIG1        0.0790
     23 C          -4.0152    4.9014   -1.8673 C.ar    1  LIG1        0.2076
     24 O          -4.9068    5.8912   -2.1478 O.3     1  LIG1       -0.4489
     25 C          -4.2519    7.0442   -1.6013 C.3     1  LIG1        0.2334
     26 O          -3.0017    6.7329   -0.9614 O.3     1  LIG1       -0.4524
     27 C          -2.9267    5.3901   -1.1778 C.ar    1  LIG1        0.1706
     28 C          -1.8884    4.5791   -0.7702 C.ar    1  LIG1       -0.0052
     29 C           0.1840    2.1749   -1.5135 C.ar    1  LIG1        0.0288
     30 C           0.8679    0.2518   -0.0914 C.ar    1  LIG1        0.1063
     31 C           1.2542    1.3752   -0.9558 C.ar    1  LIG1        0.1966
     32 O           2.4270    1.7651   -1.1150 O.2     1  LIG1       -0.2869
     33 H           2.7164   -0.1205   -2.3716 H       1  LIG1        0.0660
     34 H           4.0023   -1.2671   -2.1206 H       1  LIG1        0.0660
     35 H           3.7799   -0.0501   -0.8763 H       1  LIG1        0.0660
     36 H           1.0380   -4.0394    0.4960 H       1  LIG1        0.0624
     37 H           3.2075   -2.8521    2.3145 H       1  LIG1        0.0600
     38 H           5.0117   -4.2942    3.0428 H       1  LIG1        0.0260
     39 H           5.3072   -4.4930    1.3030 H       1  LIG1        0.0260
     40 H           5.2300   -5.9056    2.3887 H       1  LIG1        0.0260
     41 H           3.0776   -5.2149    3.8797 H       1  LIG1        0.2106
     42 H           3.4289   -5.5874   -0.1731 H       1  LIG1        0.0260
     43 H           1.9301   -6.1304    0.6210 H       1  LIG1        0.0260
     44 H           3.4278   -6.9665    0.9515 H       1  LIG1        0.0260
     45 H           0.2346   -3.5162    4.6069 H       1  LIG1        0.0660
     46 H           1.5633   -2.5435    3.9535 H       1  LIG1        0.0660
     47 H           0.7781   -3.9332    3.0584 H       1  LIG1        0.0660
     48 H          -1.3168    0.0519    2.5028 H       1  LIG1        0.0691
     49 H          -3.1480    1.6486   -2.0041 H       1  LIG1        0.0662
     50 H          -6.6635    3.1994   -4.2231 H       1  LIG1        0.0660
     51 H          -5.2050    4.1475   -4.5641 H       1  LIG1        0.0660
     52 H          -6.3726    4.6290   -3.2719 H       1  LIG1        0.0660
     53 H          -4.9238    7.5110   -0.8726 H       1  LIG1        0.1166
     54 H          -4.0686    7.7540   -2.4161 H       1  LIG1        0.1166
     55 H          -1.0392    4.9989   -0.2409 H       1  LIG1        0.0662
     56 H           0.3404    2.6876   -2.4509 H       1  LIG1        0.0693
@<TRIPOS>BOND
     1     1     2    1
     2     2     3    1
     3     3     4   ar
     4     4     5    1
     5     5     6    2
     6     6     7    1
     7     7     8    1
     8     7     9    1
     9     7    10    1
    10     4    11   ar
    11    11    12    1
    12    12    13    1
    13    11    14   ar
    14    14    15   ar
    15    15    16   ar
    16    16    17   ar
    17    17    18    1
    18    18    19   ar
    19    19    20   ar
    20    20    21    1
    21    21    22    1
    22    20    23   ar
    23    23    24    1
    24    24    25    1
    25    25    26    1
    26    23    27   ar
    27    26    27    1
    28    27    28   ar
    29    18    28   ar
    30    17    29   ar
    31    15    30   ar
    32     3    30   ar
    33    30    31   ar
    34    29    31   ar
    35    31    32    2
    36     1    33    1
    37     1    34    1
    38     1    35    1
    39     5    36    1
    40     6    37    1
    41     8    38    1
    42     8    39    1
    43     8    40    1
    44     9    41    1
    45    10    42    1
    46    10    43    1
    47    10    44    1
    48    13    45    1
    49    13    46    1
    50    13    47    1
    51    14    48    1
    52    19    49    1
    53    22    50    1
    54    22    51    1
    55    22    52    1
    56    25    53    1
    57    25    54    1
    58    28    55    1
    59    29    56    1
