@<TRIPOS>MOLECULE
NuBBE_1184
 60 64 0 0 0
SMALL
GASTEIGER

@<TRIPOS>ATOM
      1 O          -5.5978   -3.3419   -2.5045 O.3     1  LIG1       -0.5009
      2 C          -4.3546   -3.8330   -2.2156 C.ar    1  LIG1        0.2024
      3 C          -4.1372   -5.2128   -2.1544 C.ar    1  LIG1        0.1658
      4 C          -2.8526   -5.6913   -1.8691 C.ar    1  LIG1       -0.0015
      5 C          -1.8050   -4.7899   -1.6130 C.ar    1  LIG1        0.0744
      6 C          -2.0412   -3.4208   -1.6466 C.ar    1  LIG1        0.0468
      7 C          -3.3114   -2.9530   -1.9670 C.ar    1  LIG1        0.1854
      8 O          -3.5675   -1.5669   -2.0279 O.2     1  LIG1       -0.4178
      9 C          -2.5996   -0.6152   -1.7460 C.ar    1  LIG1        0.3454
     10 O          -2.8290    0.5885   -1.7956 O.2     1  LIG1       -0.2445
     11 C          -0.4413   -5.2867   -1.2948 C.ar    1  LIG1        0.3454
     12 O           0.4989   -4.3273   -0.9010 O.2     1  LIG1       -0.4178
     13 C           0.2441   -2.9254   -0.8942 C.ar    1  LIG1        0.1856
     14 C          -1.0098   -2.4865   -1.3113 C.ar    1  LIG1        0.0468
     15 C          -1.2681   -1.1286   -1.3556 C.ar    1  LIG1        0.0744
     16 C          -0.2764   -0.2228   -0.9984 C.ar    1  LIG1       -0.0013
     17 C           0.9614   -0.6494   -0.5025 C.ar    1  LIG1        0.1699
     18 O           1.8984    0.2639   -0.0963 O.3     1  LIG1       -0.4570
     19 C           1.4506    1.5195    0.4520 C.3     1  LIG1        0.2310
     20 H           0.6199    1.9345   -0.1186 H       1  LIG1        0.1084
     21 O           2.5364    2.4513    0.3026 O.3     1  LIG1       -0.3302
     22 C           2.2488    3.7482    0.8468 C.3     1  LIG1        0.1250
     23 H           1.3243    4.1287    0.3966 H       1  LIG1        0.0658
     24 C           2.0529    3.6148    2.3638 C.3     1  LIG1        0.1130
     25 H           2.9309    3.1468    2.8259 H       1  LIG1        0.0647
     26 C           0.8334    2.7202    2.5837 C.3     1  LIG1        0.1152
     27 H          -0.0730    3.1963    2.1853 H       1  LIG1        0.0648
     28 C           1.0437    1.3517    1.9366 C.3     1  LIG1        0.1454
     29 H           1.8143    0.7951    2.4832 H       1  LIG1        0.0683
     30 O          -0.1737    0.6003    2.0742 O.3     1  LIG1       -0.3829
     31 O           0.5969    2.5547    3.9900 O.3     1  LIG1       -0.3864
     32 O           1.8125    4.8476    3.0450 O.3     1  LIG1       -0.3864
     33 C           3.4097    4.6784    0.4669 C.3     1  LIG1        0.1212
     34 O           3.3142    6.0019    1.0148 O.3     1  LIG1       -0.4621
     35 C           2.2467    6.7414    0.5867 C.2     1  LIG1        0.3040
     36 C           2.2620    8.0879    1.2390 C.3     1  LIG1        0.0332
     37 O           1.3808    6.3630   -0.1720 O.2     1  LIG1       -0.2512
     38 C           1.2485   -2.0312   -0.4642 C.ar    1  LIG1        0.2050
     39 O           2.4004   -2.6338   -0.0272 O.3     1  LIG1       -0.4885
     40 C           3.4587   -1.8145    0.4516 C.3     1  LIG1        0.0791
     41 O          -0.1737   -6.4791   -1.3682 O.2     1  LIG1       -0.2445
     42 O          -5.2505   -5.9782   -2.3851 O.3     1  LIG1       -0.4913
     43 C          -5.0848   -7.3863   -2.2647 C.3     1  LIG1        0.0790
     44 H          -6.1703   -4.1208   -2.6390 H       1  LIG1        0.2924
     45 H          -2.6395   -6.7557   -1.8268 H       1  LIG1        0.0664
     46 H          -0.5235    0.8254   -1.1104 H       1  LIG1        0.0664
     47 H          -0.4187    0.6757    3.0184 H       1  LIG1        0.2102
     48 H           0.5988    3.4667    4.3479 H       1  LIG1        0.2100
     49 H           2.6841    5.2504    3.2191 H       1  LIG1        0.2100
     50 H           3.5298    4.7365   -0.6231 H       1  LIG1        0.0724
     51 H           4.3479    4.2472    0.8380 H       1  LIG1        0.0724
     52 H           3.2852    8.4579    1.3258 H       1  LIG1        0.0342
     53 H           1.7969    8.0229    2.2289 H       1  LIG1        0.0342
     54 H           1.7004    8.7866    0.6140 H       1  LIG1        0.0342
     55 H           4.2171   -2.4621    0.9020 H       1  LIG1        0.0660
     56 H           3.1266   -1.1421    1.2479 H       1  LIG1        0.0660
     57 H           3.9309   -1.2736   -0.3752 H       1  LIG1        0.0660
     58 H          -6.0603   -7.8528   -2.4287 H       1  LIG1        0.0660
     59 H          -4.7480   -7.6604   -1.2593 H       1  LIG1        0.0660
     60 H          -4.3985   -7.7615   -3.0304 H       1  LIG1        0.0660
@<TRIPOS>BOND
     1     1     2    1
     2     2     3   ar
     3     3     4   ar
     4     4     5   ar
     5     5     6   ar
     6     6     7   ar
     7     2     7   ar
     8     7     8   ar
     9     8     9   ar
    10     9    10    2
    11     5    11   ar
    12    11    12   ar
    13    12    13   ar
    14    13    14   ar
    15     6    14   ar
    16    14    15   ar
    17     9    15   ar
    18    15    16   ar
    19    16    17   ar
    20    17    18    1
    21    18    19    1
    22    19    20    1
    23    19    21    1
    24    21    22    1
    25    22    23    1
    26    22    24    1
    27    24    26    1
    28    26    27    1
    29    26    28    1
    30    19    28    1
    31    26    31    1
    32    22    33    1
    33    33    34    1
    34    34    35    1
    35    35    36    1
    36    35    37    2
    37    17    38   ar
    38    13    38   ar
    39    38    39    1
    40    39    40    1
    41    11    41    2
    42     3    42    1
    43    42    43    1
    44    24    32    1
    45    24    25    1
    46    28    30    1
    47    28    29    1
    48     1    44    1
    49     4    45    1
    50    16    46    1
    51    30    47    1
    52    31    48    1
    53    32    49    1
    54    33    50    1
    55    33    51    1
    56    36    52    1
    57    36    53    1
    58    36    54    1
    59    40    55    1
    60    40    56    1
    61    40    57    1
    62    43    58    1
    63    43    59    1
    64    43    60    1
