@<TRIPOS>MOLECULE
NuBBE_1059
 78 81 0 0 0
SMALL
GASTEIGER

@<TRIPOS>ATOM
      1 C          -0.0699   -1.9705   -1.7212 C.3     1  LIG1       -0.0590
      2 C          -0.7571   -0.6420   -1.3723 C.3     1  LIG1       -0.0256
      3 C          -0.8648    0.3185   -2.5817 C.3     1  LIG1       -0.0323
      4 C          -1.9989    1.2861   -2.1709 C.3     1  LIG1       -0.0492
      5 C          -2.9153    0.5010   -1.2288 C.3     1  LIG1       -0.0489
      6 C          -2.2767   -0.8916   -1.1004 C.3     1  LIG1       -0.0294
      7 H          -2.6412   -1.4542   -1.9778 H       1  LIG1        0.0312
      8 C          -2.7295   -1.7434    0.1203 C.3     1  LIG1       -0.0224
      9 H          -2.2179   -2.7123    0.0455 H       1  LIG1        0.0343
     10 C          -2.4679   -1.1661    1.4948 C.2     1  LIG1       -0.0845
     11 C          -2.1721   -1.9025    2.5833 C.2     1  LIG1       -0.0843
     12 C          -1.9701   -1.3171    3.9730 C.3     1  LIG1       -0.0208
     13 H          -2.0684   -0.2244    3.9060 H       1  LIG1        0.0345
     14 C          -0.5405   -1.6342    4.5177 C.3     1  LIG1       -0.0405
     15 C           0.5675   -1.1835    3.5573 C.3     1  LIG1       -0.0621
     16 C          -0.2872   -0.9866    5.8866 C.3     1  LIG1       -0.0621
     17 C          -3.0552   -1.8110    4.9652 C.3     1  LIG1       -0.0494
     18 C          -4.4906   -1.5690    4.5178 C.3     1  LIG1       -0.0647
     19 C          -4.2374   -2.0329    0.0135 C.3     1  LIG1       -0.0587
     20 H          -1.2393   -0.2372   -3.4546 H       1  LIG1        0.0309
     21 C           0.4190    1.0658   -3.0002 C.3     1  LIG1       -0.0344
     22 H           0.0472    1.9137   -3.5950 H       1  LIG1        0.0306
     23 C           1.2173    1.6722   -1.8183 C.3     1  LIG1       -0.0322
     24 C           2.5861    2.2825   -2.3158 C.3     1  LIG1       -0.0254
     25 C           3.5035    1.1844   -2.9533 C.3     1  LIG1       -0.0287
     26 C           4.6031    0.6021   -2.0454 C.3     1  LIG1        0.0092
     27 C           5.2396    1.6444   -1.1772 C.2     1  LIG1        0.1337
     28 C           4.2936    2.4232   -0.3173 C.3     1  LIG1        0.0063
     29 C           3.2942    3.1326   -1.2103 C.3     1  LIG1       -0.0404
     30 O           6.4636    1.7796   -1.1008 O.2     1  LIG1       -0.2974
     31 H           4.0420    1.6648   -3.7838 H       1  LIG1        0.0310
     32 C           2.7260   -0.0083   -3.5550 C.3     1  LIG1       -0.0491
     33 C           1.2885    0.2540   -3.9858 C.3     1  LIG1       -0.0494
     34 C           2.2658    3.3339   -3.4358 C.3     1  LIG1       -0.0590
     35 H           0.6212    2.5153   -1.4389 H       1  LIG1        0.0309
     36 C           1.3328    0.6874   -0.6388 C.3     1  LIG1       -0.0489
     37 C          -0.0007    0.0514   -0.2220 C.3     1  LIG1       -0.0468
     38 H          -0.5741   -2.4804   -2.5493 H       1  LIG1        0.0235
     39 H          -0.0745   -2.6497   -0.8618 H       1  LIG1        0.0235
     40 H           0.9730   -1.8353   -2.0080 H       1  LIG1        0.0235
     41 H          -2.5460    1.6433   -3.0503 H       1  LIG1        0.0268
     42 H          -1.6192    2.1729   -1.6517 H       1  LIG1        0.0268
     43 H          -3.9304    0.4365   -1.6352 H       1  LIG1        0.0268
     44 H          -2.9839    1.0223   -0.2695 H       1  LIG1        0.0268
     45 H          -2.5863   -0.0920    1.6096 H       1  LIG1        0.0572
     46 H          -2.0845   -2.9841    2.4918 H       1  LIG1        0.0572
     47 H          -0.4434   -2.7212    4.6439 H       1  LIG1        0.0301
     48 H           0.4616   -0.1255    3.2957 H       1  LIG1        0.0233
     49 H           0.5577   -1.7740    2.6365 H       1  LIG1        0.0233
     50 H           1.5556   -1.3223    4.0100 H       1  LIG1        0.0233
     51 H          -0.4985    0.0877    5.8607 H       1  LIG1        0.0233
     52 H           0.7548   -1.1188    6.1974 H       1  LIG1        0.0233
     53 H          -0.9045   -1.4418    6.6667 H       1  LIG1        0.0233
     54 H          -2.9349   -1.2870    5.9207 H       1  LIG1        0.0268
     55 H          -2.9220   -2.8796    5.1752 H       1  LIG1        0.0268
     56 H          -4.6454   -0.5243    4.2316 H       1  LIG1        0.0230
     57 H          -5.1789   -1.7969    5.3397 H       1  LIG1        0.0230
     58 H          -4.7597   -2.2120    3.6755 H       1  LIG1        0.0230
     59 H          -4.5562   -2.7445    0.7837 H       1  LIG1        0.0235
     60 H          -4.4864   -2.4735   -0.9584 H       1  LIG1        0.0235
     61 H          -4.8343   -1.1222    0.1351 H       1  LIG1        0.0235
     62 H           5.3783    0.1306   -2.6613 H       1  LIG1        0.0344
     63 H           4.2186   -0.1721   -1.3721 H       1  LIG1        0.0344
     64 H           4.8600    3.1593    0.2642 H       1  LIG1        0.0342
     65 H           3.8198    1.7411    0.3925 H       1  LIG1        0.0342
     66 H           3.8573    3.9450   -1.6927 H       1  LIG1        0.0275
     67 H           2.5448    3.6366   -0.5871 H       1  LIG1        0.0275
     68 H           2.7139   -0.8410   -2.8443 H       1  LIG1        0.0268
     69 H           3.2870   -0.3936   -4.4168 H       1  LIG1        0.0268
     70 H           0.8167   -0.7064   -4.2254 H       1  LIG1        0.0268
     71 H           1.3163    0.7902   -4.9435 H       1  LIG1        0.0268
     72 H           1.8612    2.8872   -4.3466 H       1  LIG1        0.0235
     73 H           3.1716    3.8682   -3.7488 H       1  LIG1        0.0235
     74 H           1.5489    4.0817   -3.0778 H       1  LIG1        0.0235
     75 H           1.7175    1.2203    0.2366 H       1  LIG1        0.0268
     76 H           2.0480   -0.1082   -0.8516 H       1  LIG1        0.0268
     77 H          -0.6157    0.8340    0.2356 H       1  LIG1        0.0271
     78 H           0.2059   -0.6765    0.5695 H       1  LIG1        0.0271
@<TRIPOS>BOND
     1     2     3    1
     2     3     4    1
     3     4     5    1
     4     5     6    1
     5     2     6    1
     6     8     9    1
     7     8    10    1
     8    10    11    2
     9    12    14    1
    10    14    15    1
    11    14    16    1
    12    12    17    1
    13    17    18    1
    14     8    19    1
    15     3    21    1
    16    21    23    1
    17    23    24    1
    18    24    25    1
    19    25    26    1
    20    26    27    1
    21    27    28    1
    22    28    29    1
    23    25    32    1
    24    32    33    1
    25    21    33    1
    26    29    24    1
    27    23    36    1
    28    36    37    1
    29     2    37    1
    30     1     2    1
    31     3    20    1
    32     6     7    1
    33     6     8    1
    34    21    22    1
    35    23    35    1
    36    24    34    1
    37    25    31    1
    38    27    30    2
    39    12    13    1
    40    12    11    1
    41     1    38    1
    42     1    39    1
    43     1    40    1
    44     4    41    1
    45     4    42    1
    46     5    43    1
    47     5    44    1
    48    10    45    1
    49    11    46    1
    50    14    47    1
    51    15    48    1
    52    15    49    1
    53    15    50    1
    54    16    51    1
    55    16    52    1
    56    16    53    1
    57    17    54    1
    58    17    55    1
    59    18    56    1
    60    18    57    1
    61    18    58    1
    62    19    59    1
    63    19    60    1
    64    19    61    1
    65    26    62    1
    66    26    63    1
    67    28    64    1
    68    28    65    1
    69    29    66    1
    70    29    67    1
    71    32    68    1
    72    32    69    1
    73    33    70    1
    74    33    71    1
    75    34    72    1
    76    34    73    1
    77    34    74    1
    78    36    75    1
    79    36    76    1
    80    37    77    1
    81    37    78    1
