REMARK  Name = NuBBE_1403
REMARK  4 active torsions:
REMARK  status: ('A' for Active; 'I' for Inactive)
REMARK    1  A    between atoms: C_1  and  C_2
REMARK    2  A    between atoms: C_1  and  C_3
REMARK    3  A    between atoms: C_1  and  C_4
REMARK    4  A    between atoms: C_16  and  C_18
REMARK                            x       y       z     vdW  Elec       q    Type
REMARK                         _______ _______ _______ _____ _____    ______ ____
ROOT
ATOM      1  C   LIG A   1       0.188  -0.021  -1.040  0.00  0.00    -0.001 C 
ATOM      2  C   LIG A   1       0.480   0.153   0.489  0.00  0.00    +0.022 C 
ATOM      3  C   LIG A   1      -0.030  -1.044   1.343  0.00  0.00    +0.022 C 
ATOM      4  C   LIG A   1       0.371  -2.376   0.744  0.00  0.00    -0.073 C 
ATOM      5  C   LIG A   1       0.977  -3.332   1.468  0.00  0.00    +0.008 C 
ATOM      6  C   LIG A   1       0.085  -2.550  -0.721  0.00  0.00    +0.031 C 
ATOM      7  C   LIG A   1       0.689  -1.400  -1.524  0.00  0.00    +0.009 C 
ATOM      8  C   LIG A   1      -1.548  -0.955   1.562  0.00  0.00    +0.013 C 
ATOM      9  C   LIG A   1      -1.926   0.338   2.288  0.00  0.00    +0.031 C 
ATOM     10  C   LIG A   1      -1.151   1.549   1.831  0.00  0.00    -0.076 C 
ATOM     11  C   LIG A   1      -0.081   1.456   1.021  0.00  0.00    -0.024 C 
ATOM     12  C   LIG A   1      -1.639   2.870   2.353  0.00  0.00    +0.038 C 
ENDROOT
BRANCH   1  13
ATOM     13  C   LIG A   1       0.727   1.152  -1.923  0.00  0.00    -0.013 C 
ATOM     14  C   LIG A   1       0.270   1.029  -3.383  0.00  0.00    +0.007 C 
ATOM     15  C   LIG A   1       2.247   1.324  -1.878  0.00  0.00    +0.007 C 
ENDBRANCH   1  13
TORSDOF 1
