@<TRIPOS>MOLECULE
NuBBE_1354
 82 86 0 0 0
SMALL
GASTEIGER

@<TRIPOS>ATOM
      1 C          -4.1435   -2.5797   -1.5050 C.3     1  LIG1       -0.0572
      2 C          -3.0942   -2.2425   -0.3892 C.3     1  LIG1       -0.0056
      3 C          -3.0186   -3.5380    0.4819 C.3     1  LIG1        0.0606
      4 O          -4.1875   -3.7600    1.2668 O.3     1  LIG1       -0.3912
      5 C          -1.7773   -3.7382    1.3554 C.3     1  LIG1       -0.0258
      6 C          -0.4133   -3.4157    0.6357 C.3     1  LIG1       -0.0447
      7 C          -0.4275   -1.9706    0.0032 C.3     1  LIG1       -0.0250
      8 C          -1.6667   -2.0458   -0.9796 C.3     1  LIG1       -0.0278
      9 C          -1.6486   -0.9659   -2.0280 C.3     1  LIG1       -0.0486
     10 C          -0.3882   -1.0866   -2.7916 C.3     1  LIG1       -0.0463
     11 C           0.9701   -0.4996   -2.2844 C.3     1  LIG1       -0.0193
     12 C           1.0727   -1.5614   -0.8909 C.3     1  LIG1       -0.0257
     13 C           2.1821   -1.2253    0.1241 C.3     1  LIG1       -0.0306
     14 C           2.8459    0.1142   -0.0161 C.2     1  LIG1       -0.0836
     15 C           2.0796    1.0660   -0.4644 C.2     1  LIG1       -0.0632
     16 C           1.6366    0.9901   -1.9100 C.3     1  LIG1       -0.0028
     17 C           0.7063    2.1856   -2.2426 C.3     1  LIG1       -0.0167
     18 C          -0.3188    2.3133   -1.1019 C.3     1  LIG1        0.0619
     19 H          -0.7532    1.3303   -0.9716 H       1  LIG1        0.0599
     20 C           0.2861    2.7578    0.2710 C.3     1  LIG1        0.0005
     21 C           1.8271    2.4077    0.2952 C.3     1  LIG1       -0.0111
     22 C           2.4968    2.4638    1.6737 C.3     1  LIG1       -0.0407
     23 C           1.8410    1.7622    2.8976 C.3     1  LIG1       -0.0343
     24 C           2.2087    0.2890    3.2065 C.3     1  LIG1       -0.0598
     25 C           0.3144    1.9825    2.8146 C.3     1  LIG1       -0.0473
     26 C          -0.3383    1.9423    1.4047 C.3     1  LIG1       -0.0442
     27 C           2.5010    2.4466    4.1421 C.3     1  LIG1       -0.0598
     28 C          -0.1179    4.2178    0.5645 C.3     1  LIG1       -0.0567
     29 O          -1.3941    3.1297   -1.5586 O.3     1  LIG1       -0.3912
     30 C           3.0475    1.2957   -2.6419 C.3     1  LIG1       -0.0552
     31 C           1.5184   -0.6278   -3.8023 C.3     1  LIG1       -0.0585
     32 C          -0.6537   -1.1869    1.3349 C.3     1  LIG1       -0.0590
     33 H          -2.9742   -4.3907   -0.2123 H       1  LIG1        0.0599
     34 C          -3.6548   -0.9394    0.2320 C.3     1  LIG1       -0.0572
     35 H          -3.9238   -3.5289   -2.0042 H       1  LIG1        0.0236
     36 H          -4.2137   -1.8117   -2.2784 H       1  LIG1        0.0236
     37 H          -5.1529   -2.6547   -1.0741 H       1  LIG1        0.0236
     38 H          -4.7761   -2.9928    1.1967 H       1  LIG1        0.2098
     39 H          -1.7493   -4.7535    1.7351 H       1  LIG1        0.0290
     40 H          -1.9362   -3.1422    2.2786 H       1  LIG1        0.0290
     41 H          -0.2099   -4.1729   -0.1190 H       1  LIG1        0.0271
     42 H           0.4017   -3.4999    1.3818 H       1  LIG1        0.0271
     43 H          -1.4992   -2.9869   -1.5308 H       1  LIG1        0.0312
     44 H          -1.8730    0.0289   -1.6901 H       1  LIG1        0.0268
     45 H          -2.4229   -1.1934   -2.7725 H       1  LIG1        0.0268
     46 H          -0.6837   -0.9274   -3.8352 H       1  LIG1        0.0271
     47 H          -0.1623   -2.1723   -2.8608 H       1  LIG1        0.0271
     48 H           1.3779   -2.5280   -1.3301 H       1  LIG1        0.0315
     49 H           2.9095   -2.0465    0.2281 H       1  LIG1        0.0310
     50 H           1.7642   -1.2013    1.1302 H       1  LIG1        0.0310
     51 H           3.7096   -0.1876   -0.6995 H       1  LIG1        0.0572
     52 H           0.2457    2.0687   -3.2215 H       1  LIG1        0.0299
     53 H           1.2698    3.1280   -2.3066 H       1  LIG1        0.0299
     54 H           2.3337    3.1871   -0.3060 H       1  LIG1        0.0352
     55 H           2.5229    3.5465    1.9187 H       1  LIG1        0.0276
     56 H           3.5556    2.1837    1.6023 H       1  LIG1        0.0276
     57 H           1.5073   -0.4487    2.8252 H       1  LIG1        0.0235
     58 H           2.1358    0.0724    4.2880 H       1  LIG1        0.0235
     59 H           3.2221    0.0164    2.9075 H       1  LIG1        0.0235
     60 H           0.0787    2.9644    3.2556 H       1  LIG1        0.0271
     61 H          -0.1935    1.2400    3.4458 H       1  LIG1        0.0271
     62 H          -1.4099    2.1116    1.4895 H       1  LIG1        0.0272
     63 H          -0.2645    0.9644    0.9897 H       1  LIG1        0.0272
     64 H           2.3763    3.5312    4.1350 H       1  LIG1        0.0235
     65 H           3.5748    2.2278    4.1435 H       1  LIG1        0.0235
     66 H           2.0879    2.0623    5.0835 H       1  LIG1        0.0235
     67 H           0.2374    4.9044   -0.2069 H       1  LIG1        0.0236
     68 H           0.2201    4.5593    1.5430 H       1  LIG1        0.0236
     69 H          -1.2118    4.2813    0.5837 H       1  LIG1        0.0236
     70 H          -2.0575    2.5505   -1.9773 H       1  LIG1        0.2098
     71 H           3.7370    1.8905   -2.0240 H       1  LIG1        0.0238
     72 H           2.9213    1.8542   -3.5669 H       1  LIG1        0.0238
     73 H           3.6041    0.3741   -2.8393 H       1  LIG1        0.0238
     74 H           0.7802   -0.1272   -4.4635 H       1  LIG1        0.0235
     75 H           1.6647   -1.6456   -4.1619 H       1  LIG1        0.0235
     76 H           2.3469   -0.0328   -4.1744 H       1  LIG1        0.0235
     77 H          -1.5872   -0.6483    1.4451 H       1  LIG1        0.0235
     78 H           0.1462   -0.5280    1.5644 H       1  LIG1        0.0235
     79 H          -0.5995   -1.7868    2.2582 H       1  LIG1        0.0235
     80 H          -2.8962   -0.1143    0.2652 H       1  LIG1        0.0236
     81 H          -4.0545   -1.0560    1.2286 H       1  LIG1        0.0236
     82 H          -4.4180   -0.4806   -0.3939 H       1  LIG1        0.0236
@<TRIPOS>BOND
     1     2     3    1
     2     3     5    1
     3     5     6    1
     4     6     7    1
     5     7     8    1
     6     8     9    1
     7     9    10    1
     8    10    11    1
     9    11    12    1
    10    12    13    1
    11    13    14    1
    12    14    15    2
    13    15    16    1
    14    16    17    1
    15    17    18    1
    16    18    20    1
    17    20    21    1
    18    15    21    1
    19    21    22    1
    20    22    23    1
    21    23    25    1
    22    25    26    1
    23    26    20    1
    24    11    16    1
    25    12     7    1
    26     8     2    1
    27     1     2    1
    28     2    34    1
    29     3     4    1
    30     3    33    1
    31     7    32    1
    32    11    31    1
    33    16    30    1
    34    20    28    1
    35    23    24    1
    36    23    27    1
    37    18    29    1
    38    18    19    1
    39     1    35    1
    40     1    36    1
    41     1    37    1
    42     4    38    1
    43     5    39    1
    44     5    40    1
    45     6    41    1
    46     6    42    1
    47     8    43    1
    48     9    44    1
    49     9    45    1
    50    10    46    1
    51    10    47    1
    52    12    48    1
    53    13    49    1
    54    13    50    1
    55    14    51    1
    56    17    52    1
    57    17    53    1
    58    21    54    1
    59    22    55    1
    60    22    56    1
    61    24    57    1
    62    24    58    1
    63    24    59    1
    64    25    60    1
    65    25    61    1
    66    26    62    1
    67    26    63    1
    68    27    64    1
    69    27    65    1
    70    27    66    1
    71    28    67    1
    72    28    68    1
    73    28    69    1
    74    29    70    1
    75    30    71    1
    76    30    72    1
    77    30    73    1
    78    31    74    1
    79    31    75    1
    80    31    76    1
    81    32    77    1
    82    32    78    1
    83    32    79    1
    84    34    80    1
    85    34    81    1
    86    34    82    1
