REMARK  Name = NuBBE_1638
REMARK  18 active torsions:
REMARK  status: ('A' for Active; 'I' for Inactive)
REMARK    1  A    between atoms: C_1  and  C_2
REMARK    2  A    between atoms: C_7  and  C_9
REMARK    3  A    between atoms: C_7  and  C_28
REMARK    4  A    between atoms: C_9  and  C_10
REMARK    5  A    between atoms: C_10  and  C_11
REMARK    6  A    between atoms: C_12  and  C_13
REMARK    7  A    between atoms: C_12  and  C_27
REMARK    8  A    between atoms: C_13  and  C_14
REMARK    9  A    between atoms: C_14  and  C_15
REMARK   10  A    between atoms: C_16  and  C_17
REMARK   11  A    between atoms: C_16  and  C_23
REMARK   12  A    between atoms: C_17  and  C_18
REMARK   13  A    between atoms: C_18  and  C_19
REMARK   14  A    between atoms: C_20  and  C_21
REMARK   15  A    between atoms: C_20  and  C_22
REMARK   16  A    between atoms: C_23  and  O_25
REMARK   17  A    between atoms: O_25  and  C_26
REMARK   18  A    between atoms: C_30  and  O_32
REMARK                            x       y       z     vdW  Elec       q    Type
REMARK                         _______ _______ _______ _____ _____    ______ ____
ROOT
ATOM      1  C   LIG A   1       1.932  -0.134  -2.057  0.00  0.00    -0.028 C 
ATOM      2  C   LIG A   1       1.928   0.081  -0.714  0.00  0.00    -0.076 C 
ATOM      3  C   LIG A   1       2.446  -0.780   0.438  0.00  0.00    +0.038 C 
ENDROOT
BRANCH   1   4
ATOM      4  C   LIG A   1       2.466  -1.296  -2.851  0.00  0.00    +0.031 C 
BRANCH   4   5
ATOM      5  C   LIG A   1       1.677  -2.635  -2.824  0.00  0.00    +0.051 C 
BRANCH   5  12
ATOM      6  C   LIG A   1      -0.216  -7.110  -1.872  0.00  0.00    +0.048 C 
ATOM      7  C   LIG A   1      -1.064  -5.878  -1.844  0.00  0.00    -0.005 A 
ATOM      8  C   LIG A   1      -0.494  -4.646  -1.609  0.00  0.00    +0.128 A 
ATOM      9  C   LIG A   1      -1.326  -3.525  -1.443  0.00  0.00    -0.002 A 
ATOM     10  C   LIG A   1      -0.798  -2.256  -0.957  0.00  0.00    +0.043 C 
ATOM     11  C   LIG A   1       0.582  -2.587  -0.513  0.00  0.00    +0.052 C 
ATOM     12  C   LIG A   1       1.506  -3.344  -1.452  0.00  0.00    +0.108 C 
ATOM     13  O   LIG A   1       0.879  -4.627  -1.577  0.00  0.00    -0.485 OA
ATOM     14  C   LIG A   1       2.922  -3.672  -0.878  0.00  0.00    +0.056 C 
ATOM     15  C   LIG A   1      -2.679  -3.554  -1.718  0.00  0.00    +0.052 A 
ATOM     16  C   LIG A   1      -3.218  -4.764  -2.067  0.00  0.00    +0.118 A 
ATOM     17  C   LIG A   1      -2.446  -5.926  -2.051  0.00  0.00    +0.052 A 
BRANCH  16  18
ATOM     18  O   LIG A   1      -4.516  -4.835  -2.463  0.00  0.00    -0.507 OA
ATOM     19  H   LIG A   1      -4.797  -3.928  -2.678  0.00  0.00    +0.292 HD
ENDBRANCH  16  18
ENDBRANCH   5  12
ENDBRANCH   4   5
ENDBRANCH   1   4
BRANCH   2  20
ATOM     20  C   LIG A   1       1.032   1.153  -0.201  0.00  0.00    +0.034 C 
BRANCH  20  21
ATOM     21  C   LIG A   1       1.791   2.433  -0.348  0.00  0.00    +0.032 C 
BRANCH  21  22
ATOM     22  C   LIG A   1       1.197   3.647   0.270  0.00  0.00    -0.016 C 
ATOM     23  C   LIG A   1      -0.084   4.030   0.428  0.00  0.00    +0.033 C 
BRANCH  23  24
ATOM     24  C   LIG A   1      -1.257   3.082   0.367  0.00  0.00    +0.335 C 
ATOM     25  O   LIG A   1      -1.310   2.012   0.850  0.00  0.00    -0.245 OA
BRANCH  24  26
ATOM     26  O   LIG A   1      -2.332   3.774  -0.112  0.00  0.00    -0.465 OA
ATOM     27  C   LIG A   1      -3.341   3.883   0.890  0.00  0.00    +0.280 C 
ENDBRANCH  24  26
ENDBRANCH  23  24
BRANCH  23  28
ATOM     28  C   LIG A   1      -0.376   5.495   0.680  0.00  0.00    +0.046 C 
BRANCH  28  29
ATOM     29  C   LIG A   1      -0.045   6.021   2.082  0.00  0.00    +0.032 C 
BRANCH  29  30
ATOM     30  C   LIG A   1      -0.870   5.455   3.210  0.00  0.00    -0.028 C 
ATOM     31  C   LIG A   1      -0.619   4.357   3.952  0.00  0.00    -0.080 C 
ATOM     32  C   LIG A   1       0.564   3.442   3.810  0.00  0.00    +0.038 C 
ATOM     33  C   LIG A   1      -1.634   3.821   4.925  0.00  0.00    +0.038 C 
ENDBRANCH  29  30
ENDBRANCH  28  29
ENDBRANCH  23  28
ENDBRANCH  21  22
ENDBRANCH  20  21
ENDBRANCH   2  20
TORSDOF 12
