@<TRIPOS>MOLECULE
NuBBE_111
 67 68 0 0 0
SMALL
GASTEIGER

@<TRIPOS>ATOM
      1 O           4.0573    0.9835    1.2782 O.2     1  LIG1       -0.2452
      2 C           3.0682    0.8063    1.9555 C.2     1  LIG1        0.3381
      3 C           1.7079    0.3975    1.4408 C.2     1  LIG1        0.0749
      4 C           0.8829   -0.1738    2.3184 C.2     1  LIG1        0.0981
      5 O          -0.3974   -0.5923    2.0871 O.2     1  LIG1       -0.4701
      6 C          -0.9703   -0.1943    0.8340 C.3     1  LIG1        0.2102
      7 H          -1.8369   -0.8351    0.6695 H       1  LIG1        0.1060
      8 C           0.0714   -0.4231   -0.3182 C.3     1  LIG1        0.0659
      9 H          -0.4051   -0.0987   -1.2482 H       1  LIG1        0.0403
     10 C           1.2732    0.5723   -0.0175 C.3     1  LIG1        0.0157
     11 H           0.8402    1.5846   -0.0499 H       1  LIG1        0.0363
     12 C           2.4010    0.6290   -1.0656 C.3     1  LIG1        0.0525
     13 C           1.9505    1.0371   -2.4550 C.2     1  LIG1        0.3053
     14 O           2.9748    1.4754   -3.2302 O.3     1  LIG1       -0.4806
     15 O           0.8086    0.9856   -2.8871 O.2     1  LIG1       -0.2510
     16 C           0.4280   -1.9737   -0.4731 C.3     1  LIG1        0.1097
     17 H           0.8029   -2.3550    0.4827 H       1  LIG1        0.0736
     18 C          -0.8002   -2.8075   -0.8944 C.3     1  LIG1       -0.0272
     19 O           1.4770   -2.1840   -1.4672 O.3     1  LIG1       -0.4579
     20 C           2.0266   -3.4308   -1.6190 C.2     1  LIG1        0.3348
     21 C           3.1383   -3.4509   -2.6381 C.2     1  LIG1        0.0293
     22 C           3.6900   -4.7983   -3.0235 C.3     1  LIG1       -0.0333
     23 C           3.5947   -2.2867   -3.1354 C.2     1  LIG1       -0.0774
     24 C           4.6900   -2.0284   -4.1097 C.3     1  LIG1       -0.0461
     25 O           1.6907   -4.4375   -1.0049 O.2     1  LIG1       -0.2453
     26 O          -1.4755    1.1723    0.8626 O.3     1  LIG1       -0.3094
     27 C          -2.4076    1.3812    1.9508 C.3     1  LIG1        0.1918
     28 H          -1.9304    1.0359    2.8741 H       1  LIG1        0.0939
     29 O          -3.5655    0.5593    1.7783 O.3     1  LIG1       -0.3404
     30 C          -4.7868    1.2144    1.4229 C.3     1  LIG1        0.1130
     31 H          -5.2557    1.6075    2.3364 H       1  LIG1        0.0647
     32 C          -4.5244    2.3728    0.4523 C.3     1  LIG1        0.1119
     33 H          -3.8925    2.0479   -0.3807 H       1  LIG1        0.0647
     34 C          -3.8146    3.4692    1.2502 C.3     1  LIG1        0.1141
     35 H          -4.5639    3.9896    1.8639 H       1  LIG1        0.0648
     36 O          -3.3256    4.4941    0.3729 O.3     1  LIG1       -0.3864
     37 O          -5.7276    2.8920   -0.1264 O.3     1  LIG1       -0.3865
     38 C          -5.7363    0.1447    0.8668 C.3     1  LIG1        0.0730
     39 O          -7.0121    0.6519    0.4986 O.3     1  LIG1       -0.3924
     40 C          -2.7066    2.9024    2.1653 C.3     1  LIG1        0.1342
     41 H          -1.7824    3.4806    2.0574 H       1  LIG1        0.0671
     42 O          -3.1398    3.0789    3.5355 O.3     1  LIG1       -0.3841
     43 O           3.0030    0.9078    3.3182 O.3     1  LIG1       -0.4646
     44 C           4.2403    0.8873    4.0296 C.3     1  LIG1        0.0820
     45 H           1.1285   -0.3898    3.3540 H       1  LIG1        0.1029
     46 H           3.1143    1.4073   -0.7733 H       1  LIG1        0.0384
     47 H           2.9549   -0.3073   -1.1006 H       1  LIG1        0.0384
     48 H           3.8432    1.4914   -2.7815 H       1  LIG1        0.2951
     49 H          -1.0463   -2.6544   -1.9511 H       1  LIG1        0.0265
     50 H          -1.6866   -2.6121   -0.2906 H       1  LIG1        0.0265
     51 H          -0.6034   -3.8792   -0.7820 H       1  LIG1        0.0265
     52 H           3.0488   -5.2704   -3.7764 H       1  LIG1        0.0280
     53 H           3.7726   -5.4739   -2.1667 H       1  LIG1        0.0280
     54 H           4.6955   -4.7308   -3.4521 H       1  LIG1        0.0280
     55 H           3.1138   -1.3720   -2.8303 H       1  LIG1        0.0574
     56 H           5.3637   -2.8729   -4.2555 H       1  LIG1        0.0272
     57 H           5.2897   -1.1853   -3.7486 H       1  LIG1        0.0272
     58 H           4.2539   -1.7439   -5.0711 H       1  LIG1        0.0272
     59 H          -2.8057    4.0786   -0.3375 H       1  LIG1        0.2100
     60 H          -5.4665    3.6593   -0.6743 H       1  LIG1        0.2100
     61 H          -5.2874   -0.3574    0.0034 H       1  LIG1        0.0584
     62 H          -5.8947   -0.6282    1.6277 H       1  LIG1        0.0584
     63 H          -6.8598    1.5112    0.0498 H       1  LIG1        0.2095
     64 H          -3.3142    4.0276    3.6750 H       1  LIG1        0.2101
     65 H           4.6210    1.9020    4.1588 H       1  LIG1        0.0661
     66 H           4.9773    0.2425    3.5447 H       1  LIG1        0.0661
     67 H           4.0270    0.4667    5.0201 H       1  LIG1        0.0661
@<TRIPOS>BOND
     1     1     2    2
     2     2     3    1
     3     3     4    2
     4     4     5    1
     5     5     6    1
     6     6     8    1
     7     8    10    1
     8     3    10    1
     9    12    13    1
    10    13    14    1
    11    13    15    2
    12    16    17    1
    13    16    18    1
    14    16    19    1
    15    19    20    1
    16    20    21    1
    17    21    22    1
    18    21    23    2
    19    23    24    1
    20    20    25    2
    21    26    27    1
    22    27    28    1
    23    27    29    1
    24    29    30    1
    25    30    32    1
    26    32    33    1
    27    32    34    1
    28    32    37    1
    29    38    39    1
    30    27    40    1
    31    34    40    1
    32     2    43    1
    33    43    44    1
    34    10    12    1
    35    10    11    1
    36     6    26    1
    37     6     7    1
    38     8    16    1
    39     8     9    1
    40    34    36    1
    41    34    35    1
    42    30    38    1
    43    30    31    1
    44    40    42    1
    45    40    41    1
    46     4    45    1
    47    12    46    1
    48    12    47    1
    49    14    48    1
    50    18    49    1
    51    18    50    1
    52    18    51    1
    53    22    52    1
    54    22    53    1
    55    22    54    1
    56    23    55    1
    57    24    56    1
    58    24    57    1
    59    24    58    1
    60    36    59    1
    61    37    60    1
    62    38    61    1
    63    38    62    1
    64    39    63    1
    65    42    64    1
    66    44    65    1
    67    44    66    1
    68    44    67    1
