REMARK  Name = NuBBE_95
REMARK  13 active torsions:
REMARK  status: ('A' for Active; 'I' for Inactive)
REMARK    1  A    between atoms: C_2  and  C_3
REMARK    2  A    between atoms: C_4  and  O_29
REMARK    3  A    between atoms: C_8  and  C_25
REMARK    4  A    between atoms: C_9  and  C_10
REMARK    5  A    between atoms: C_10  and  C_11
REMARK    6  A    between atoms: C_25  and  O_26
REMARK    7  A    between atoms: O_26  and  C_27
REMARK    8  A    between atoms: O_29  and  C_30
REMARK    9  A    between atoms: C_33  and  C_41
REMARK   10  A    between atoms: C_35  and  O_40
REMARK   11  A    between atoms: C_37  and  O_39
REMARK   12  A    between atoms: C_41  and  O_42
REMARK   13  A    between atoms: C_43  and  O_45
REMARK                            x       y       z     vdW  Elec       q    Type
REMARK                         _______ _______ _______ _____ _____    ______ ____
ROOT
ATOM      1  C   LIG A   1      -0.831   0.665   0.141  0.00  0.00    +0.088 C 
ATOM      2  C   LIG A   1      -0.519   2.120   0.589  0.00  0.00    +0.316 C 
ATOM      3  O   LIG A   1      -1.083   3.070  -0.318  0.00  0.00    -0.470 OA
ATOM      4  C   LIG A   1      -0.901   2.811  -1.641  0.00  0.00    +0.201 C 
ATOM      5  C   LIG A   1      -0.464   1.664  -2.180  0.00  0.00    +0.075 C 
ATOM      6  C   LIG A   1      -0.148   0.474  -1.276  0.00  0.00    +0.043 C 
ENDROOT
BRANCH   1   8
ATOM      7  C   LIG A   1      -2.986  -0.195   1.188  0.00  0.00    +0.004 C 
ATOM      8  C   LIG A   1      -2.323   0.345   0.153  0.00  0.00    -0.025 C 
ENDBRANCH   1   8
BRANCH   5   9
ATOM      9  C   LIG A   1      -0.247   1.649  -3.659  0.00  0.00    +0.338 C 
ATOM     10  O   LIG A   1      -0.223   0.664  -4.357  0.00  0.00    -0.245 OA
BRANCH   9  11
ATOM     11  O   LIG A   1       0.002   2.927  -4.072  0.00  0.00    -0.465 OA
ATOM     12  C   LIG A   1       0.371   3.096  -5.439  0.00  0.00    +0.280 C 
ENDBRANCH   9  11
ENDBRANCH   5   9
BRANCH   6  13
ATOM     13  C   LIG A   1      -0.328  -0.946  -1.868  0.00  0.00    +0.034 C 
BRANCH  13  14
ATOM     14  C   LIG A   1       0.039  -2.077  -0.877  0.00  0.00    +0.101 C 
ATOM     15  C   LIG A   1      -0.141  -3.425  -1.481  0.00  0.00    +0.037 A 
ATOM     16  C   LIG A   1       0.860  -4.229  -1.982  0.00  0.00    -0.016 A 
ATOM     17  C   LIG A   1       2.283  -3.788  -1.978  0.00  0.00    +0.052 C 
ATOM     18  C   LIG A   1       2.440  -2.373  -1.361  0.00  0.00    +0.086 C 
ATOM     19  N   LIG A   1       1.421  -2.006  -0.355  0.00  0.00    -0.308 NA
ATOM     20  C   LIG A   1       0.276  -5.484  -2.304  0.00  0.00    +0.003 A 
ATOM     21  C   LIG A   1       0.776  -6.706  -2.789  0.00  0.00    +0.010 A 
ATOM     22  C   LIG A   1      -0.086  -7.803  -2.903  0.00  0.00    +0.001 A 
ATOM     23  C   LIG A   1      -1.429  -7.694  -2.544  0.00  0.00    +0.002 A 
ATOM     24  C   LIG A   1      -1.955  -6.486  -2.079  0.00  0.00    +0.026 A 
ATOM     25  C   LIG A   1      -1.080  -5.399  -1.971  0.00  0.00    +0.047 A 
ATOM     26  N   LIG A   1      -1.316  -4.118  -1.522  0.00  0.00    -0.356 N 
ATOM     27  H   LIG A   1       1.625  -1.088   0.022  0.00  0.00    +0.123 HD
ATOM     28  H   LIG A   1      -2.209  -3.782  -1.191  0.00  0.00    +0.166 HD
ENDBRANCH  13  14
ENDBRANCH   6  13
BRANCH   2  29
ATOM     29  O   LIG A   1      -0.940   2.397   1.939  0.00  0.00    -0.309 OA
BRANCH  29  30
ATOM     30  C   LIG A   1      -0.600   3.749   2.289  0.00  0.00    +0.286 C 
ATOM     31  O   LIG A   1       0.817   3.965   2.269  0.00  0.00    -0.340 OA
ATOM     32  C   LIG A   1       1.558   3.468   3.390  0.00  0.00    +0.178 C 
ATOM     33  C   LIG A   1       0.966   3.915   4.740  0.00  0.00    +0.177 C 
ATOM     34  C   LIG A   1      -0.540   3.630   4.832  0.00  0.00    +0.179 C 
ATOM     35  C   LIG A   1      -1.252   4.223   3.609  0.00  0.00    +0.201 C 
BRANCH  34  36
ATOM     36  O   LIG A   1      -0.786   2.233   4.971  0.00  0.00    -0.386 OA
ATOM     37  H   LIG A   1      -1.753   2.111   5.005  0.00  0.00    +0.210 HD
ENDBRANCH  34  36
BRANCH  33  38
ATOM     38  O   LIG A   1       1.149   5.346   4.866  0.00  0.00    -0.387 OA
ATOM     39  H   LIG A   1       2.106   5.515   4.789  0.00  0.00    +0.210 HD
ENDBRANCH  33  38
BRANCH  35  40
ATOM     40  O   LIG A   1      -1.215   5.665   3.683  0.00  0.00    -0.384 OA
ATOM     41  H   LIG A   1      -0.314   5.909   3.997  0.00  0.00    +0.210 HD
ENDBRANCH  35  40
BRANCH  32  42
ATOM     42  C   LIG A   1       1.861   1.968   3.294  0.00  0.00    +0.190 C 
BRANCH  42  43
ATOM     43  O   LIG A   1       2.627   1.541   4.416  0.00  0.00    -0.392 OA
ATOM     44  H   LIG A   1       2.540   0.573   4.470  0.00  0.00    +0.209 HD
ENDBRANCH  42  43
ENDBRANCH  32  42
ENDBRANCH  29  30
ENDBRANCH   2  29
TORSDOF 12
