@<TRIPOS>MOLECULE
NuBBE_1264
 56 59 0 0 0
SMALL
GASTEIGER

@<TRIPOS>ATOM
      1 C          -4.2297    2.7765    2.6786 C.3     1  LIG1       -0.0215
      2 C          -2.7063    2.9442    2.6509 C.3     1  LIG1        0.1235
      3 C          -2.1619    2.9542    4.0843 C.3     1  LIG1       -0.0215
      4 C          -2.3653    4.2467    1.9755 C.2     1  LIG1       -0.0408
      5 C          -1.6617    4.3195    0.8439 C.2     1  LIG1       -0.0478
      6 C          -1.1832    3.0827    0.2373 C.ar    1  LIG1        0.0591
      7 C          -0.4335    3.0954   -0.9477 C.ar    1  LIG1        0.1415
      8 O          -0.1916    4.3075   -1.5529 O.3     1  LIG1       -0.5052
      9 C           0.0750    1.8997   -1.4734 C.ar    1  LIG1        0.1015
     10 C           0.9439    1.9066   -2.6651 C.2     1  LIG1        0.1740
     11 C           1.6907    0.6451   -2.9623 C.3     1  LIG1        0.0520
     12 C           0.7876   -0.5335   -2.6327 C.3     1  LIG1        0.1322
     13 H          -0.1080   -0.5127   -3.2698 H       1  LIG1        0.0789
     14 C           1.5242   -1.8458   -2.8425 C.ar    1  LIG1       -0.0067
     15 C           2.6852   -2.1475   -2.1066 C.ar    1  LIG1       -0.0516
     16 C           3.3848   -3.3363   -2.3237 C.ar    1  LIG1       -0.0198
     17 C           2.9164   -4.2384   -3.2705 C.ar    1  LIG1        0.1169
     18 O           3.5702   -5.4082   -3.5204 O.3     1  LIG1       -0.5068
     19 C           1.7600   -3.9733   -3.9937 C.ar    1  LIG1       -0.0198
     20 C           1.0638   -2.7805   -3.7817 C.ar    1  LIG1       -0.0516
     21 O           0.3490   -0.5085   -1.2698 O.3     1  LIG1       -0.4826
     22 O           1.0966    2.9386   -3.3128 O.2     1  LIG1       -0.2917
     23 C          -0.1819    0.6810   -0.8403 C.ar    1  LIG1        0.1424
     24 C          -0.9729    0.6440    0.3233 C.ar    1  LIG1        0.0412
     25 C          -1.2882   -0.6794    0.9969 C.3     1  LIG1       -0.0023
     26 C          -0.2645   -1.0618    2.0318 C.2     1  LIG1       -0.0807
     27 C           0.5145   -2.1613    2.0705 C.2     1  LIG1       -0.0793
     28 C           0.5308   -3.2561    1.0390 C.3     1  LIG1       -0.0440
     29 C           1.4712   -2.3786    3.2134 C.3     1  LIG1       -0.0440
     30 C          -1.4537    1.8577    0.8637 C.ar    1  LIG1        0.1393
     31 O          -2.1751    1.7603    2.0248 O.3     1  LIG1       -0.4811
     32 H          -4.7242    3.6030    3.2009 H       1  LIG1        0.0271
     33 H          -4.5109    1.8391    3.1724 H       1  LIG1        0.0271
     34 H          -4.6345    2.7218    1.6607 H       1  LIG1        0.0271
     35 H          -2.5587    3.7914    4.6693 H       1  LIG1        0.0271
     36 H          -1.0672    3.0208    4.0866 H       1  LIG1        0.0271
     37 H          -2.4140    2.0222    4.6041 H       1  LIG1        0.0271
     38 H          -2.7194    5.1650    2.4367 H       1  LIG1        0.0611
     39 H          -1.4296    5.2698    0.3753 H       1  LIG1        0.0624
     40 H           0.3215    4.1516   -2.3778 H       1  LIG1        0.2922
     41 H           2.6038    0.6650   -2.3566 H       1  LIG1        0.0385
     42 H           1.9718    0.6308   -4.0211 H       1  LIG1        0.0385
     43 H           3.0511   -1.4544   -1.3512 H       1  LIG1        0.0623
     44 H           4.2823   -3.5366   -1.7473 H       1  LIG1        0.0654
     45 H           4.3596   -5.4482   -2.9559 H       1  LIG1        0.2921
     46 H           1.4021   -4.6939   -4.7239 H       1  LIG1        0.0654
     47 H           0.1608   -2.5920   -4.3579 H       1  LIG1        0.0623
     48 H          -1.4260   -1.4502    0.2327 H       1  LIG1        0.0358
     49 H          -2.2691   -0.6224    1.4862 H       1  LIG1        0.0358
     50 H          -0.1874   -0.3454    2.8503 H       1  LIG1        0.0575
     51 H          -0.0896   -3.0477    0.1657 H       1  LIG1        0.0274
     52 H           0.1747   -4.1919    1.4826 H       1  LIG1        0.0274
     53 H           1.5518   -3.4159    0.6770 H       1  LIG1        0.0274
     54 H           1.4269   -1.5723    3.9531 H       1  LIG1        0.0274
     55 H           2.4994   -2.4314    2.8408 H       1  LIG1        0.0274
     56 H           1.2386   -3.3158    3.7295 H       1  LIG1        0.0274
@<TRIPOS>BOND
     1     1     2    1
     2     2     3    1
     3     2     4    1
     4     4     5    2
     5     5     6    1
     6     6     7   ar
     7     7     8    1
     8     7     9   ar
     9     9    10    1
    10    10    11    1
    11    11    12    1
    12    12    13    1
    13    12    14    1
    14    14    15   ar
    15    15    16   ar
    16    16    17   ar
    17    17    18    1
    18    17    19   ar
    19    19    20   ar
    20    14    20   ar
    21    12    21    1
    22    10    22    2
    23     9    23   ar
    24    21    23    1
    25    23    24   ar
    26    24    25    1
    27    25    26    1
    28    26    27    2
    29    27    28    1
    30    27    29    1
    31    24    30   ar
    32     6    30   ar
    33    30    31    1
    34     2    31    1
    35     1    32    1
    36     1    33    1
    37     1    34    1
    38     3    35    1
    39     3    36    1
    40     3    37    1
    41     4    38    1
    42     5    39    1
    43     8    40    1
    44    11    41    1
    45    11    42    1
    46    15    43    1
    47    16    44    1
    48    18    45    1
    49    19    46    1
    50    20    47    1
    51    25    48    1
    52    25    49    1
    53    26    50    1
    54    28    51    1
    55    28    52    1
    56    28    53    1
    57    29    54    1
    58    29    55    1
    59    29    56    1
