@<TRIPOS>MOLECULE
NuBBE_1867
 49 51 0 0 0
SMALL
GASTEIGER

@<TRIPOS>ATOM
      1 C          -3.0198    1.4332   -2.5616 C.3     1  LIG1        0.0790
      2 O          -2.6372    0.2782   -3.3198 O.3     1  LIG1       -0.4905
      3 C          -1.9340   -0.6450   -2.5767 C.ar    1  LIG1        0.1797
      4 C          -0.8817   -0.2937   -1.7264 C.ar    1  LIG1        0.1131
      5 C          -0.4134   -1.1707   -0.7726 C.ar    1  LIG1        0.1468
      6 O           0.5016   -0.7957    0.1832 O.2     1  LIG1       -0.4505
      7 C           0.7917    0.5620    0.2980 C.ar    1  LIG1        0.1844
      8 C           1.4861    0.9166    1.5512 C.ar    1  LIG1        0.0661
      9 C           2.8811    0.8498    1.6961 C.ar    1  LIG1        0.1313
     10 C           3.5140    1.2264    2.8868 C.ar    1  LIG1        0.0259
     11 C           2.7622    1.6477    3.9796 C.ar    1  LIG1        0.1648
     12 O           3.2651    2.0150    5.2029 O.3     1  LIG1       -0.4913
     13 C           4.6855    1.9639    5.3379 C.3     1  LIG1        0.0790
     14 C           1.3700    1.6949    3.8465 C.ar    1  LIG1        0.1594
     15 O           0.5871    2.0841    4.9011 O.3     1  LIG1       -0.5033
     16 C           0.7321    1.3451    2.6540 C.ar    1  LIG1       -0.0022
     17 O           3.7233    0.4079    0.7104 O.3     1  LIG1       -0.5059
     18 C           0.5040    1.4809   -0.6523 C.ar    1  LIG1        0.2108
     19 O           0.8386    2.8176   -0.5285 O.3     1  LIG1       -0.4883
     20 C          -0.0319    3.7150   -1.2207 C.3     1  LIG1        0.0791
     21 C          -0.1146    0.9357   -1.8824 C.ar    1  LIG1        0.2382
     22 O           0.0578    1.4318   -3.0020 O.2     1  LIG1       -0.2830
     23 C          -0.8747   -2.4809   -0.7777 C.ar    1  LIG1        0.0270
     24 C          -1.7811   -2.9277   -1.7638 C.ar    1  LIG1        0.1687
     25 O          -2.1655   -4.2435   -1.8469 O.3     1  LIG1       -0.4912
     26 C          -1.1877   -5.1954   -1.4184 C.3     1  LIG1        0.0790
     27 C          -2.3273   -1.9921   -2.6673 C.ar    1  LIG1        0.2045
     28 O          -3.0747   -2.2751   -3.7817 O.3     1  LIG1       -0.4885
     29 C          -4.1766   -3.1585   -3.6844 C.3     1  LIG1        0.0791
     30 H          -4.0179    1.7492   -2.8761 H       1  LIG1        0.0660
     31 H          -2.3322    2.2567   -2.7713 H       1  LIG1        0.0660
     32 H          -3.0613    1.2497   -1.4791 H       1  LIG1        0.0660
     33 H           4.5963    1.1706    2.9216 H       1  LIG1        0.0692
     34 H           4.9379    2.1650    6.3835 H       1  LIG1        0.0660
     35 H           5.1612    2.7353    4.7223 H       1  LIG1        0.0660
     36 H           5.0782    0.9701    5.0965 H       1  LIG1        0.0660
     37 H           1.2091    2.2583    5.6346 H       1  LIG1        0.2923
     38 H          -0.3515    1.4068    2.5996 H       1  LIG1        0.0663
     39 H           3.2038    0.1619   -0.0717 H       1  LIG1        0.2922
     40 H          -1.0581    3.6341   -0.8449 H       1  LIG1        0.0660
     41 H          -0.0096    3.5717   -2.3033 H       1  LIG1        0.0660
     42 H           0.3207    4.7337   -1.0404 H       1  LIG1        0.0660
     43 H          -0.4706   -3.1387   -0.0171 H       1  LIG1        0.0692
     44 H          -1.6440   -6.1888   -1.4251 H       1  LIG1        0.0660
     45 H          -0.8487   -5.0338   -0.3909 H       1  LIG1        0.0660
     46 H          -0.3362   -5.1966   -2.1067 H       1  LIG1        0.0660
     47 H          -4.9769   -2.7344   -4.3047 H       1  LIG1        0.0660
     48 H          -4.5655   -3.2712   -2.6702 H       1  LIG1        0.0660
     49 H          -3.9148   -4.1268   -4.1211 H       1  LIG1        0.0660
@<TRIPOS>BOND
     1     1     2    1
     2     2     3    1
     3     3     4   ar
     4     4     5   ar
     5     5     6   ar
     6     6     7   ar
     7     7     8    1
     8     8     9   ar
     9     9    10   ar
    10    10    11   ar
    11    11    12    1
    12    12    13    1
    13    11    14   ar
    14    14    15    1
    15    14    16   ar
    16     8    16   ar
    17     9    17    1
    18     7    18   ar
    19    18    19    1
    20    19    20    1
    21    18    21   ar
    22     4    21   ar
    23    21    22    2
    24     5    23   ar
    25    23    24   ar
    26    24    25    1
    27    25    26    1
    28    24    27   ar
    29     3    27   ar
    30    27    28    1
    31    28    29    1
    32     1    30    1
    33     1    31    1
    34     1    32    1
    35    10    33    1
    36    13    34    1
    37    13    35    1
    38    13    36    1
    39    15    37    1
    40    16    38    1
    41    17    39    1
    42    20    40    1
    43    20    41    1
    44    20    42    1
    45    23    43    1
    46    26    44    1
    47    26    45    1
    48    26    46    1
    49    29    47    1
    50    29    48    1
    51    29    49    1
