REMARK  Name = NuBBE_153
REMARK  14 active torsions:
REMARK  status: ('A' for Active; 'I' for Inactive)
REMARK    1  A    between atoms: O_1  and  C_2
REMARK    2  A    between atoms: C_2  and  C_3
REMARK    3  A    between atoms: C_5  and  C_6
REMARK    4  A    between atoms: C_6  and  C_7
REMARK    5  A    between atoms: C_7  and  C_8
REMARK    6  A    between atoms: C_8  and  C_9
REMARK    7  A    between atoms: C_8  and  C_10
REMARK    8  A    between atoms: C_13  and  C_14
REMARK    9  A    between atoms: C_13  and  C_20
REMARK   10  A    between atoms: C_14  and  C_15
REMARK   11  A    between atoms: C_15  and  C_16
REMARK   12  A    between atoms: C_16  and  C_17
REMARK   13  A    between atoms: C_17  and  C_18
REMARK   14  A    between atoms: C_17  and  C_19
REMARK                            x       y       z     vdW  Elec       q    Type
REMARK                         _______ _______ _______ _____ _____    ______ ____
ROOT
ATOM      1  C   LIG A   1       0.028  -1.961   3.867  0.00  0.00    +0.060 A 
ATOM      2  C   LIG A   1      -0.179  -2.707   2.701  0.00  0.00    +0.022 A 
ATOM      3  C   LIG A   1       0.166  -2.164   1.444  0.00  0.00    -0.005 A 
ATOM      4  C   LIG A   1       0.715  -0.878   1.400  0.00  0.00    +0.128 A 
ATOM      5  O   LIG A   1       1.032  -0.427   0.153  0.00  0.00    -0.485 OA
ATOM      6  C   LIG A   1       1.711   0.817   0.021  0.00  0.00    +0.108 C 
ATOM      7  C   LIG A   1       2.744   0.590  -1.091  0.00  0.00    +0.056 C 
ATOM      8  C   LIG A   1       2.476   1.266   1.288  0.00  0.00    +0.052 C 
ATOM      9  C   LIG A   1       1.603   1.198   2.527  0.00  0.00    +0.043 C 
ATOM     10  C   LIG A   1       0.943  -0.144   2.572  0.00  0.00    -0.004 A 
ATOM     11  C   LIG A   1       0.548  -0.675   3.804  0.00  0.00    +0.022 A 
ENDROOT
BRANCH   1  12
ATOM     12  C   LIG A   1      -0.328  -2.560   5.164  0.00  0.00    +0.337 C 
ATOM     13  O   LIG A   1      -1.212  -3.400   5.258  0.00  0.00    -0.245 OA
BRANCH  12  14
ATOM     14  O   LIG A   1       0.403  -2.134   6.235  0.00  0.00    -0.477 OA
ATOM     15  H   LIG A   1       1.174  -1.651   6.002  0.00  0.00    +0.295 HD
ENDBRANCH  12  14
ENDBRANCH   1  12
BRANCH   3  16
ATOM     16  C   LIG A   1      -0.004  -2.986   0.180  0.00  0.00    +0.039 C 
BRANCH  16  17
ATOM     17  C   LIG A   1      -1.375  -2.839  -0.501  0.00  0.00    +0.008 C 
BRANCH  17  18
ATOM     18  C   LIG A   1      -1.503  -3.700  -1.781  0.00  0.00    -0.017 C 
ATOM     19  C   LIG A   1      -1.317  -5.193  -1.494  0.00  0.00    +0.007 C 
ATOM     20  C   LIG A   1      -2.859  -3.490  -2.464  0.00  0.00    +0.007 C 
ENDBRANCH  17  18
ENDBRANCH  16  17
ENDBRANCH   3  16
BRANCH   6  21
ATOM     21  C   LIG A   1       0.692   1.905  -0.370  0.00  0.00    +0.048 C 
BRANCH  21  22
ATOM     22  C   LIG A   1       0.026   1.810  -1.749  0.00  0.00    +0.004 C 
BRANCH  22  23
ATOM     23  C   LIG A   1      -0.943   2.969  -2.074  0.00  0.00    +0.003 C 
BRANCH  23  24
ATOM     24  C   LIG A   1      -0.320   4.383  -2.217  0.00  0.00    -0.017 C 
ATOM     25  C   LIG A   1      -1.375   5.406  -2.655  0.00  0.00    +0.007 C 
ATOM     26  C   LIG A   1       0.329   4.927  -0.943  0.00  0.00    +0.007 C 
ENDBRANCH  23  24
ENDBRANCH  22  23
ENDBRANCH  21  22
ENDBRANCH   6  21
TORSDOF 9
