@<TRIPOS>MOLECULE
NuBBE_613
 76 82 0 0 0
SMALL
GASTEIGER

@<TRIPOS>ATOM
      1 C          -3.9694   -1.3179    2.5167 C.3     1  LIG1       -0.0331
      2 C          -2.8758   -1.1017    1.5110 C.3     1  LIG1        0.0965
      3 O          -2.7624   -2.2293    0.6245 O.3     1  LIG1       -0.3643
      4 C          -1.6534   -2.0005    1.5063 C.3     1  LIG1        0.0947
      5 H          -1.5177   -2.7109    2.3147 H       1  LIG1        0.0629
      6 C          -0.3500   -1.6714    0.7996 C.3     1  LIG1        0.0345
      7 H           0.3391   -1.6120    1.6392 H       1  LIG1        0.0364
      8 C          -0.2725   -0.2609    0.1203 C.3     1  LIG1        0.0987
      9 C          -1.7351    0.1613   -0.2983 C.3     1  LIG1        0.0009
     10 C          -2.8029    0.2434    0.8052 C.3     1  LIG1       -0.0069
     11 H          -3.7728    0.4015    0.3169 H       1  LIG1        0.0330
     12 C          -2.6391    1.3665    1.8158 C.3     1  LIG1       -0.0594
     13 H          -2.0916   -0.6883   -0.9130 H       1  LIG1        0.0334
     14 C          -1.5725    1.2485   -1.3607 C.3     1  LIG1        0.0313
     15 H          -1.2991    2.2087   -0.9207 H       1  LIG1        0.0504
     16 C          -2.7909    1.4506   -2.2937 C.3     1  LIG1       -0.0089
     17 C          -2.6428    2.4920   -3.3971 C.ar    1  LIG1       -0.0456
     18 C          -1.4718    3.2371   -3.6029 C.ar    1  LIG1       -0.0585
     19 C          -1.3868    4.1928   -4.6179 C.ar    1  LIG1       -0.0615
     20 C          -2.4775    4.4323   -5.4446 C.ar    1  LIG1       -0.0617
     21 C          -3.6516    3.7074   -5.2608 C.ar    1  LIG1       -0.0615
     22 C          -3.7342    2.7442   -4.2476 C.ar    1  LIG1       -0.0585
     23 N          -0.4154    0.7166   -2.0495 N.am    1  LIG1       -0.3113
     24 H          -0.1172    0.9551   -2.9883 H       1  LIG1        0.1490
     25 C           0.6682    0.7024    1.0021 C.3     1  LIG1        0.1461
     26 H           0.4900    0.4913    2.0605 H       1  LIG1        0.0772
     27 C           2.1794    0.5582    0.7091 C.3     1  LIG1        0.1262
     28 H           2.4271    1.0373   -0.2377 H       1  LIG1        0.0661
     29 C           3.3601   -0.3054    1.2586 C.3     1  LIG1        0.1240
     30 H           4.2820   -0.2695    0.6803 H       1  LIG1        0.0657
     31 O           2.9750    0.9403    1.8486 O.3     1  LIG1       -0.3610
     32 C           3.4115   -1.4925    2.1902 C.3     1  LIG1        0.1494
     33 C           3.7731   -2.8328    1.4599 C.2     1  LIG1        0.1698
     34 C           3.3681   -3.0399   -0.0040 C.3     1  LIG1        0.0201
     35 H           2.9471   -2.1112   -0.3901 H       1  LIG1        0.0376
     36 C           4.5992   -3.3716   -0.8413 C.3     1  LIG1       -0.0555
     37 C           2.3067   -4.1550   -0.1160 C.3     1  LIG1       -0.0148
     38 C           1.1009   -3.7511    0.6527 C.3     1  LIG1        0.0863
     39 H           1.2694   -3.7167    1.7195 H       1  LIG1        0.0622
     40 C           0.1395   -2.8186   -0.0418 C.3     1  LIG1        0.0916
     41 H           0.1666   -2.6449   -1.1049 H       1  LIG1        0.0626
     42 O          -0.1991   -4.1824    0.2799 O.3     1  LIG1       -0.3678
     43 O           4.2878   -3.7702    2.0845 O.2     1  LIG1       -0.2940
     44 C           4.5115   -1.2564    3.2488 C.3     1  LIG1       -0.0265
     45 O           2.1820   -1.6466    2.8886 O.3     1  LIG1       -0.3786
     46 O           0.3519    2.1110    0.7395 O.3     1  LIG1       -0.4577
     47 C           0.1360    2.9334    1.8065 C.2     1  LIG1        0.3043
     48 C          -0.2124    4.3311    1.3764 C.3     1  LIG1        0.0332
     49 O           0.1249    2.5818    2.9800 O.2     1  LIG1       -0.2512
     50 C           0.3371   -0.1768   -1.2951 C.2     1  LIG1        0.2239
     51 O           1.3402   -0.7018   -1.7029 O.2     1  LIG1       -0.2750
     52 H          -4.1496   -2.3849    2.6917 H       1  LIG1        0.0258
     53 H          -4.9091   -0.8829    2.1604 H       1  LIG1        0.0258
     54 H          -3.7142   -0.8614    3.4774 H       1  LIG1        0.0258
     55 H          -2.6079    2.3436    1.3277 H       1  LIG1        0.0233
     56 H          -1.7493    1.2120    2.4235 H       1  LIG1        0.0233
     57 H          -3.4749    1.3902    2.5248 H       1  LIG1        0.0233
     58 H          -3.6443    1.7616   -1.6767 H       1  LIG1        0.0331
     59 H          -3.0641    0.4952   -2.7640 H       1  LIG1        0.0331
     60 H          -0.5942    3.1068   -2.9781 H       1  LIG1        0.0620
     61 H          -0.4662    4.7549   -4.7523 H       1  LIG1        0.0618
     62 H          -2.4123    5.1863   -6.2247 H       1  LIG1        0.0618
     63 H          -4.5066    3.8971   -5.9054 H       1  LIG1        0.0618
     64 H          -4.6686    2.1993   -4.1237 H       1  LIG1        0.0620
     65 H           5.3780   -2.6130   -0.7090 H       1  LIG1        0.0236
     66 H           4.3418   -3.4103   -1.9053 H       1  LIG1        0.0236
     67 H           5.0274   -4.3400   -0.5613 H       1  LIG1        0.0236
     68 H           2.6903   -5.1014    0.2815 H       1  LIG1        0.0298
     69 H           2.0578   -4.3245   -1.1710 H       1  LIG1        0.0298
     70 H           5.4992   -1.1554    2.7850 H       1  LIG1        0.0262
     71 H           4.5631   -2.0845    3.9678 H       1  LIG1        0.0262
     72 H           4.3104   -0.3551    3.8374 H       1  LIG1        0.0262
     73 H           2.3386   -2.3042    3.5929 H       1  LIG1        0.2108
     74 H           0.5496    4.7414    0.7112 H       1  LIG1        0.0342
     75 H          -0.2602    4.9704    2.2662 H       1  LIG1        0.0342
     76 H          -1.1952    4.3503    0.8970 H       1  LIG1        0.0342
@<TRIPOS>BOND
     1     1     2    1
     2     2     3    1
     3     3     4    1
     4     4     5    1
     5     2     4    1
     6     4     6    1
     7     6     7    1
     8     6     8    1
     9     8     9    1
    10     9    10    1
    11     2    10    1
    12     9    13    1
    13     9    14    1
    14    14    15    1
    15    14    16    1
    16    16    17    1
    17    17    18   ar
    18    18    19   ar
    19    19    20   ar
    20    20    21   ar
    21    21    22   ar
    22    17    22   ar
    23    14    23    1
    24    23    24    1
    25     8    25    1
    26    25    26    1
    27    25    27    1
    28    27    28    1
    29    27    29    1
    30    29    30    1
    31    29    31    1
    32    27    31    1
    33    29    32    1
    34    32    33    1
    35    33    34    1
    36    34    35    1
    37    34    36    1
    38    34    37    1
    39    37    38    1
    40    38    39    1
    41    38    40    1
    42    40    41    1
    43     6    40    1
    44    40    42    1
    45    38    42    1
    46    33    43    2
    47    25    46    1
    48    46    47    1
    49    47    48    1
    50    47    49    2
    51     8    50    1
    52    23    50   am
    53    50    51    2
    54    10    12    1
    55    10    11    1
    56    32    45    1
    57    32    44    1
    58     1    52    1
    59     1    53    1
    60     1    54    1
    61    12    55    1
    62    12    56    1
    63    12    57    1
    64    16    58    1
    65    16    59    1
    66    18    60    1
    67    19    61    1
    68    20    62    1
    69    21    63    1
    70    22    64    1
    71    36    65    1
    72    36    66    1
    73    36    67    1
    74    37    68    1
    75    37    69    1
    76    44    70    1
    77    44    71    1
    78    44    72    1
    79    45    73    1
    80    48    74    1
    81    48    75    1
    82    48    76    1
