@<TRIPOS>MOLECULE
NuBBE_607
 86 90 0 0 0
SMALL
GASTEIGER

@<TRIPOS>ATOM
      1 C          -0.8922   -4.9736   -2.8406 C.3     1  LIG1       -0.0598
      2 C          -1.1052   -3.4467   -2.9351 C.3     1  LIG1       -0.0345
      3 C          -1.8156   -3.1189   -4.2516 C.3     1  LIG1       -0.0468
      4 C          -1.9546   -1.6168   -4.4617 C.3     1  LIG1       -0.0362
      5 C          -0.6208   -0.8195   -4.4237 C.3     1  LIG1        0.0746
      6 C          -0.9780    0.6708   -4.3672 C.3     1  LIG1       -0.0184
      7 C          -1.4383    1.1250   -3.0201 C.2     1  LIG1       -0.0827
      8 C          -0.8192    0.7692   -1.8768 C.2     1  LIG1       -0.0611
      9 C          -1.0178    1.5703   -0.5400 C.3     1  LIG1       -0.0072
     10 C          -1.8956    0.7566    0.4383 C.3     1  LIG1       -0.0433
     11 C          -1.2466    0.2313    1.7047 C.3     1  LIG1       -0.0483
     12 C          -0.3522    1.2686    2.3947 C.3     1  LIG1       -0.0268
     13 H          -0.9958    2.1595    2.4833 H       1  LIG1        0.0312
     14 C           0.0107    0.8722    3.8790 C.3     1  LIG1        0.0055
     15 C          -1.3003    0.9805    4.7217 C.3     1  LIG1       -0.0562
     16 C           1.0459    1.8625    4.5399 C.3     1  LIG1        0.1084
     17 H           0.5268    2.4656    5.2972 H       1  LIG1        0.0739
     18 C           1.7726    2.8906    3.6446 C.3     1  LIG1       -0.0146
     19 C           1.3166    3.0487    2.1943 C.3     1  LIG1       -0.0437
     20 C           0.8591    1.7213    1.5093 C.3     1  LIG1       -0.0249
     21 C           0.3901    2.0817    0.0059 C.3     1  LIG1       -0.0262
     22 H           0.2508    3.1705    0.0940 H       1  LIG1        0.0314
     23 C           1.4655    2.0389   -1.1299 C.3     1  LIG1       -0.0481
     24 C           1.5929    0.7477   -1.9878 C.3     1  LIG1       -0.0433
     25 C           0.3554   -0.2160   -1.9633 C.3     1  LIG1       -0.0067
     26 C           0.5485   -1.0745   -0.7192 C.3     1  LIG1       -0.0555
     27 C           0.3420   -1.2066   -3.2366 C.3     1  LIG1       -0.0154
     28 H           1.3654   -1.0889   -3.6304 H       1  LIG1        0.0320
     29 C           0.2788   -2.7540   -2.9539 C.3     1  LIG1       -0.0432
     30 C           2.0960    0.7787    1.5627 C.3     1  LIG1       -0.0590
     31 O           2.1121    1.1336    5.2153 O.3     1  LIG1       -0.4610
     32 C           1.9405    0.7773    6.5125 C.2     1  LIG1        0.3042
     33 C           3.1450    0.0446    7.0109 C.3     1  LIG1        0.0332
     34 O           0.9474    1.0191    7.1992 O.2     1  LIG1       -0.2512
     35 C           0.4469   -0.6135    4.0061 C.3     1  LIG1       -0.0562
     36 C          -1.8457    2.8819   -0.8102 C.3     1  LIG1       -0.0556
     37 C           0.0938   -1.0853   -5.7479 C.2     1  LIG1        0.3115
     38 O          -0.2379   -0.2628   -6.7526 O.3     1  LIG1       -0.4802
     39 O           0.8824   -1.9964   -5.9737 O.2     1  LIG1       -0.2504
     40 C          -1.9939   -3.0537   -1.7421 C.3     1  LIG1       -0.0598
     41 H          -0.2996   -5.3506   -3.6807 H       1  LIG1        0.0235
     42 H          -1.8494   -5.5080   -2.8413 H       1  LIG1        0.0235
     43 H          -0.3657   -5.2403   -1.9162 H       1  LIG1        0.0235
     44 H          -2.8133   -3.5764   -4.2682 H       1  LIG1        0.0271
     45 H          -1.2682   -3.5574   -5.0954 H       1  LIG1        0.0271
     46 H          -2.6553   -1.2249   -3.7154 H       1  LIG1        0.0276
     47 H          -2.4481   -1.4608   -5.4308 H       1  LIG1        0.0276
     48 H          -1.7753    0.8961   -5.0881 H       1  LIG1        0.0318
     49 H          -0.1254    1.2955   -4.6631 H       1  LIG1        0.0318
     50 H          -2.2159    1.8796   -3.0498 H       1  LIG1        0.0572
     51 H          -2.3773   -0.0825   -0.0803 H       1  LIG1        0.0274
     52 H          -2.7412    1.3746    0.7745 H       1  LIG1        0.0274
     53 H          -0.7160   -0.7010    1.5200 H       1  LIG1        0.0269
     54 H          -2.0727   -0.0612    2.3611 H       1  LIG1        0.0269
     55 H          -1.7355    1.9835    4.6479 H       1  LIG1        0.0236
     56 H          -1.1146    0.7788    5.7809 H       1  LIG1        0.0236
     57 H          -2.0622    0.2618    4.4063 H       1  LIG1        0.0236
     58 H           2.8536    2.6952    3.6502 H       1  LIG1        0.0301
     59 H           1.6885    3.8756    4.1255 H       1  LIG1        0.0301
     60 H           2.1301    3.5101    1.6187 H       1  LIG1        0.0272
     61 H           0.4947    3.7784    2.1800 H       1  LIG1        0.0272
     62 H           2.4494    2.3547   -0.7664 H       1  LIG1        0.0269
     63 H           1.1907    2.8364   -1.8393 H       1  LIG1        0.0269
     64 H           2.4967    0.2081   -1.6756 H       1  LIG1        0.0274
     65 H           1.7967    1.0644   -3.0205 H       1  LIG1        0.0274
     66 H           1.4886   -1.6372   -0.7356 H       1  LIG1        0.0238
     67 H          -0.2729   -1.7494   -0.5105 H       1  LIG1        0.0238
     68 H           0.6190   -0.4438    0.1356 H       1  LIG1        0.0238
     69 H           0.8483   -3.0434   -2.0672 H       1  LIG1        0.0274
     70 H           0.8528   -3.2290   -3.7640 H       1  LIG1        0.0274
     71 H           2.8213    0.9930    0.7754 H       1  LIG1        0.0235
     72 H           1.8497   -0.2798    1.5084 H       1  LIG1        0.0235
     73 H           2.6661    0.8694    2.4900 H       1  LIG1        0.0235
     74 H           2.9383   -0.3656    8.0044 H       1  LIG1        0.0342
     75 H           3.9913    0.7316    7.0799 H       1  LIG1        0.0342
     76 H           3.3805   -0.7896    6.3430 H       1  LIG1        0.0342
     77 H           1.4247   -0.8075    3.5630 H       1  LIG1        0.0236
     78 H          -0.2699   -1.2996    3.5447 H       1  LIG1        0.0236
     79 H           0.5027   -0.9270    5.0539 H       1  LIG1        0.0236
     80 H          -2.8658    2.6638   -1.1492 H       1  LIG1        0.0238
     81 H          -1.3637    3.5206   -1.5609 H       1  LIG1        0.0238
     82 H          -1.9451    3.4778    0.1062 H       1  LIG1        0.0238
     83 H           0.2957   -0.5611   -7.5109 H       1  LIG1        0.2951
     84 H          -1.5660   -3.4021   -0.7953 H       1  LIG1        0.0235
     85 H          -2.9855   -3.5150   -1.8228 H       1  LIG1        0.0235
     86 H          -2.1504   -1.9752   -1.6713 H       1  LIG1        0.0235
@<TRIPOS>BOND
     1     2     3    1
     2     3     4    1
     3     4     5    1
     4     5     6    1
     5     6     7    1
     6     7     8    2
     7     8     9    1
     8     9    10    1
     9    10    11    1
    10    11    12    1
    11    12    14    1
    12    14    16    1
    13    16    18    1
    14    18    19    1
    15    19    20    1
    16    20    21    1
    17    21    23    1
    18    23    24    1
    19    24    25    1
    20     8    25    1
    21    25    27    1
    22    27    29    1
    23    12    20    1
    24    31    32    1
    25    32    33    1
    26    32    34    2
    27    21     9    1
    28    27     5    1
    29    37    38    1
    30    37    39    2
    31    29     2    1
    32     1     2    1
    33     2    40    1
    34     5    37    1
    35     9    36    1
    36    12    13    1
    37    14    15    1
    38    14    35    1
    39    16    17    1
    40    16    31    1
    41    20    30    1
    42    21    22    1
    43    25    26    1
    44    27    28    1
    45     1    41    1
    46     1    42    1
    47     1    43    1
    48     3    44    1
    49     3    45    1
    50     4    46    1
    51     4    47    1
    52     6    48    1
    53     6    49    1
    54     7    50    1
    55    10    51    1
    56    10    52    1
    57    11    53    1
    58    11    54    1
    59    15    55    1
    60    15    56    1
    61    15    57    1
    62    18    58    1
    63    18    59    1
    64    19    60    1
    65    19    61    1
    66    23    62    1
    67    23    63    1
    68    24    64    1
    69    24    65    1
    70    26    66    1
    71    26    67    1
    72    26    68    1
    73    29    69    1
    74    29    70    1
    75    30    71    1
    76    30    72    1
    77    30    73    1
    78    33    74    1
    79    33    75    1
    80    33    76    1
    81    35    77    1
    82    35    78    1
    83    35    79    1
    84    36    80    1
    85    36    81    1
    86    36    82    1
    87    38    83    1
    88    40    84    1
    89    40    85    1
    90    40    86    1
