REMARK  Name = NuBBE_1880
REMARK  19 active torsions:
REMARK  status: ('A' for Active; 'I' for Inactive)
REMARK    1  A    between atoms: C_4  and  O_33
REMARK    2  A    between atoms: C_5  and  O_6
REMARK    3  A    between atoms: O_6  and  C_7
REMARK    4  A    between atoms: C_7  and  C_8
REMARK    5  A    between atoms: C_9  and  O_31
REMARK    6  A    between atoms: C_13  and  C_14
REMARK    7  A    between atoms: C_17  and  O_26
REMARK    8  A    between atoms: C_18  and  O_19
REMARK    9  A    between atoms: O_19  and  C_20
REMARK   10  A    between atoms: C_20  and  C_21
REMARK   11  A    between atoms: C_22  and  O_23
REMARK   12  A    between atoms: O_23  and  C_24
REMARK   13  A    between atoms: C_24  and  C_25
REMARK   14  A    between atoms: O_26  and  C_27
REMARK   15  A    between atoms: C_28  and  O_29
REMARK   16  A    between atoms: O_29  and  C_30
REMARK   17  A    between atoms: O_31  and  C_32
REMARK   18  A    between atoms: O_33  and  C_34
REMARK   19  A    between atoms: C_34  and  C_35
REMARK                            x       y       z     vdW  Elec       q    Type
REMARK                         _______ _______ _______ _____ _____    ______ ____
ROOT
ATOM      1  O   LIG A   1       0.850  -0.951  -2.962  0.00  0.00    -0.283 OA
ATOM      2  C   LIG A   1       0.389  -0.846  -1.887  0.00  0.00    +0.238 A 
ATOM      3  C   LIG A   1       0.991  -1.532  -0.733  0.00  0.00    +0.113 A 
ATOM      4  C   LIG A   1       1.456  -2.846  -0.750  0.00  0.00    +0.180 A 
ATOM      5  C   LIG A   1       2.137  -3.343   0.440  0.00  0.00    +0.205 A 
ATOM      6  C   LIG A   1       2.353  -2.487   1.589  0.00  0.00    +0.169 A 
ATOM      7  C   LIG A   1       1.700  -1.243   1.566  0.00  0.00    +0.096 A 
ATOM      8  C   LIG A   1       1.046  -0.783   0.432  0.00  0.00    +0.147 A 
ATOM      9  O   LIG A   1       0.435   0.436   0.530  0.00  0.00    -0.451 OA
ATOM     10  C   LIG A   1      -0.677   0.606  -0.279  0.00  0.00    +0.184 A 
ATOM     11  C   LIG A   1      -0.790   0.049  -1.507  0.00  0.00    +0.211 A 
ENDROOT
BRANCH  10  12
ATOM     12  C   LIG A   1      -1.650   1.498   0.373  0.00  0.00    +0.067 A 
ATOM     13  C   LIG A   1      -2.566   0.922   1.254  0.00  0.00    +0.019 A 
ATOM     14  C   LIG A   1      -3.707   1.616   1.621  0.00  0.00    +0.050 A 
ATOM     15  C   LIG A   1      -3.890   2.941   1.225  0.00  0.00    +0.165 A 
ATOM     16  C   LIG A   1      -2.771   3.649   0.719  0.00  0.00    +0.204 A 
ATOM     17  C   LIG A   1      -1.638   2.891   0.261  0.00  0.00    +0.176 A 
BRANCH  15  18
ATOM     18  O   LIG A   1      -5.212   3.261   1.343  0.00  0.00    -0.491 OA
ATOM     19  C   LIG A   1      -5.682   4.578   1.508  0.00  0.00    +0.277 C 
ENDBRANCH  15  18
BRANCH  16  20
ATOM     20  O   LIG A   1      -2.867   5.017   0.590  0.00  0.00    -0.485 OA
BRANCH  20  21
ATOM     21  C   LIG A   1      -1.738   5.838   0.948  0.00  0.00    +0.226 C 
ATOM     22  C   LIG A   1      -0.704   5.982  -0.156  0.00  0.00    +0.048 C 
ENDBRANCH  20  21
ENDBRANCH  16  20
BRANCH  17  23
ATOM     23  O   LIG A   1      -0.449   3.518  -0.009  0.00  0.00    -0.488 OA
BRANCH  23  24
ATOM     24  C   LIG A   1       0.385   3.265  -1.149  0.00  0.00    +0.226 C 
ATOM     25  C   LIG A   1       1.853   3.226  -0.725  0.00  0.00    +0.048 C 
ENDBRANCH  23  24
ENDBRANCH  17  23
ENDBRANCH  10  12
BRANCH  11  26
ATOM     26  O   LIG A   1      -1.835   0.243  -2.408  0.00  0.00    -0.488 OA
ATOM     27  C   LIG A   1      -1.674  -0.473  -3.646  0.00  0.00    +0.277 C 
ENDBRANCH  11  26
BRANCH   6  28
ATOM     28  O   LIG A   1       2.908  -2.632   2.854  0.00  0.00    -0.491 OA
ATOM     29  C   LIG A   1       4.093  -3.312   3.313  0.00  0.00    +0.277 C 
ENDBRANCH   6  28
BRANCH   5  30
ATOM     30  O   LIG A   1       2.376  -4.692   0.336  0.00  0.00    -0.485 OA
BRANCH  30  31
ATOM     31  C   LIG A   1       2.752  -5.436   1.483  0.00  0.00    +0.226 C 
ATOM     32  C   LIG A   1       1.847  -5.188   2.678  0.00  0.00    +0.048 C 
ENDBRANCH  30  31
ENDBRANCH   5  30
BRANCH   4  33
ATOM     33  O   LIG A   1       0.929  -3.654  -1.758  0.00  0.00    -0.488 OA
BRANCH  33  34
ATOM     34  C   LIG A   1       1.810  -4.190  -2.766  0.00  0.00    +0.226 C 
ATOM     35  C   LIG A   1       0.989  -4.799  -3.924  0.00  0.00    +0.048 C 
ENDBRANCH  33  34
ENDBRANCH   4  33
TORSDOF 12
