REMARK  Name = NuBBE_2358
REMARK  14 active torsions:
REMARK  status: ('A' for Active; 'I' for Inactive)
REMARK    1  A    between atoms: C_1  and  C_2
REMARK    2  A    between atoms: C_3  and  O_31
REMARK    3  A    between atoms: C_11  and  C_12
REMARK    4  A    between atoms: C_17  and  C_19
REMARK    5  A    between atoms: C_19  and  C_21
REMARK    6  A    between atoms: C_19  and  C_22
REMARK    7  A    between atoms: C_22  and  C_23
REMARK    8  A    between atoms: C_23  and  C_24
REMARK    9  A    between atoms: C_24  and  C_25
REMARK   10  A    between atoms: C_24  and  C_27
REMARK   11  A    between atoms: C_25  and  C_26
REMARK   12  A    between atoms: C_27  and  C_28
REMARK   13  A    between atoms: C_27  and  C_29
REMARK   14  A    between atoms: C_33  and  O_34
REMARK                            x       y       z     vdW  Elec       q    Type
REMARK                         _______ _______ _______ _____ _____    ______ ____
ROOT
ATOM      1  C   LIG A   1      -0.761  -4.756   0.280  0.00  0.00    +0.014 C 
ATOM      2  C   LIG A   1       0.664  -4.698  -0.347  0.00  0.00    +0.007 C 
ATOM      3  C   LIG A   1       1.739  -5.284   0.631  0.00  0.00    +0.131 C 
ATOM      4  C   LIG A   1       1.889  -4.381   1.856  0.00  0.00    +0.166 C 
ATOM      5  C   LIG A   1       2.249  -2.938   1.577  0.00  0.00    +0.081 C 
ATOM      6  C   LIG A   1       1.203  -2.368   0.627  0.00  0.00    +0.003 C 
ATOM      7  C   LIG A   1       1.061  -3.210  -0.686  0.00  0.00    +0.002 C 
ATOM      8  C   LIG A   1       0.160  -2.559  -1.783  0.00  0.00    +0.005 C 
ATOM      9  C   LIG A   1       0.188  -1.024  -1.863  0.00  0.00    +0.007 C 
ATOM     10  C   LIG A   1       0.157  -0.358  -0.472  0.00  0.00    -0.026 C 
ATOM     11  C   LIG A   1      -1.133  -0.748   0.326  0.00  0.00    +0.012 C 
ATOM     12  C   LIG A   1       1.424  -0.907   0.241  0.00  0.00    -0.001 C 
ATOM     13  C   LIG A   1       1.694   0.130   1.313  0.00  0.00    +0.004 C 
ATOM     14  C   LIG A   1       1.544   1.431   0.523  0.00  0.00    +0.004 C 
ATOM     15  C   LIG A   1       0.414   1.200  -0.518  0.00  0.00    -0.002 C 
ATOM     16  O   LIG A   1       1.782  -4.808   3.023  0.00  0.00    -0.294 OA
ATOM     17  C   LIG A   1       1.456  -6.753   0.975  0.00  0.00    +0.074 C 
ATOM     18  C   LIG A   1       1.395  -7.617  -0.289  0.00  0.00    +0.118 C 
ATOM     19  C   LIG A   1       0.454  -7.062  -1.361  0.00  0.00    +0.032 C 
ATOM     20  C   LIG A   1       0.654  -5.565  -1.639  0.00  0.00    +0.012 C 
ENDROOT
BRANCH  15  21
ATOM     21  C   LIG A   1      -0.846   2.111  -0.327  0.00  0.00    -0.010 C 
ATOM     22  C   LIG A   1      -1.882   1.806  -1.428  0.00  0.00    +0.008 C 
BRANCH  21  23
ATOM     23  C   LIG A   1      -0.523   3.643  -0.324  0.00  0.00    +0.004 C 
BRANCH  23  24
ATOM     24  C   LIG A   1      -1.750   4.540  -0.023  0.00  0.00    +0.004 C 
BRANCH  24  25
ATOM     25  C   LIG A   1      -1.526   6.084  -0.081  0.00  0.00    -0.009 C 
BRANCH  25  26
ATOM     26  C   LIG A   1      -0.303   6.618   0.739  0.00  0.00    -0.014 C 
ATOM     27  C   LIG A   1      -0.191   8.153   0.711  0.00  0.00    +0.007 C 
ATOM     28  C   LIG A   1      -0.215   6.129   2.188  0.00  0.00    +0.007 C 
ENDBRANCH  25  26
BRANCH  25  29
ATOM     29  C   LIG A   1      -2.848   6.845   0.239  0.00  0.00    +0.000 C 
ATOM     30  C   LIG A   1      -3.966   6.604  -0.773  0.00  0.00    +0.004 C 
ENDBRANCH  25  29
ENDBRANCH  24  25
ENDBRANCH  23  24
ENDBRANCH  21  23
ENDBRANCH  15  21
BRANCH   3  31
ATOM     31  O   LIG A   1       3.037  -5.242  -0.007  0.00  0.00    -0.380 OA
ATOM     32  H   LIG A   1       3.680  -5.594   0.641  0.00  0.00    +0.211 HD
ENDBRANCH   3  31
BRANCH  18  33
ATOM     33  O   LIG A   1       2.705  -7.746  -0.844  0.00  0.00    -0.392 OA
ATOM     34  H   LIG A   1       3.026  -6.841  -1.034  0.00  0.00    +0.210 HD
ENDBRANCH  18  33
TORSDOF 8
