@<TRIPOS>MOLECULE
NuBBE_1368
 45 48 0 0 0
SMALL
GASTEIGER

@<TRIPOS>ATOM
      1 O          -0.2318    0.2056   -0.6582 O.2     1  LIG1       -0.2507
      2 C          -1.1431    0.3246    0.1415 C.2     1  LIG1        0.3109
      3 O          -2.3195    0.9779   -0.0907 O.3     1  LIG1       -0.4598
      4 C          -2.5119    1.4263   -1.4403 C.3     1  LIG1        0.1175
      5 C          -2.9189    0.2581   -2.3018 C.ar    1  LIG1       -0.0103
      6 C          -4.0879   -0.4611   -2.0139 C.ar    1  LIG1       -0.0554
      7 C          -4.4093   -1.6061   -2.7426 C.ar    1  LIG1       -0.0614
      8 C          -3.5721   -2.0360   -3.7706 C.ar    1  LIG1       -0.0617
      9 C          -2.4174   -1.3181   -4.0765 C.ar    1  LIG1       -0.0614
     10 C          -2.0916   -0.1754   -3.3461 C.ar    1  LIG1       -0.0554
     11 C          -1.1935   -0.3076    1.5084 C.3     1  LIG1        0.0852
     12 C           0.1795   -0.5155    2.1584 C.3     1  LIG1        0.1635
     13 O          -0.0881   -1.1007    3.4613 O.3     1  LIG1       -0.3754
     14 C           0.9308    0.7773    2.3980 C.ar    1  LIG1       -0.0003
     15 C           0.4340    1.6876    3.3580 C.ar    1  LIG1       -0.0548
     16 C           1.0349    2.9239    3.5563 C.ar    1  LIG1       -0.0614
     17 C           2.1377    3.2703    2.7930 C.ar    1  LIG1       -0.0612
     18 C           2.6565    2.3660    1.8596 C.ar    1  LIG1       -0.0536
     19 C           2.0835    1.0944    1.6467 C.ar    1  LIG1       -0.0109
     20 C           2.6559    0.1049    0.6959 C.ar    1  LIG1       -0.0069
     21 C           3.7567    0.3913   -0.1378 C.ar    1  LIG1       -0.0533
     22 C           4.2990   -0.5631   -1.0092 C.ar    1  LIG1       -0.0611
     23 C           3.7556   -1.8385   -1.0771 C.ar    1  LIG1       -0.0611
     24 C           2.6698   -2.1581   -0.2717 C.ar    1  LIG1       -0.0506
     25 C           2.1283   -1.1969    0.6002 C.ar    1  LIG1        0.0284
     26 C           0.9684   -1.5952    1.4273 C.2     1  LIG1        0.2000
     27 O           0.6471   -2.7829    1.5291 O.2     1  LIG1       -0.2886
     28 H          -1.6168    1.9387   -1.8132 H       1  LIG1        0.0749
     29 H          -3.3184    2.1691   -1.4310 H       1  LIG1        0.0749
     30 H          -4.7355   -0.1478   -1.1978 H       1  LIG1        0.0621
     31 H          -5.3030   -2.1732   -2.4963 H       1  LIG1        0.0618
     32 H          -3.8130   -2.9381   -4.3265 H       1  LIG1        0.0618
     33 H          -1.7573   -1.6597   -4.8693 H       1  LIG1        0.0618
     34 H          -1.1668    0.3529   -3.5701 H       1  LIG1        0.0621
     35 H          -1.7240   -1.2612    1.4076 H       1  LIG1        0.0414
     36 H          -1.8126    0.3241    2.1578 H       1  LIG1        0.0414
     37 H          -0.2424   -2.0543    3.2972 H       1  LIG1        0.2112
     38 H          -0.4307    1.4200    3.9644 H       1  LIG1        0.0621
     39 H           0.6413    3.6107    4.3004 H       1  LIG1        0.0618
     40 H           2.6088    4.2406    2.9276 H       1  LIG1        0.0618
     41 H           3.5325    2.6920    1.3072 H       1  LIG1        0.0624
     42 H           4.2281    1.3694   -0.1370 H       1  LIG1        0.0624
     43 H           5.1490   -0.3018   -1.6353 H       1  LIG1        0.0618
     44 H           4.1711   -2.5791   -1.7550 H       1  LIG1        0.0618
     45 H           2.2373   -3.1552   -0.3283 H       1  LIG1        0.0625
@<TRIPOS>BOND
     1     1     2    2
     2     2     3    1
     3     3     4    1
     4     4     5    1
     5     5     6   ar
     6     6     7   ar
     7     7     8   ar
     8     8     9   ar
     9     9    10   ar
    10     5    10   ar
    11     2    11    1
    12    11    12    1
    13    12    13    1
    14    12    14    1
    15    14    15   ar
    16    15    16   ar
    17    16    17   ar
    18    17    18   ar
    19    18    19   ar
    20    14    19   ar
    21    19    20    1
    22    20    21   ar
    23    21    22   ar
    24    22    23   ar
    25    23    24   ar
    26    24    25   ar
    27    20    25   ar
    28    25    26    1
    29    12    26    1
    30    26    27    2
    31     4    28    1
    32     4    29    1
    33     6    30    1
    34     7    31    1
    35     8    32    1
    36     9    33    1
    37    10    34    1
    38    11    35    1
    39    11    36    1
    40    13    37    1
    41    15    38    1
    42    16    39    1
    43    17    40    1
    44    18    41    1
    45    21    42    1
    46    22    43    1
    47    23    44    1
    48    24    45    1
