REMARK  Name = NuBBE_2229
REMARK  7 active torsions:
REMARK  status: ('A' for Active; 'I' for Inactive)
REMARK    1  A    between atoms: C_1  and  C_3
REMARK    2  A    between atoms: C_1  and  C_11
REMARK    3  A    between atoms: C_4  and  C_5
REMARK    4  A    between atoms: C_16  and  C_18
REMARK    5  A    between atoms: C_16  and  C_19
REMARK    6  A    between atoms: C_22  and  C_29
REMARK    7  A    between atoms: C_27  and  O_28
REMARK                            x       y       z     vdW  Elec       q    Type
REMARK                         _______ _______ _______ _____ _____    ______ ____
ROOT
ATOM      1  C   LIG A   1      -0.354   0.622  -0.132  0.00  0.00    +0.105 A 
ATOM      2  C   LIG A   1       0.207  -0.628   0.181  0.00  0.00    +0.142 A 
ATOM      3  C   LIG A   1       1.434  -0.713   0.844  0.00  0.00    +0.040 A 
ATOM      4  C   LIG A   1       1.947  -2.077   1.200  0.00  0.00    +0.037 C 
ATOM      5  C   LIG A   1       2.010  -2.761  -0.162  0.00  0.00    +0.040 C 
ATOM      6  C   LIG A   1       0.524  -2.851  -0.695  0.00  0.00    +0.108 C 
ATOM      7  O   LIG A   1      -0.380  -1.805  -0.208  0.00  0.00    -0.485 OA
ATOM      8  C   LIG A   1       0.437  -2.876  -2.227  0.00  0.00    +0.056 C 
ATOM      9  C   LIG A   1      -0.103  -4.161  -0.172  0.00  0.00    +0.056 C 
ATOM     10  C   LIG A   1       3.018  -2.007  -1.084  0.00  0.00    +0.012 C 
ATOM     11  C   LIG A   1       4.319  -1.565  -0.374  0.00  0.00    +0.048 C 
ATOM     12  C   LIG A   1       4.162  -1.034   1.079  0.00  0.00    +0.108 C 
ATOM     13  C   LIG A   1       3.297  -1.991   1.890  0.00  0.00    +0.056 C 
ATOM     14  O   LIG A   1       3.602   0.303   1.135  0.00  0.00    -0.485 OA
ATOM     15  C   LIG A   1       2.256   0.402   0.903  0.00  0.00    +0.132 A 
ATOM     16  C   LIG A   1       1.754   1.651   0.569  0.00  0.00    +0.092 A 
ATOM     17  C   LIG A   1       0.446   1.763   0.079  0.00  0.00    +0.135 A 
ATOM     18  C   LIG A   1       5.549  -0.912   1.723  0.00  0.00    +0.056 C 
ENDROOT
BRANCH   1  19
ATOM     19  C   LIG A   1      -1.724   0.699  -0.730  0.00  0.00    +0.193 C 
ATOM     20  O   LIG A   1      -2.122  -0.150  -1.528  0.00  0.00    -0.287 OA
BRANCH  19  21
ATOM     21  C   LIG A   1      -2.615   1.820  -0.302  0.00  0.00    +0.052 C 
ATOM     22  C   LIG A   1      -3.881   1.913  -0.746  0.00  0.00    +0.012 C 
BRANCH  22  23
ATOM     23  C   LIG A   1      -4.807   3.002  -0.385  0.00  0.00    -0.025 A 
ATOM     24  C   LIG A   1      -5.847   3.336  -1.264  0.00  0.00    +0.008 A 
ATOM     25  C   LIG A   1      -6.753   4.355  -0.949  0.00  0.00    +0.001 A 
ATOM     26  C   LIG A   1      -6.637   5.046   0.255  0.00  0.00    +0.000 A 
ATOM     27  C   LIG A   1      -5.620   4.714   1.146  0.00  0.00    +0.001 A 
ATOM     28  C   LIG A   1      -4.718   3.694   0.831  0.00  0.00    +0.008 A 
ENDBRANCH  22  23
ENDBRANCH  19  21
ENDBRANCH   1  19
BRANCH  17  29
ATOM     29  O   LIG A   1       0.007   3.010  -0.283  0.00  0.00    -0.506 OA
ATOM     30  H   LIG A   1       0.687   3.671  -0.068  0.00  0.00    +0.292 HD
ENDBRANCH  17  29
TORSDOF 4
