@<TRIPOS>MOLECULE
NuBBE_1020
 41 42 0 0 0
SMALL
GASTEIGER

@<TRIPOS>ATOM
      1 C          -3.4861    0.6476   -2.5700 C.3     1  LIG1       -0.0215
      2 C          -2.3472   -0.1583   -3.2152 C.3     1  LIG1        0.1235
      3 O          -1.9322   -1.1840   -2.2863 O.3     1  LIG1       -0.4814
      4 C          -0.9920   -0.8152   -1.3490 C.ar    1  LIG1        0.1358
      5 C          -0.0762    0.2298   -1.5224 C.ar    1  LIG1        0.0586
      6 C          -0.1043    0.8840   -2.8470 C.2     1  LIG1       -0.0478
      7 C          -1.1890    0.7230   -3.6242 C.2     1  LIG1       -0.0408
      8 C           0.8116    0.5669   -0.4421 C.ar    1  LIG1        0.1373
      9 O           1.6148    1.6700   -0.6642 O.3     1  LIG1       -0.4940
     10 C           1.9769    2.5299    0.4161 C.3     1  LIG1        0.0788
     11 C           0.8689   -0.2465    0.7408 C.ar    1  LIG1        0.0372
     12 C          -0.0262   -1.3564    0.8276 C.ar    1  LIG1        0.1302
     13 O          -0.1226   -2.3429    1.7966 O.3     1  LIG1       -0.4946
     14 C           0.7938   -2.3486    2.8650 C.3     1  LIG1        0.0788
     15 C          -0.9689   -1.5828   -0.1910 C.ar    1  LIG1        0.0229
     16 C           1.9100    0.0000    1.8330 C.3     1  LIG1       -0.0107
     17 C           1.3367    0.5392    3.1953 C.3     1  LIG1        0.0490
     18 C           2.2218    0.0683    4.3622 C.2     1  LIG1        0.3050
     19 O           3.3757    0.7702    4.3820 O.3     1  LIG1       -0.4806
     20 O           2.0175   -0.7940    5.1401 O.2     1  LIG1       -0.2510
     21 C          -2.8976   -0.8816   -4.4593 C.3     1  LIG1       -0.0215
     22 H          -3.1556    1.1312   -1.6439 H       1  LIG1        0.0271
     23 H          -4.3180   -0.0104   -2.2876 H       1  LIG1        0.0271
     24 H          -3.8749    1.4223   -3.2397 H       1  LIG1        0.0271
     25 H           0.7505    1.4556   -3.1898 H       1  LIG1        0.0624
     26 H          -1.2482    1.2064   -4.5967 H       1  LIG1        0.0611
     27 H           1.4622    3.4864    0.3477 H       1  LIG1        0.0660
     28 H           3.0635    2.6786    0.3999 H       1  LIG1        0.0660
     29 H           1.7023    2.1985    1.4053 H       1  LIG1        0.0660
     30 H           0.5423   -2.9387    3.7481 H       1  LIG1        0.0660
     31 H           0.6531   -1.4149    3.3197 H       1  LIG1        0.0660
     32 H           1.8363   -2.4939    2.5689 H       1  LIG1        0.0660
     33 H          -1.6925   -2.3898   -0.0916 H       1  LIG1        0.0691
     34 H           2.7333    0.6495    1.5271 H       1  LIG1        0.0321
     35 H           2.5363   -0.8973    1.8811 H       1  LIG1        0.0321
     36 H           0.2986    0.2471    3.4366 H       1  LIG1        0.0381
     37 H           1.1913    1.6174    3.2233 H       1  LIG1        0.0381
     38 H           3.8479    0.3679    5.1453 H       1  LIG1        0.2951
     39 H          -3.6938   -1.5881   -4.1940 H       1  LIG1        0.0271
     40 H          -2.1152   -1.4701   -4.9527 H       1  LIG1        0.0271
     41 H          -3.3047   -0.1764   -5.1951 H       1  LIG1        0.0271
@<TRIPOS>BOND
     1     1     2    1
     2     2     3    1
     3     3     4    1
     4     4     5   ar
     5     5     6    1
     6     6     7    2
     7     5     8   ar
     8     8     9    1
     9     9    10    1
    10     8    11   ar
    11    11    12   ar
    12    12    13    1
    13    13    14    1
    14    12    15   ar
    15     4    15   ar
    16    11    16    1
    17    16    17    1
    18    17    18    1
    19    18    19    1
    20    18    20    2
    21     7     2    1
    22     2    21    1
    23     1    22    1
    24     1    23    1
    25     1    24    1
    26     6    25    1
    27     7    26    1
    28    10    27    1
    29    10    28    1
    30    10    29    1
    31    14    30    1
    32    14    31    1
    33    14    32    1
    34    15    33    1
    35    16    34    1
    36    16    35    1
    37    17    36    1
    38    17    37    1
    39    19    38    1
    40    21    39    1
    41    21    40    1
    42    21    41    1
