@<TRIPOS>MOLECULE
NuBBE_1729
 95 99 0 0 0
SMALL
GASTEIGER

@<TRIPOS>ATOM
      1 C          -2.0807   -0.1212    0.5633 C.3     1  LIG1       -0.0588
      2 C          -1.0783   -0.7973   -0.4275 C.3     1  LIG1       -0.0231
      3 C          -0.0204   -1.7004    0.3039 C.3     1  LIG1       -0.0294
      4 H           0.5410   -2.1875   -0.5086 H       1  LIG1        0.0312
      5 C          -0.6016   -2.9422    1.1040 C.3     1  LIG1       -0.0252
      6 C          -1.3795   -2.4808    2.3567 C.3     1  LIG1       -0.0590
      7 C          -1.4504   -3.7967    0.0931 C.3     1  LIG1       -0.0268
      8 H          -0.7358   -4.1076   -0.6870 H       1  LIG1        0.0312
      9 C          -2.5005   -2.9449   -0.6572 C.3     1  LIG1       -0.0486
     10 C          -1.9005   -1.7260   -1.3624 C.3     1  LIG1       -0.0466
     11 C          -2.0270   -5.1426    0.6667 C.3     1  LIG1        0.0055
     12 C          -3.3762   -4.9340    1.4004 C.3     1  LIG1       -0.0562
     13 C          -2.3772   -6.0855   -0.5276 C.3     1  LIG1       -0.0562
     14 C          -0.9533   -5.9323    1.5053 C.3     1  LIG1        0.1084
     15 H          -0.3596   -6.5075    0.7813 H       1  LIG1        0.0739
     16 C           0.0852   -5.1258    2.2918 C.3     1  LIG1       -0.0146
     17 C           0.5633   -3.8616    1.5726 C.3     1  LIG1       -0.0437
     18 O          -1.6452   -6.8663    2.3739 O.3     1  LIG1       -0.4610
     19 C          -1.2466   -8.1566    2.3532 C.2     1  LIG1        0.3042
     20 O          -0.1515   -8.5540    1.9389 O.2     1  LIG1       -0.2512
     21 C          -2.3388   -9.0758    2.8013 C.3     1  LIG1        0.0332
     22 C           1.0667   -0.8926    1.0464 C.3     1  LIG1       -0.0489
     23 C           0.9464    0.6255    1.0010 C.3     1  LIG1       -0.0491
     24 C           0.5709    1.2435   -0.3520 C.3     1  LIG1       -0.0297
     25 H           1.5153    1.4655   -0.8684 H       1  LIG1        0.0310
     26 C          -0.2975    0.3143   -1.2690 C.3     1  LIG1       -0.0232
     27 C           0.6623   -0.2795   -2.3388 C.3     1  LIG1       -0.0588
     28 C          -1.2590    1.2684   -2.0278 C.3     1  LIG1       -0.0465
     29 C          -0.8487    2.6790   -1.6438 C.3     1  LIG1       -0.0468
     30 C          -0.2173    2.5770   -0.2500 C.3     1  LIG1       -0.0088
     31 H          -1.0320    2.4509    0.4759 H       1  LIG1        0.0331
     32 C           0.5832    3.8504    0.1817 C.3     1  LIG1        0.0704
     33 C           1.1520    3.6794    1.5978 C.3     1  LIG1       -0.0355
     34 O           1.6929    4.0952   -0.7126 O.3     1  LIG1       -0.3662
     35 C           1.4835    5.3100   -1.4795 C.3     1  LIG1        0.0986
     36 H           1.5935    5.0267   -2.5334 H       1  LIG1        0.0636
     37 C           0.0378    5.7239   -1.2145 C.3     1  LIG1       -0.0202
     38 C          -0.2867    5.1105    0.1263 C.3     1  LIG1       -0.0213
     39 C           2.5677    6.3914   -1.1490 C.3     1  LIG1        0.1338
     40 O           3.9096    5.8938   -1.4608 O.3     1  LIG1       -0.4562
     41 C           4.3815    5.8150   -2.7278 C.2     1  LIG1        0.3045
     42 O           3.7880    6.1550   -3.7424 O.2     1  LIG1       -0.2511
     43 C           5.7979    5.3166   -2.7208 C.3     1  LIG1        0.0333
     44 C           2.2937    7.7329   -1.8527 C.3     1  LIG1       -0.0226
     45 C           2.6614    6.6811    0.3553 C.3     1  LIG1       -0.0226
     46 H          -2.9361   -0.7531    0.8034 H       1  LIG1        0.0235
     47 H          -2.5430    0.7839    0.1672 H       1  LIG1        0.0235
     48 H          -1.6239    0.1579    1.5127 H       1  LIG1        0.0235
     49 H          -0.8816   -1.6454    2.8585 H       1  LIG1        0.0235
     50 H          -1.4797   -3.2588    3.1150 H       1  LIG1        0.0235
     51 H          -2.3997   -2.1753    2.1317 H       1  LIG1        0.0235
     52 H          -3.2965   -2.6218    0.0170 H       1  LIG1        0.0268
     53 H          -2.9903   -3.5494   -1.4282 H       1  LIG1        0.0268
     54 H          -2.7113   -1.1658   -1.8431 H       1  LIG1        0.0271
     55 H          -1.2740   -2.1111   -2.1729 H       1  LIG1        0.0271
     56 H          -3.8187   -5.8821    1.7239 H       1  LIG1        0.0236
     57 H          -4.1234   -4.4877    0.7317 H       1  LIG1        0.0236
     58 H          -3.2959   -4.2911    2.2762 H       1  LIG1        0.0236
     59 H          -3.1916   -5.6942   -1.1434 H       1  LIG1        0.0236
     60 H          -2.6915   -7.0734   -0.1702 H       1  LIG1        0.0236
     61 H          -1.5086   -6.2337   -1.1799 H       1  LIG1        0.0236
     62 H           0.9634   -5.7671    2.4564 H       1  LIG1        0.0301
     63 H          -0.2584   -4.8968    3.3060 H       1  LIG1        0.0301
     64 H           1.1724   -4.1542    0.7056 H       1  LIG1        0.0272
     65 H           1.2429   -3.3263    2.2451 H       1  LIG1        0.0272
     66 H          -2.0276   -9.6561    3.6704 H       1  LIG1        0.0342
     67 H          -2.5889   -9.7538    1.9702 H       1  LIG1        0.0342
     68 H          -3.2463   -8.5182    3.0496 H       1  LIG1        0.0342
     69 H           2.0401   -1.1644    0.6144 H       1  LIG1        0.0268
     70 H           1.1377   -1.1795    2.1000 H       1  LIG1        0.0268
     71 H           1.9190    1.0197    1.3144 H       1  LIG1        0.0268
     72 H           0.2485    0.9447    1.7810 H       1  LIG1        0.0268
     73 H           1.4687   -0.8705   -1.8974 H       1  LIG1        0.0235
     74 H           1.1451    0.5242   -2.9100 H       1  LIG1        0.0235
     75 H           0.1385   -0.8975   -3.0724 H       1  LIG1        0.0235
     76 H          -2.3124    1.1118   -1.7820 H       1  LIG1        0.0271
     77 H          -1.2082    1.1459   -3.1163 H       1  LIG1        0.0271
     78 H          -1.7228    3.3386   -1.6486 H       1  LIG1        0.0269
     79 H          -0.1298    3.0489   -2.3813 H       1  LIG1        0.0269
     80 H           0.4137    3.2521    2.2833 H       1  LIG1        0.0257
     81 H           1.4697    4.6317    2.0317 H       1  LIG1        0.0257
     82 H           2.0552    3.0641    1.5915 H       1  LIG1        0.0257
     83 H          -0.6109    5.2954   -1.9853 H       1  LIG1        0.0292
     84 H          -0.1513    6.7978   -1.2383 H       1  LIG1        0.0292
     85 H          -1.3540    4.9134    0.2651 H       1  LIG1        0.0294
     86 H          -0.0102    5.8181    0.9146 H       1  LIG1        0.0294
     87 H           6.4897    6.1632   -2.7122 H       1  LIG1        0.0342
     88 H           5.9700    4.7034   -3.6096 H       1  LIG1        0.0342
     89 H           5.9801    4.6884   -1.8439 H       1  LIG1        0.0342
     90 H           2.0995    7.6049   -2.9214 H       1  LIG1        0.0269
     91 H           3.1527    8.4055   -1.7554 H       1  LIG1        0.0269
     92 H           1.4229    8.2437   -1.4300 H       1  LIG1        0.0269
     93 H           2.9570    5.7865    0.9099 H       1  LIG1        0.0269
     94 H           1.7268    7.0745    0.7607 H       1  LIG1        0.0269
     95 H           3.4440    7.4214    0.5571 H       1  LIG1        0.0269
@<TRIPOS>BOND
     1     1     2    1
     2     2     3    1
     3     3     4    1
     4     3     5    1
     5     5     6    1
     6     5     7    1
     7     7     8    1
     8     7     9    1
     9     9    10    1
    10     2    10    1
    11     7    11    1
    12    11    12    1
    13    11    13    1
    14    11    14    1
    15    14    16    1
    16    16    17    1
    17     5    17    1
    18    18    19    1
    19    19    20    2
    20    19    21    1
    21     3    22    1
    22    22    23    1
    23    23    24    1
    24    24    25    1
    25    24    26    1
    26     2    26    1
    27    26    27    1
    28    26    28    1
    29    28    29    1
    30    29    30    1
    31    30    31    1
    32    24    30    1
    33    30    32    1
    34    32    33    1
    35    32    34    1
    36    34    35    1
    37    35    36    1
    38    35    37    1
    39    37    38    1
    40    32    38    1
    41    35    39    1
    42    39    40    1
    43    40    41    1
    44    41    42    2
    45    41    43    1
    46    39    44    1
    47    39    45    1
    48    14    18    1
    49    14    15    1
    50     1    46    1
    51     1    47    1
    52     1    48    1
    53     6    49    1
    54     6    50    1
    55     6    51    1
    56     9    52    1
    57     9    53    1
    58    10    54    1
    59    10    55    1
    60    12    56    1
    61    12    57    1
    62    12    58    1
    63    13    59    1
    64    13    60    1
    65    13    61    1
    66    16    62    1
    67    16    63    1
    68    17    64    1
    69    17    65    1
    70    21    66    1
    71    21    67    1
    72    21    68    1
    73    22    69    1
    74    22    70    1
    75    23    71    1
    76    23    72    1
    77    27    73    1
    78    27    74    1
    79    27    75    1
    80    28    76    1
    81    28    77    1
    82    29    78    1
    83    29    79    1
    84    33    80    1
    85    33    81    1
    86    33    82    1
    87    37    83    1
    88    37    84    1
    89    38    85    1
    90    38    86    1
    91    43    87    1
    92    43    88    1
    93    43    89    1
    94    44    90    1
    95    44    91    1
    96    44    92    1
    97    45    93    1
    98    45    94    1
    99    45    95    1
