REMARK  Name = NuBBE_2066
REMARK  8 active torsions:
REMARK  status: ('A' for Active; 'I' for Inactive)
REMARK    1  A    between atoms: C_1  and  O_2
REMARK    2  A    between atoms: O_2  and  C_3
REMARK    3  A    between atoms: C_13  and  O_15
REMARK    4  A    between atoms: O_15  and  C_16
REMARK    5  A    between atoms: C_19  and  O_20
REMARK    6  A    between atoms: O_20  and  C_21
REMARK    7  A    between atoms: C_22  and  O_23
REMARK    8  A    between atoms: O_23  and  C_24
REMARK                            x       y       z     vdW  Elec       q    Type
REMARK                         _______ _______ _______ _____ _____    ______ ____
ROOT
ATOM      1  C   LIG A   1       1.716   2.268   1.630  0.00  0.00    +0.147 C 
ATOM      2  C   LIG A   1       0.507   3.161   1.699  0.00  0.00    +0.005 C 
ATOM      3  C   LIG A   1      -0.442   3.212   0.749  0.00  0.00    +0.008 C 
ATOM      4  C   LIG A   1      -0.358   2.342  -0.381  0.00  0.00    +0.009 C 
ATOM      5  C   LIG A   1      -0.905   2.588  -1.583  0.00  0.00    +0.033 C 
ATOM      6  C   LIG A   1      -0.367   1.633  -2.596  0.00  0.00    +0.160 C 
ATOM      7  N   LIG A   1       0.840   0.972  -1.942  0.00  0.00    +0.233 N 
ATOM      8  O   LIG A   1       1.961   1.712  -2.361  0.00  0.00    -0.774 OA
ATOM      9  C   LIG A   1       1.130  -0.432  -2.359  0.00  0.00    +0.168 C 
ATOM     10  C   LIG A   1       0.057  -1.442  -2.017  0.00  0.00    +0.193 C 
ATOM     11  C   LIG A   1      -0.329  -1.333  -0.560  0.00  0.00    -0.001 A 
ATOM     12  C   LIG A   1      -0.912  -2.476   0.029  0.00  0.00    +0.056 A 
ATOM     13  C   LIG A   1      -1.391  -2.477   1.339  0.00  0.00    +0.162 A 
ATOM     14  C   LIG A   1      -1.294  -1.300   2.086  0.00  0.00    +0.162 A 
ATOM     15  C   LIG A   1      -0.705  -0.158   1.504  0.00  0.00    +0.059 A 
ATOM     16  C   LIG A   1      -0.186  -0.146   0.186  0.00  0.00    +0.017 A 
ATOM     17  C   LIG A   1       0.552   1.109  -0.390  0.00  0.00    +0.044 C 
ATOM     18  C   LIG A   1       1.866   1.358   0.393  0.00  0.00    +0.103 C 
ENDROOT
BRANCH   1  20
ATOM     19  C   LIG A   1       3.104   4.111   0.899  0.00  0.00    +0.194 C 
ATOM     20  O   LIG A   1       2.903   3.053   1.839  0.00  0.00    -0.376 OA
ENDBRANCH   1  20
BRANCH  10  21
ATOM     21  O   LIG A   1      -1.143  -1.307  -2.785  0.00  0.00    -0.370 OA
ATOM     22  C   LIG A   1      -1.008  -1.619  -4.166  0.00  0.00    +0.195 C 
ENDBRANCH  10  21
BRANCH  13  23
ATOM     23  O   LIG A   1      -2.050  -3.550   1.871  0.00  0.00    -0.491 OA
ATOM     24  C   LIG A   1      -1.692  -4.839   1.392  0.00  0.00    +0.277 C 
ENDBRANCH  13  23
BRANCH  14  25
ATOM     25  O   LIG A   1      -1.762  -1.101   3.363  0.00  0.00    -0.491 OA
ATOM     26  C   LIG A   1      -1.768  -2.231   4.232  0.00  0.00    +0.277 C 
ENDBRANCH  14  25
TORSDOF 4
