REMARK  Name = NuBBE_121
REMARK  10 active torsions:
REMARK  status: ('A' for Active; 'I' for Inactive)
REMARK    1  A    between atoms: O_1  and  C_2
REMARK    2  A    between atoms: C_5  and  C_8
REMARK    3  A    between atoms: C_9  and  O_10
REMARK    4  A    between atoms: O_10  and  C_11
REMARK    5  A    between atoms: C_14  and  C_16
REMARK    6  A    between atoms: C_17  and  O_19
REMARK    7  A    between atoms: C_20  and  O_22
REMARK    8  A    between atoms: C_23  and  O_25
REMARK    9  A    between atoms: C_28  and  O_29
REMARK   10  A    between atoms: C_31  and  O_32
REMARK                            x       y       z     vdW  Elec       q    Type
REMARK                         _______ _______ _______ _____ _____    ______ ____
ROOT
ATOM      1  C   LIG A   1      -0.450  -1.244  -1.607  0.00  0.00    +0.181 A 
ATOM      2  C   LIG A   1      -0.846  -0.358  -0.667  0.00  0.00    +0.214 A 
ATOM      3  C   LIG A   1      -1.580  -0.918   0.513  0.00  0.00    +0.238 A 
ATOM      4  C   LIG A   1      -1.581  -2.369   0.683  0.00  0.00    +0.109 A 
ATOM      5  C   LIG A   1      -1.959  -2.959   1.900  0.00  0.00    +0.135 A 
ATOM      6  C   LIG A   1      -1.894  -4.337   2.061  0.00  0.00    +0.091 A 
ATOM      7  C   LIG A   1      -1.485  -5.118   0.985  0.00  0.00    +0.124 A 
ATOM      8  C   LIG A   1      -1.121  -4.541  -0.233  0.00  0.00    +0.092 A 
ATOM      9  C   LIG A   1      -1.141  -3.153  -0.373  0.00  0.00    +0.146 A 
ATOM     10  O   LIG A   1      -0.690  -2.615  -1.553  0.00  0.00    -0.451 OA
ATOM     11  O   LIG A   1      -2.082  -0.232   1.394  0.00  0.00    -0.283 OA
ENDROOT
BRANCH   1  15
ATOM     12  C   LIG A   1       1.804  -0.112  -5.082  0.00  0.00    +0.117 A 
ATOM     13  C   LIG A   1       2.471  -0.504  -3.927  0.00  0.00    +0.046 A 
ATOM     14  C   LIG A   1       1.733  -0.869  -2.791  0.00  0.00    +0.015 A 
ATOM     15  C   LIG A   1       0.328  -0.847  -2.805  0.00  0.00    +0.021 A 
ATOM     16  C   LIG A   1      -0.322  -0.460  -3.986  0.00  0.00    +0.015 A 
ATOM     17  C   LIG A   1       0.415  -0.093  -5.120  0.00  0.00    +0.046 A 
BRANCH  12  18
ATOM     18  O   LIG A   1       2.479   0.267  -6.205  0.00  0.00    -0.507 OA
ATOM     19  H   LIG A   1       3.433   0.258  -6.018  0.00  0.00    +0.292 HD
ENDBRANCH  12  18
ENDBRANCH   1  15
BRANCH   5  20
ATOM     20  O   LIG A   1      -2.380  -2.243   2.988  0.00  0.00    -0.506 OA
ATOM     21  H   LIG A   1      -2.517  -1.311   2.712  0.00  0.00    +0.292 HD
ENDBRANCH   5  20
BRANCH   7  22
ATOM     22  O   LIG A   1      -1.413  -6.475   1.094  0.00  0.00    -0.506 OA
ATOM     23  H   LIG A   1      -1.659  -6.732   2.000  0.00  0.00    +0.292 HD
ENDBRANCH   7  22
BRANCH   2  24
ATOM     24  O   LIG A   1      -0.530   0.994  -0.760  0.00  0.00    -0.453 OA
BRANCH  24  25
ATOM     25  C   LIG A   1      -0.412   1.756   0.460  0.00  0.00    +0.340 C 
ATOM     26  O   LIG A   1      -0.106   3.118   0.124  0.00  0.00    -0.334 OA
ATOM     27  C   LIG A   1       0.073   3.989   1.257  0.00  0.00    +0.150 C 
ATOM     28  C   LIG A   1      -1.255   4.270   1.962  0.00  0.00    +0.040 C 
ATOM     29  C   LIG A   1       1.140   3.461   2.236  0.00  0.00    +0.174 C 
ATOM     30  C   LIG A   1       1.770   2.175   1.701  0.00  0.00    +0.180 C 
ATOM     31  C   LIG A   1       0.683   1.153   1.388  0.00  0.00    +0.214 C 
BRANCH  29  32
ATOM     32  O   LIG A   1       2.173   4.439   2.422  0.00  0.00    -0.387 OA
ATOM     33  H   LIG A   1       2.936   3.945   2.784  0.00  0.00    +0.210 HD
ENDBRANCH  29  32
BRANCH  30  34
ATOM     34  O   LIG A   1       2.664   1.650   2.701  0.00  0.00    -0.386 OA
ATOM     35  H   LIG A   1       2.091   1.134   3.307  0.00  0.00    +0.210 HD
ENDBRANCH  30  34
BRANCH  31  36
ATOM     36  O   LIG A   1       0.138   0.732   2.662  0.00  0.00    -0.383 OA
ATOM     37  H   LIG A   1      -0.736   0.324   2.489  0.00  0.00    +0.210 HD
ENDBRANCH  31  36
ENDBRANCH  24  25
ENDBRANCH   2  24
TORSDOF 9
