@<TRIPOS>MOLECULE
NuBBE_1888
 51 53 0 0 0
SMALL
GASTEIGER

@<TRIPOS>ATOM
      1 O          -3.5948   -0.6471    1.2375 O.2     1  LIG1       -0.2830
      2 C          -2.4810   -0.7261    0.6965 C.ar    1  LIG1        0.2381
      3 C          -1.7801   -2.0072    0.5040 C.ar    1  LIG1        0.1094
      4 C          -2.3865   -3.2534    0.2682 C.ar    1  LIG1        0.1380
      5 O          -3.7502   -3.3115    0.1067 O.3     1  LIG1       -0.4942
      6 C          -4.3418   -4.5864    0.3698 C.3     1  LIG1        0.0788
      7 C          -1.5674   -4.3883    0.1335 C.ar    1  LIG1        0.0227
      8 C          -0.1837   -4.3049    0.3141 C.ar    1  LIG1        0.1271
      9 O           0.5266   -5.4726    0.2370 O.3     1  LIG1       -0.4949
     10 C           1.7256   -5.4776    1.0155 C.3     1  LIG1        0.0788
     11 C           0.4014   -3.0644    0.5128 C.ar    1  LIG1        0.0233
     12 C          -0.3882   -1.9270    0.5839 C.ar    1  LIG1        0.1466
     13 O           0.2873   -0.7428    0.7170 O.2     1  LIG1       -0.4505
     14 C          -0.3873    0.3955    0.3430 C.ar    1  LIG1        0.1844
     15 C           0.4948    1.5120   -0.0075 C.ar    1  LIG1        0.0663
     16 C           0.8573    1.6551   -1.3562 C.ar    1  LIG1       -0.0020
     17 C           1.6874    2.6997   -1.7762 C.ar    1  LIG1        0.1624
     18 O           2.0537    2.8686   -3.0895 O.3     1  LIG1       -0.4914
     19 C           2.0973    1.6700   -3.8637 C.3     1  LIG1        0.0790
     20 C           2.1525    3.6266   -0.8303 C.ar    1  LIG1        0.1650
     21 O           2.9372    4.6723   -1.2578 O.3     1  LIG1       -0.4913
     22 C           3.8323    5.2104   -0.2820 C.3     1  LIG1        0.0790
     23 C           1.7817    3.4794    0.5106 C.ar    1  LIG1        0.0261
     24 C           0.9635    2.4320    0.9391 C.ar    1  LIG1        0.1346
     25 O           0.5757    2.2622    2.2456 O.3     1  LIG1       -0.4943
     26 C           1.0554    3.2289    3.1783 C.3     1  LIG1        0.0788
     27 C          -1.7285    0.4910    0.2611 C.ar    1  LIG1        0.2108
     28 O          -2.3431    1.6480   -0.1798 O.3     1  LIG1       -0.4883
     29 C          -3.5754    1.4699   -0.8696 C.3     1  LIG1        0.0791
     30 H          -5.4301   -4.4767    0.3764 H       1  LIG1        0.0660
     31 H          -4.0345   -4.9637    1.3520 H       1  LIG1        0.0660
     32 H          -4.0983   -5.3092   -0.4174 H       1  LIG1        0.0660
     33 H          -1.9841   -5.3610   -0.1106 H       1  LIG1        0.0691
     34 H           2.2318   -6.4339    0.8657 H       1  LIG1        0.0660
     35 H           1.4883   -5.3699    2.0800 H       1  LIG1        0.0660
     36 H           2.4323   -4.7044    0.6986 H       1  LIG1        0.0660
     37 H           1.4738   -2.9363    0.5849 H       1  LIG1        0.0691
     38 H           0.4556    0.9424   -2.0697 H       1  LIG1        0.0663
     39 H           1.0902    1.3205   -4.1188 H       1  LIG1        0.0660
     40 H           2.6597    0.8844   -3.3455 H       1  LIG1        0.0660
     41 H           2.6147    1.8868   -4.8022 H       1  LIG1        0.0660
     42 H           4.4461    5.9768   -0.7622 H       1  LIG1        0.0660
     43 H           4.4980    4.4292    0.1023 H       1  LIG1        0.0660
     44 H           3.3060    5.7083    0.5410 H       1  LIG1        0.0660
     45 H           2.1199    4.2108    1.2280 H       1  LIG1        0.0692
     46 H           0.6050    3.0280    4.1532 H       1  LIG1        0.0660
     47 H           0.7621    4.2455    2.8904 H       1  LIG1        0.0660
     48 H           2.1437    3.1511    3.2859 H       1  LIG1        0.0660
     49 H          -3.5663    2.1286   -1.7447 H       1  LIG1        0.0660
     50 H          -4.3949    1.7802   -0.2169 H       1  LIG1        0.0660
     51 H          -3.7406    0.4501   -1.2320 H       1  LIG1        0.0660
@<TRIPOS>BOND
     1     1     2    2
     2     2     3   ar
     3     3     4   ar
     4     4     5    1
     5     5     6    1
     6     4     7   ar
     7     7     8   ar
     8     8     9    1
     9     9    10    1
    10     8    11   ar
    11    11    12   ar
    12     3    12   ar
    13    12    13   ar
    14    13    14   ar
    15    14    15    1
    16    15    16   ar
    17    16    17   ar
    18    17    18    1
    19    18    19    1
    20    17    20   ar
    21    20    21    1
    22    21    22    1
    23    20    23   ar
    24    23    24   ar
    25    15    24   ar
    26    24    25    1
    27    25    26    1
    28    14    27   ar
    29     2    27   ar
    30    27    28    1
    31    28    29    1
    32     6    30    1
    33     6    31    1
    34     6    32    1
    35     7    33    1
    36    10    34    1
    37    10    35    1
    38    10    36    1
    39    11    37    1
    40    16    38    1
    41    19    39    1
    42    19    40    1
    43    19    41    1
    44    22    42    1
    45    22    43    1
    46    22    44    1
    47    23    45    1
    48    26    46    1
    49    26    47    1
    50    26    48    1
    51    29    49    1
    52    29    50    1
    53    29    51    1
