@<TRIPOS>MOLECULE
NuBBE_1882
 61 63 0 0 0
SMALL
GASTEIGER

@<TRIPOS>ATOM
      1 O          -3.4013   -0.8762    1.1582 O.2     1  LIG1       -0.2830
      2 C          -2.2595   -0.6848    0.7646 C.ar    1  LIG1        0.2382
      3 C          -1.2737   -1.7791    0.6749 C.ar    1  LIG1        0.1138
      4 C          -1.5919   -3.1066    0.4014 C.ar    1  LIG1        0.1911
      5 C          -0.5786   -4.0824    0.2610 C.ar    1  LIG1        0.2052
      6 O          -1.0352   -5.3266   -0.0965 O.3     1  LIG1       -0.4885
      7 C          -0.2988   -6.4609    0.3324 C.3     1  LIG1        0.0791
      8 C           0.7673   -3.7092    0.4538 C.ar    1  LIG1        0.1687
      9 C           1.0746   -2.3782    0.7609 C.ar    1  LIG1        0.0270
     10 C           0.0600   -1.4277    0.8412 C.ar    1  LIG1        0.1468
     11 O           0.4332   -0.1286    1.0693 O.2     1  LIG1       -0.4505
     12 C          -0.4113    0.8311    0.5377 C.ar    1  LIG1        0.1845
     13 C           0.3206    2.0152    0.0781 C.ar    1  LIG1        0.0671
     14 C           0.8915    1.9597   -1.1967 C.ar    1  LIG1       -0.0012
     15 C           1.6999    3.0023   -1.6448 C.ar    1  LIG1        0.1739
     16 O           2.3857    2.9334   -2.8822 O.3     1  LIG1       -0.4223
     17 C           1.8941    2.2307   -3.9811 C.2     1  LIG1        0.3093
     18 C           2.9060    2.2994   -5.0826 C.3     1  LIG1        0.0336
     19 O           0.8285    1.6373   -4.0642 O.2     1  LIG1       -0.2507
     20 C           1.9741    4.1082   -0.8236 C.ar    1  LIG1        0.1657
     21 C           1.3819    4.1806    0.4414 C.ar    1  LIG1        0.0269
     22 C           0.5616    3.1341    0.8837 C.ar    1  LIG1        0.1461
     23 O           0.1325    3.0671    2.2284 O.3     1  LIG1       -0.4252
     24 C          -0.3488    4.1919    2.9018 C.2     1  LIG1        0.3092
     25 C          -0.3273    3.8687    4.3705 C.3     1  LIG1        0.0336
     26 O          -0.6773    5.2543    2.4173 O.2     1  LIG1       -0.2507
     27 O           2.8046    5.0654   -1.3465 O.3     1  LIG1       -0.4913
     28 C           3.5980    5.7902   -0.4134 C.3     1  LIG1        0.0790
     29 C          -1.7316    0.6541    0.3368 C.ar    1  LIG1        0.2108
     30 O          -2.4821    1.6016   -0.3343 O.3     1  LIG1       -0.4883
     31 C          -3.8838    1.5958   -0.1115 C.3     1  LIG1        0.0791
     32 O           1.7512   -4.6413    0.2588 O.3     1  LIG1       -0.4912
     33 C           2.9320   -4.4939    1.0423 C.3     1  LIG1        0.0790
     34 O          -2.9289   -3.5389    0.4903 O.3     1  LIG1       -0.4213
     35 C          -3.5522   -3.9821   -0.6695 C.2     1  LIG1        0.3093
     36 C          -4.6256   -4.9548   -0.2617 C.3     1  LIG1        0.0336
     37 O          -3.2598   -3.6878   -1.8191 O.2     1  LIG1       -0.2507
     38 H          -0.1293   -6.4349    1.4131 H       1  LIG1        0.0660
     39 H           0.6328   -6.5835   -0.2249 H       1  LIG1        0.0660
     40 H          -0.9067   -7.3433    0.1094 H       1  LIG1        0.0660
     41 H           2.0993   -2.0418    0.8834 H       1  LIG1        0.0692
     42 H           0.7259    1.0767   -1.8074 H       1  LIG1        0.0664
     43 H           3.8326    1.8162   -4.7627 H       1  LIG1        0.0342
     44 H           3.0848    3.3423   -5.3537 H       1  LIG1        0.0342
     45 H           2.5203    1.7706   -5.9589 H       1  LIG1        0.0342
     46 H           1.5608    5.0263    1.0948 H       1  LIG1        0.0692
     47 H           0.7017    3.6422    4.6658 H       1  LIG1        0.0342
     48 H          -0.9784    3.0167    4.5787 H       1  LIG1        0.0342
     49 H          -0.6698    4.7320    4.9462 H       1  LIG1        0.0342
     50 H           4.2412    6.4687   -0.9828 H       1  LIG1        0.0660
     51 H           4.2451    5.1152    0.1575 H       1  LIG1        0.0660
     52 H           2.9874    6.4070    0.2518 H       1  LIG1        0.0660
     53 H          -4.3264    2.3439   -0.7767 H       1  LIG1        0.0660
     54 H          -4.0989    1.8868    0.9205 H       1  LIG1        0.0660
     55 H          -4.3459    0.6388   -0.3664 H       1  LIG1        0.0660
     56 H           3.5041   -5.4226    0.9556 H       1  LIG1        0.0660
     57 H           2.6925   -4.3450    2.1008 H       1  LIG1        0.0660
     58 H           3.5619   -3.6836    0.6625 H       1  LIG1        0.0660
     59 H          -4.1522   -5.8903    0.0529 H       1  LIG1        0.0342
     60 H          -5.2972   -5.1578   -1.0988 H       1  LIG1        0.0342
     61 H          -5.2148   -4.5426    0.5622 H       1  LIG1        0.0342
@<TRIPOS>BOND
     1     1     2    2
     2     2     3   ar
     3     3     4   ar
     4     4     5   ar
     5     5     6    1
     6     6     7    1
     7     5     8   ar
     8     8     9   ar
     9     9    10   ar
    10     3    10   ar
    11    10    11   ar
    12    11    12   ar
    13    12    13    1
    14    13    14   ar
    15    14    15   ar
    16    15    16    1
    17    16    17    1
    18    17    18    1
    19    17    19    2
    20    15    20   ar
    21    20    21   ar
    22    21    22   ar
    23    13    22   ar
    24    22    23    1
    25    23    24    1
    26    24    25    1
    27    24    26    2
    28    20    27    1
    29    27    28    1
    30    12    29   ar
    31     2    29   ar
    32    29    30    1
    33    30    31    1
    34     8    32    1
    35    32    33    1
    36     4    34    1
    37    34    35    1
    38    35    36    1
    39    35    37    2
    40     7    38    1
    41     7    39    1
    42     7    40    1
    43     9    41    1
    44    14    42    1
    45    18    43    1
    46    18    44    1
    47    18    45    1
    48    21    46    1
    49    25    47    1
    50    25    48    1
    51    25    49    1
    52    28    50    1
    53    28    51    1
    54    28    52    1
    55    31    53    1
    56    31    54    1
    57    31    55    1
    58    33    56    1
    59    33    57    1
    60    33    58    1
    61    36    59    1
    62    36    60    1
    63    36    61    1
