REMARK  Name = NuBBE_402
REMARK  7 active torsions:
REMARK  status: ('A' for Active; 'I' for Inactive)
REMARK    1  A    between atoms: C_1  and  C_2
REMARK    2  A    between atoms: C_2  and  S_3
REMARK    3  A    between atoms: S_3  and  S_4
REMARK    4  A    between atoms: S_4  and  S_5
REMARK    5  A    between atoms: S_5  and  S_6
REMARK    6  A    between atoms: S_6  and  C_7
REMARK    7  A    between atoms: C_7  and  C_8
REMARK                            x       y       z     vdW  Elec       q    Type
REMARK                         _______ _______ _______ _____ _____    ______ ____
ROOT
ATOM      1  S   LIG A   1      -2.432  -1.723  -2.097  0.00  0.00    -0.013 S 
ENDROOT
BRANCH   1   2
ATOM      2  S   LIG A   1      -1.638   0.133  -2.498  0.00  0.00    -0.076 S 
BRANCH   2   3
ATOM      3  C   LIG A   1      -0.108  -0.169  -3.439  0.00  0.00    +0.116 C 
BRANCH   3   4
ATOM      4  C   LIG A   1       0.935  -0.990  -2.718  0.00  0.00    -0.037 A 
ATOM      5  C   LIG A   1       1.873  -0.393  -1.869  0.00  0.00    +0.004 A 
ATOM      6  C   LIG A   1       2.817  -1.180  -1.190  0.00  0.00    +0.000 A 
ATOM      7  C   LIG A   1       2.809  -2.561  -1.348  0.00  0.00    +0.000 A 
ATOM      8  C   LIG A   1       1.881  -3.168  -2.185  0.00  0.00    +0.000 A 
ATOM      9  C   LIG A   1       0.953  -2.380  -2.880  0.00  0.00    +0.004 A 
ENDBRANCH   3   4
ENDBRANCH   2   3
ENDBRANCH   1   2
BRANCH   1  10
ATOM     10  S   LIG A   1      -1.415  -2.463  -0.470  0.00  0.00    -0.013 S 
BRANCH  10  11
ATOM     11  S   LIG A   1      -1.968  -1.322   1.135  0.00  0.00    -0.076 S 
BRANCH  11  12
ATOM     12  C   LIG A   1      -0.739   0.020   1.082  0.00  0.00    +0.116 C 
BRANCH  12  13
ATOM     13  C   LIG A   1      -1.006   1.106   2.098  0.00  0.00    -0.037 A 
ATOM     14  C   LIG A   1      -2.228   1.793   2.116  0.00  0.00    +0.004 A 
ATOM     15  C   LIG A   1      -2.420   2.884   2.962  0.00  0.00    +0.000 A 
ATOM     16  C   LIG A   1      -1.383   3.301   3.802  0.00  0.00    +0.000 A 
ATOM     17  C   LIG A   1      -0.176   2.611   3.805  0.00  0.00    +0.000 A 
ATOM     18  C   LIG A   1       0.017   1.515   2.967  0.00  0.00    +0.004 A 
ENDBRANCH  12  13
ENDBRANCH  11  12
ENDBRANCH  10  11
ENDBRANCH   1  10
TORSDOF 7
