REMARK  Name = NuBBE_2239
REMARK  8 active torsions:
REMARK  status: ('A' for Active; 'I' for Inactive)
REMARK    1  A    between atoms: C_11  and  C_12
REMARK    2  A    between atoms: C_13  and  O_15
REMARK    3  A    between atoms: O_15  and  C_16
REMARK    4  A    between atoms: C_16  and  C_17
REMARK    5  A    between atoms: C_20  and  C_21
REMARK    6  A    between atoms: C_20  and  C_22
REMARK    7  A    between atoms: C_25  and  C_26
REMARK    8  A    between atoms: C_25  and  C_27
REMARK                            x       y       z     vdW  Elec       q    Type
REMARK                         _______ _______ _______ _____ _____    ______ ____
ROOT
ATOM      1  O   LIG A   1       4.423   2.932  -0.662  0.00  0.00    -0.292 OA
ATOM      2  C   LIG A   1       3.404   2.277  -0.432  0.00  0.00    +0.164 C 
ATOM      3  C   LIG A   1       2.902   1.401  -1.511  0.00  0.00    +0.045 C 
ATOM      4  C   LIG A   1       1.973   0.470  -1.267  0.00  0.00    +0.014 C 
ATOM      5  C   LIG A   1       1.366   0.179   0.051  0.00  0.00    +0.128 C 
ATOM      6  O   LIG A   1       2.233   0.025   1.195  0.00  0.00    -0.355 OA
ATOM      7  C   LIG A   1       1.586   1.296   1.119  0.00  0.00    +0.116 C 
ATOM      8  C   LIG A   1       0.588   1.509   2.243  0.00  0.00    +0.039 C 
ATOM      9  C   LIG A   1      -0.602   0.559   2.272  0.00  0.00    +0.007 C 
ATOM     10  C   LIG A   1      -1.014   0.133   0.861  0.00  0.00    +0.002 C 
ATOM     11  C   LIG A   1       0.087  -0.742   0.168  0.00  0.00    +0.043 C 
ATOM     12  C   LIG A   1       0.454  -1.977   1.031  0.00  0.00    +0.018 C 
ATOM     13  C   LIG A   1      -0.478  -1.213  -1.229  0.00  0.00    +0.186 C 
ATOM     14  C   LIG A   1      -1.936  -1.713  -1.250  0.00  0.00    +0.056 C 
ATOM     15  C   LIG A   1      -2.946  -0.790  -0.535  0.00  0.00    -0.011 C 
ATOM     16  C   LIG A   1      -4.291  -1.535  -0.433  0.00  0.00    +0.015 C 
ATOM     17  C   LIG A   1      -2.403  -0.529   0.888  0.00  0.00    +0.015 C 
ATOM     18  C   LIG A   1       2.593   2.438   0.863  0.00  0.00    +0.059 C 
ATOM     19  C   LIG A   1       3.592   2.522   2.034  0.00  0.00    +0.022 C 
ATOM     20  C   LIG A   1       1.868   3.791   0.714  0.00  0.00    +0.022 C 
ENDROOT
BRANCH  15  21
ATOM     21  C   LIG A   1      -3.185   0.486  -1.347  0.00  0.00    -0.028 C 
ATOM     22  C   LIG A   1      -3.510   1.695  -0.863  0.00  0.00    +0.004 C 
ENDBRANCH  15  21
BRANCH  13  23
ATOM     23  O   LIG A   1       0.390  -2.142  -1.958  0.00  0.00    -0.461 OA
BRANCH  23  24
ATOM     24  C   LIG A   1       0.419  -3.485  -1.720  0.00  0.00    +0.304 C 
ATOM     25  C   LIG A   1       1.222  -4.169  -2.785  0.00  0.00    +0.136 C 
ATOM     26  O   LIG A   1      -0.156  -4.086  -0.833  0.00  0.00    -0.251 OA
ENDBRANCH  23  24
ENDBRANCH  13  23
TORSDOF 3
