@<TRIPOS>MOLECULE
NuBBE_2127
 24 24 0 0 0
SMALL
GASTEIGER

@<TRIPOS>ATOM
      1 C          -1.2771    2.4791    0.1981 C.3     1  LIG1       -0.0650
      2 C          -0.1618    1.5324    0.6203 C.3     1  LIG1       -0.0531
      3 C           0.4027    0.6876   -0.5414 C.3     1  LIG1       -0.0413
      4 C           1.6388   -0.1112   -0.0882 C.3     1  LIG1       -0.0502
      5 C           1.2896   -1.2863    0.8242 C.3     1  LIG1       -0.0528
      6 C           0.2457   -2.2020    0.1923 C.3     1  LIG1       -0.0530
      7 C          -0.9932   -1.4330   -0.2569 C.3     1  LIG1       -0.0528
      8 C          -0.6276   -0.2653   -1.1711 C.3     1  LIG1       -0.0502
      9 H          -1.5450    3.1365    1.0317 H       1  LIG1        0.0230
     10 H          -2.1796    1.9339   -0.0921 H       1  LIG1        0.0230
     11 H          -0.9641    3.1082   -0.6410 H       1  LIG1        0.0230
     12 H          -0.5293    0.8952    1.4317 H       1  LIG1        0.0265
     13 H           0.6503    2.1366    1.0440 H       1  LIG1        0.0265
     14 H           0.7317    1.3870   -1.3218 H       1  LIG1        0.0301
     15 H           2.3535    0.5480    0.4186 H       1  LIG1        0.0268
     16 H           2.1530   -0.4986   -0.9775 H       1  LIG1        0.0268
     17 H           0.9185   -0.9154    1.7866 H       1  LIG1        0.0265
     18 H           2.1968   -1.8623    1.0404 H       1  LIG1        0.0265
     19 H          -0.0423   -2.9820    0.9062 H       1  LIG1        0.0265
     20 H           0.6883   -2.7113   -0.6728 H       1  LIG1        0.0265
     21 H          -1.5390   -1.0664    0.6201 H       1  LIG1        0.0265
     22 H          -1.6709   -2.1126   -0.7864 H       1  LIG1        0.0265
     23 H          -1.5346    0.2725   -1.4650 H       1  LIG1        0.0268
     24 H          -0.2047   -0.6706   -2.1001 H       1  LIG1        0.0268
@<TRIPOS>BOND
     1     1     2    1
     2     2     3    1
     3     3     4    1
     4     4     5    1
     5     5     6    1
     6     6     7    1
     7     7     8    1
     8     3     8    1
     9     1     9    1
    10     1    10    1
    11     1    11    1
    12     2    12    1
    13     2    13    1
    14     3    14    1
    15     4    15    1
    16     4    16    1
    17     5    17    1
    18     5    18    1
    19     6    19    1
    20     6    20    1
    21     7    21    1
    22     7    22    1
    23     8    23    1
    24     8    24    1
