REMARK  Name = NuBBE_2122
REMARK  6 active torsions:
REMARK  status: ('A' for Active; 'I' for Inactive)
REMARK    1  A    between atoms: C_2  and  C_3
REMARK    2  A    between atoms: C_3  and  C_4
REMARK    3  A    between atoms: C_4  and  C_5
REMARK    4  A    between atoms: C_5  and  C_6
REMARK    5  A    between atoms: C_6  and  C_7
REMARK    6  A    between atoms: C_7  and  C_8
REMARK                            x       y       z     vdW  Elec       q    Type
REMARK                         _______ _______ _______ _____ _____    ______ ____
ROOT
ATOM      1  C   LIG A   1      -0.468   1.493  -0.222  0.00  0.00    +0.004 C 
ENDROOT
BRANCH   1   2
ATOM      2  C   LIG A   1      -1.837   1.642  -0.901  0.00  0.00    +0.026 C 
BRANCH   2   4
ATOM      3  C   LIG A   1      -2.897  -0.078  -2.391  0.00  0.00    +0.004 C 
ATOM      4  C   LIG A   1      -1.963   0.863  -2.179  0.00  0.00    -0.035 C 
ENDBRANCH   2   4
ENDBRANCH   1   2
BRANCH   1   5
ATOM      5  C   LIG A   1      -0.138   0.051   0.185  0.00  0.00    +0.000 C 
BRANCH   5   6
ATOM      6  C   LIG A   1       1.229  -0.053   0.874  0.00  0.00    -0.000 C 
BRANCH   6   7
ATOM      7  C   LIG A   1       1.546  -1.498   1.273  0.00  0.00    -0.003 C 
ATOM      8  C   LIG A   1       2.895  -1.621   1.967  0.00  0.00    +0.004 C 
ENDBRANCH   6   7
ENDBRANCH   5   6
ENDBRANCH   1   5
TORSDOF 5
