@<TRIPOS>MOLECULE
NuBBE_2290
 39 41 0 0 0
SMALL
GASTEIGER

@<TRIPOS>ATOM
      1 C          -2.4398    1.1485    2.7881 C.3     1  LIG1       -0.0435
      2 C          -1.4598    0.4082    1.9264 C.2     1  LIG1       -0.0728
      3 C          -1.1643    0.4161    0.6411 C.2     1  LIG1       -0.0633
      4 C          -1.5044    1.4490   -0.4532 C.3     1  LIG1       -0.0276
      5 C          -0.4115    1.0280   -1.4745 C.3     1  LIG1       -0.0314
      6 H          -1.2145    0.2688   -1.4599 H       1  LIG1        0.0309
      7 C           0.8063    0.8089   -0.3691 C.3     1  LIG1       -0.0222
      8 C           1.0343    2.0568    0.5911 C.3     1  LIG1       -0.0587
      9 C           2.1922    0.8042   -1.0620 C.3     1  LIG1       -0.0587
     10 C           0.1561   -0.4884    0.2467 C.3     1  LIG1        0.0002
     11 C           0.4003   -1.6796   -0.8211 C.3     1  LIG1       -0.0340
     12 H          -0.0243   -2.6129   -0.4248 H       1  LIG1        0.0307
     13 C           1.8913   -2.0934   -1.0114 C.3     1  LIG1       -0.0616
     14 C          -0.2981   -1.4764   -2.1560 C.3     1  LIG1       -0.0494
     15 C          -0.2115   -0.0065   -2.6628 C.3     1  LIG1       -0.0491
     16 C          -0.1564   -1.3617    1.4792 C.3     1  LIG1       -0.0392
     17 C          -0.5775   -0.5552    2.6610 C.3     1  LIG1       -0.0309
     18 H          -1.9611    1.4878    3.7187 H       1  LIG1        0.0274
     19 H          -3.2389    0.4547    3.0797 H       1  LIG1        0.0274
     20 H          -2.8834    2.0108    2.2957 H       1  LIG1        0.0274
     21 H          -1.3526    2.4986   -0.1684 H       1  LIG1        0.0313
     22 H          -2.5379    1.3837   -0.8182 H       1  LIG1        0.0313
     23 H           1.3192    2.9412   -0.0014 H       1  LIG1        0.0235
     24 H           1.8499    1.8562    1.2944 H       1  LIG1        0.0235
     25 H           0.1941    2.3993    1.1969 H       1  LIG1        0.0235
     26 H           2.4736    1.8211   -1.3766 H       1  LIG1        0.0235
     27 H           2.2718    0.2456   -1.9859 H       1  LIG1        0.0235
     28 H           2.9738    0.4677   -0.3727 H       1  LIG1        0.0235
     29 H           2.5145   -1.8482   -0.1441 H       1  LIG1        0.0233
     30 H           2.3486   -1.6713   -1.9110 H       1  LIG1        0.0233
     31 H           1.9721   -3.1763   -1.1627 H       1  LIG1        0.0233
     32 H          -1.3547   -1.7346   -1.9791 H       1  LIG1        0.0268
     33 H           0.0506   -2.1934   -2.9072 H       1  LIG1        0.0268
     34 H          -0.9962    0.1316   -3.4230 H       1  LIG1        0.0268
     35 H           0.7228    0.1492   -3.2014 H       1  LIG1        0.0268
     36 H           0.5458   -2.1566    1.7209 H       1  LIG1        0.0277
     37 H          -1.0880   -1.9291    1.1958 H       1  LIG1        0.0277
     38 H          -1.1309   -1.1615    3.3769 H       1  LIG1        0.0310
     39 H           0.2888   -0.0908    3.1341 H       1  LIG1        0.0310
@<TRIPOS>BOND
     1     1     2    1
     2     2     3    2
     3     3     4    1
     4     4     5    1
     5     5     6    1
     6     5     7    1
     7     7     8    1
     8     7     9    1
     9     3    10    1
    10     7    10    1
    11    10    11    1
    12    11    12    1
    13    11    13    1
    14    11    14    1
    15    14    15    1
    16     5    15    1
    17    10    16    1
    18    16    17    1
    19     2    17    1
    20     1    18    1
    21     1    19    1
    22     1    20    1
    23     4    21    1
    24     4    22    1
    25     8    23    1
    26     8    24    1
    27     8    25    1
    28     9    26    1
    29     9    27    1
    30     9    28    1
    31    13    29    1
    32    13    30    1
    33    13    31    1
    34    14    32    1
    35    14    33    1
    36    15    34    1
    37    15    35    1
    38    16    36    1
    39    16    37    1
    40    17    38    1
    41    17    39    1
