REMARK  Name = NuBBE_1924
REMARK  6 active torsions:
REMARK  status: ('A' for Active; 'I' for Inactive)
REMARK    1  A    between atoms: C_5  and  C_6
REMARK    2  A    between atoms: C_6  and  C_7
REMARK    3  A    between atoms: C_10  and  O_11
REMARK    4  A    between atoms: O_11  and  C_12
REMARK    5  A    between atoms: C_13  and  C_24
REMARK    6  A    between atoms: C_15  and  C_18
REMARK                            x       y       z     vdW  Elec       q    Type
REMARK                         _______ _______ _______ _____ _____    ______ ____
ROOT
ATOM      1  O   LIG A   1      -3.953   0.890   2.296  0.00  0.00    -0.284 OA
ATOM      2  C   LIG A   1      -2.809   0.674   1.908  0.00  0.00    +0.223 C 
ATOM      3  C   LIG A   1      -2.277   1.480   0.791  0.00  0.00    +0.096 C 
ATOM      4  C   LIG A   1      -1.129   1.128   0.207  0.00  0.00    +0.113 C 
ATOM      5  C   LIG A   1      -0.323  -0.088   0.562  0.00  0.00    +0.059 C 
ATOM      6  C   LIG A   1      -0.726  -0.629   1.917  0.00  0.00    +0.038 C 
ATOM      7  C   LIG A   1      -1.874  -0.327   2.546  0.00  0.00    +0.164 C 
ATOM      8  C   LIG A   1       1.082   0.532   0.464  0.00  0.00    +0.049 C 
ATOM      9  C   LIG A   1       0.919   1.651  -0.596  0.00  0.00    +0.207 C 
ATOM     10  O   LIG A   1      -0.493   1.964  -0.689  0.00  0.00    -0.487 OA
ATOM     11  C   LIG A   1       1.616   1.143   1.768  0.00  0.00    +0.013 C 
ENDROOT
BRANCH   9  12
ATOM     12  C   LIG A   1       1.521   1.306  -1.948  0.00  0.00    -0.007 A 
ATOM     13  C   LIG A   1       0.748   1.268  -3.118  0.00  0.00    +0.007 A 
ATOM     14  C   LIG A   1       1.321   0.917  -4.341  0.00  0.00    +0.000 A 
ATOM     15  C   LIG A   1       2.679   0.615  -4.417  0.00  0.00    +0.000 A 
ATOM     16  C   LIG A   1       3.469   0.677  -3.272  0.00  0.00    +0.000 A 
ATOM     17  C   LIG A   1       2.896   1.028  -2.048  0.00  0.00    +0.007 A 
ENDBRANCH   9  12
BRANCH   7  18
ATOM     18  O   LIG A   1      -2.131  -0.942   3.766  0.00  0.00    -0.492 OA
ATOM     19  C   LIG A   1      -3.506  -1.072   4.114  0.00  0.00    +0.277 C 
ENDBRANCH   7  18
BRANCH   5  20
ATOM     20  C   LIG A   1      -0.567  -1.191  -0.520  0.00  0.00    +0.045 C 
BRANCH  20  21
ATOM     21  C   LIG A   1       0.195  -2.478  -0.300  0.00  0.00    -0.033 C 
ATOM     22  C   LIG A   1      -0.388  -3.673  -0.141  0.00  0.00    +0.004 C 
ENDBRANCH  20  21
ENDBRANCH   5  20
TORSDOF 4
