@<TRIPOS>MOLECULE
NuBBE_1042
 82 85 0 0 0
SMALL
GASTEIGER

@<TRIPOS>ATOM
      1 O          -1.6055   -6.5232    4.5644 O.2     1  LIG1       -0.2968
      2 C          -1.1974   -5.4994    4.0131 C.2     1  LIG1        0.1392
      3 C          -2.1195   -4.3216    3.8081 C.3     1  LIG1        0.0069
      4 C          -2.0601   -3.9189    2.3489 C.3     1  LIG1       -0.0401
      5 C          -0.6438   -3.4746    1.8816 C.3     1  LIG1       -0.0212
      6 C          -0.4523   -4.0850    0.4630 C.3     1  LIG1       -0.0587
      7 C           0.4654   -3.9481    2.8937 C.3     1  LIG1       -0.0198
      8 C           1.8723   -3.6807    2.3158 C.3     1  LIG1       -0.0302
      9 C           1.9940   -2.3136    1.6901 C.2     1  LIG1       -0.0836
     10 C           0.9600   -1.4746    1.4681 C.2     1  LIG1       -0.0634
     11 C          -0.4868   -1.8844    1.8417 C.3     1  LIG1       -0.0136
     12 H          -0.6126   -1.5266    2.8763 H       1  LIG1        0.0351
     13 C          -1.6296   -1.1689    1.0644 C.3     1  LIG1       -0.0455
     14 C          -1.3017    0.2188    0.5030 C.3     1  LIG1       -0.0460
     15 C           0.0571    0.2103   -0.2127 C.3     1  LIG1       -0.0199
     16 C           0.0599   -0.8830   -1.3262 C.3     1  LIG1       -0.0585
     17 C           1.1468   -0.0697    0.8899 C.3     1  LIG1       -0.0051
     18 C           2.4253    0.2507    0.0958 C.3     1  LIG1       -0.0431
     19 C           2.0637    1.4952   -0.7345 C.3     1  LIG1       -0.0486
     20 C           0.5083    1.5789   -0.8321 C.3     1  LIG1       -0.0322
     21 C           0.0479    1.9425   -2.2859 C.3     1  LIG1       -0.0402
     22 H           0.4136    1.1458   -2.9469 H       1  LIG1        0.0301
     23 C          -1.4734    1.9901   -2.4863 C.3     1  LIG1       -0.0621
     24 C           0.6920    3.2502   -2.8413 C.3     1  LIG1       -0.0466
     25 C           0.2240    4.5557   -2.1877 C.3     1  LIG1       -0.0311
     26 C           0.8947    5.7814   -2.7543 C.2     1  LIG1       -0.0460
     27 C           0.4219    6.5496   -3.7520 C.2     1  LIG1        0.1018
     28 C           1.0997    7.8151   -4.2020 C.3     1  LIG1       -0.0066
     29 O          -0.7077    6.1397   -4.4951 O.3     1  LIG1       -0.4311
     30 C          -1.7557    7.0157   -4.5462 C.2     1  LIG1        0.3089
     31 C          -2.8364    6.4948   -5.4407 C.3     1  LIG1        0.0336
     32 O          -1.8484    8.0901   -3.9497 O.2     1  LIG1       -0.2507
     33 H           0.1636    2.3834   -0.1702 H       1  LIG1        0.0309
     34 C           1.1365    0.8975    2.1116 C.3     1  LIG1       -0.0553
     35 H           0.3862   -3.2505    3.7450 H       1  LIG1        0.0318
     36 C           0.2626   -5.3480    3.5570 C.3     1  LIG1        0.0270
     37 C           1.1186   -5.4332    4.8404 C.3     1  LIG1       -0.0528
     38 C           0.6191   -6.5426    2.6634 C.3     1  LIG1       -0.0528
     39 H          -1.8378   -3.5047    4.4782 H       1  LIG1        0.0342
     40 H          -3.1409   -4.6280    4.0601 H       1  LIG1        0.0342
     41 H          -2.3866   -4.7879    1.7593 H       1  LIG1        0.0275
     42 H          -2.8155   -3.1531    2.1572 H       1  LIG1        0.0275
     43 H          -0.5282   -5.1736    0.4745 H       1  LIG1        0.0235
     44 H           0.5125   -3.8491    0.0085 H       1  LIG1        0.0235
     45 H          -1.2292   -3.7420   -0.2280 H       1  LIG1        0.0235
     46 H           2.1426   -4.4262    1.5608 H       1  LIG1        0.0311
     47 H           2.6197   -3.7517    3.1136 H       1  LIG1        0.0311
     48 H           3.0077   -2.0155    1.4319 H       1  LIG1        0.0572
     49 H          -2.4909   -1.0517    1.7353 H       1  LIG1        0.0271
     50 H          -1.9905   -1.7918    0.2408 H       1  LIG1        0.0271
     51 H          -1.3162    0.9545    1.3154 H       1  LIG1        0.0271
     52 H          -2.1148    0.5231   -0.1585 H       1  LIG1        0.0271
     53 H           0.0463   -1.8937   -0.9255 H       1  LIG1        0.0235
     54 H           0.9459   -0.8335   -1.9655 H       1  LIG1        0.0235
     55 H          -0.8209   -0.8018   -1.9694 H       1  LIG1        0.0235
     56 H           2.7006   -0.5720   -0.5754 H       1  LIG1        0.0274
     57 H           3.2994    0.4413    0.7287 H       1  LIG1        0.0274
     58 H           2.5514    1.4193   -1.7114 H       1  LIG1        0.0268
     59 H           2.4440    2.4012   -0.2481 H       1  LIG1        0.0268
     60 H          -1.7042    2.0558   -3.5565 H       1  LIG1        0.0233
     61 H          -1.9370    2.8465   -1.9905 H       1  LIG1        0.0233
     62 H          -1.9772    1.0936   -2.1277 H       1  LIG1        0.0233
     63 H           0.4723    3.2992   -3.9165 H       1  LIG1        0.0271
     64 H           1.7834    3.1845   -2.7717 H       1  LIG1        0.0271
     65 H           0.4356    4.5308   -1.1124 H       1  LIG1        0.0309
     66 H          -0.8598    4.6728   -2.2827 H       1  LIG1        0.0309
     67 H           1.7985    6.0986   -2.2377 H       1  LIG1        0.0605
     68 H           2.0896    7.9302   -3.7489 H       1  LIG1        0.0308
     69 H           0.5147    8.6943   -3.9159 H       1  LIG1        0.0308
     70 H           1.2254    7.8235   -5.2892 H       1  LIG1        0.0308
     71 H          -2.5746    5.5130   -5.8456 H       1  LIG1        0.0342
     72 H          -2.9816    7.1873   -6.2742 H       1  LIG1        0.0342
     73 H          -3.7588    6.3955   -4.8628 H       1  LIG1        0.0342
     74 H           1.1245    1.9518    1.8195 H       1  LIG1        0.0238
     75 H           2.0377    0.7503    2.7221 H       1  LIG1        0.0238
     76 H           0.2842    0.7350    2.7790 H       1  LIG1        0.0238
     77 H           2.1890   -5.3846    4.6195 H       1  LIG1        0.0239
     78 H           0.9382   -6.3699    5.3809 H       1  LIG1        0.0239
     79 H           0.8743   -4.6183    5.5324 H       1  LIG1        0.0239
     80 H           1.6421   -6.4794    2.2812 H       1  LIG1        0.0239
     81 H          -0.0658   -6.6489    1.8205 H       1  LIG1        0.0239
     82 H           0.5488   -7.4836    3.2234 H       1  LIG1        0.0239
@<TRIPOS>BOND
     1     1     2    2
     2     2     3    1
     3     3     4    1
     4     4     5    1
     5     5     6    1
     6     5     7    1
     7     7     8    1
     8     8     9    1
     9     9    10    2
    10    10    11    1
    11    11    12    1
    12     5    11    1
    13    11    13    1
    14    13    14    1
    15    14    15    1
    16    15    16    1
    17    15    17    1
    18    17    18    1
    19    18    19    1
    20    19    20    1
    21    21    22    1
    22    21    23    1
    23    21    24    1
    24    24    25    1
    25    25    26    1
    26    26    27    2
    27    27    28    1
    28    27    29    1
    29    29    30    1
    30    30    31    1
    31    30    32    2
    32    15    20    1
    33    10    17    1
    34    17    34    1
    35     7    35    1
    36     7    36    1
    37    36    37    1
    38     2    36    1
    39    36    38    1
    40    20    33    1
    41    20    21    1
    42     3    39    1
    43     3    40    1
    44     4    41    1
    45     4    42    1
    46     6    43    1
    47     6    44    1
    48     6    45    1
    49     8    46    1
    50     8    47    1
    51     9    48    1
    52    13    49    1
    53    13    50    1
    54    14    51    1
    55    14    52    1
    56    16    53    1
    57    16    54    1
    58    16    55    1
    59    18    56    1
    60    18    57    1
    61    19    58    1
    62    19    59    1
    63    23    60    1
    64    23    61    1
    65    23    62    1
    66    24    63    1
    67    24    64    1
    68    25    65    1
    69    25    66    1
    70    26    67    1
    71    28    68    1
    72    28    69    1
    73    28    70    1
    74    31    71    1
    75    31    72    1
    76    31    73    1
    77    34    74    1
    78    34    75    1
    79    34    76    1
    80    37    77    1
    81    37    78    1
    82    37    79    1
    83    38    80    1
    84    38    81    1
    85    38    82    1
