REMARK  Name = NuBBE_243
REMARK  8 active torsions:
REMARK  status: ('A' for Active; 'I' for Inactive)
REMARK    1  A    between atoms: O_1  and  C_2
REMARK    2  A    between atoms: C_6  and  O_11
REMARK    3  A    between atoms: C_8  and  O_10
REMARK    4  A    between atoms: O_11  and  C_12
REMARK    5  A    between atoms: C_12  and  C_13
REMARK    6  A    between atoms: C_14  and  C_15
REMARK    7  A    between atoms: C_18  and  O_22
REMARK    8  A    between atoms: C_19  and  O_20
REMARK                            x       y       z     vdW  Elec       q    Type
REMARK                         _______ _______ _______ _____ _____    ______ ____
ROOT
ATOM      1  C   LIG A   1       1.103   0.196   0.588  0.00  0.00    +0.332 C 
ATOM      2  O   LIG A   1       2.319   0.118   0.576  0.00  0.00    -0.246 OA
ENDROOT
BRANCH   1   3
ATOM      3  C   LIG A   1       0.169  -0.822   0.067  0.00  0.00    +0.092 C 
ATOM      4  C   LIG A   1       0.621  -1.822  -0.705  0.00  0.00    +0.015 C 
BRANCH   4   5
ATOM      5  C   LIG A   1      -0.238  -2.886  -1.247  0.00  0.00    -0.021 A 
ATOM      6  C   LIG A   1       0.326  -4.150  -1.491  0.00  0.00    +0.012 A 
ATOM      7  C   LIG A   1      -0.446  -5.200  -2.005  0.00  0.00    +0.050 A 
ATOM      8  C   LIG A   1      -1.788  -4.978  -2.284  0.00  0.00    +0.158 A 
ATOM      9  C   LIG A   1      -2.349  -3.724  -2.064  0.00  0.00    +0.159 A 
ATOM     10  C   LIG A   1      -1.589  -2.677  -1.563  0.00  0.00    +0.057 A 
BRANCH   9  11
ATOM     11  O   LIG A   1      -3.669  -3.509  -2.349  0.00  0.00    -0.503 OA
ATOM     12  H   LIG A   1      -3.991  -4.371  -2.680  0.00  0.00    +0.292 HD
ENDBRANCH   9  11
BRANCH   8  13
ATOM     13  O   LIG A   1      -2.598  -5.962  -2.777  0.00  0.00    -0.503 OA
ATOM     14  H   LIG A   1      -2.068  -6.772  -2.871  0.00  0.00    +0.292 HD
ENDBRANCH   8  13
ENDBRANCH   4   5
ENDBRANCH   1   3
BRANCH   1  15
ATOM     15  O   LIG A   1       0.359   1.223   1.070  0.00  0.00    -0.456 OA
BRANCH  15  19
ATOM     16  C   LIG A   1       0.748   4.691   2.146  0.00  0.00    +0.147 C 
ATOM     17  C   LIG A   1       1.989   4.508   1.274  0.00  0.00    +0.038 C 
ATOM     18  C   LIG A   1       1.717   3.215   0.517  0.00  0.00    +0.050 C 
ATOM     19  C   LIG A   1       1.106   2.327   1.597  0.00  0.00    +0.208 C 
ATOM     20  C   LIG A   1       0.159   3.279   2.350  0.00  0.00    +0.183 C 
BRANCH  16  21
ATOM     21  O   LIG A   1      -0.180   5.535   1.463  0.00  0.00    -0.389 OA
ATOM     22  H   LIG A   1      -1.008   5.010   1.406  0.00  0.00    +0.210 HD
ENDBRANCH  16  21
BRANCH  20  23
ATOM     23  O   LIG A   1      -1.173   3.243   1.812  0.00  0.00    -0.386 OA
ATOM     24  H   LIG A   1      -1.333   2.314   1.556  0.00  0.00    +0.210 HD
ENDBRANCH  20  23
ENDBRANCH  15  19
ENDBRANCH   1  15
TORSDOF 8
