@<TRIPOS>MOLECULE
NuBBE_231
 91 93 0 0 0
SMALL
GASTEIGER

@<TRIPOS>ATOM
      1 C          -4.0669   -0.3501    1.0994 C.3     1  LIG1       -0.0584
      2 C          -2.6183   -0.2396    0.5801 C.3     1  LIG1        0.0029
      3 H          -2.8498   -0.1856   -0.4943 H       1  LIG1        0.0340
      4 C          -1.9071   -1.5999    0.6123 C.3     1  LIG1        0.1438
      5 H          -2.5020   -2.2825    1.2289 H       1  LIG1        0.0775
      6 O          -2.0859   -2.2339   -0.6902 O.3     1  LIG1       -0.4573
      7 C          -1.1035   -2.6696   -1.5131 C.2     1  LIG1        0.3074
      8 C          -1.6709   -3.0080   -2.8837 C.3     1  LIG1        0.0447
      9 C          -1.4867   -1.7230   -3.6759 C.3     1  LIG1       -0.0458
     10 C          -2.0746   -1.7287   -5.0678 C.3     1  LIG1       -0.0648
     11 O           0.0365   -2.6434   -1.2955 O.2     1  LIG1       -0.2508
     12 C          -0.6250   -1.4815    1.4129 C.3     1  LIG1        0.1554
     13 H          -0.3868   -2.4553    1.7429 H       1  LIG1        0.0783
     14 O          -1.1168   -0.7075    2.7202 O.3     1  LIG1       -0.4567
     15 C          -1.9357   -1.0430    3.7597 C.2     1  LIG1        0.3043
     16 C          -2.9527    0.0445    4.1692 C.3     1  LIG1        0.0332
     17 O          -1.8358   -2.0888    4.3911 O.2     1  LIG1       -0.2512
     18 C           0.5898   -0.6579    0.8189 C.3     1  LIG1        0.1036
     19 C           1.3128   -0.6228   -0.5995 C.2     1  LIG1        0.0125
     20 C           2.7039   -1.2431   -0.5286 C.3     1  LIG1        0.2315
     21 H           2.6854   -2.3227   -0.6532 H       1  LIG1        0.1111
     22 O           3.5902   -0.7179   -1.5452 O.3     1  LIG1       -0.4311
     23 C           4.7722   -0.1515   -1.1910 C.2     1  LIG1        0.3063
     24 C           5.2453    0.7778   -2.2726 C.3     1  LIG1        0.0333
     25 O           5.3869   -0.2873   -0.1442 O.2     1  LIG1       -0.2511
     26 O           3.0818   -0.8435    0.7710 O.3     1  LIG1       -0.2971
     27 C           1.9635   -1.0798    1.6326 C.3     1  LIG1        0.2216
     28 H           2.1351   -0.3868    2.4655 H       1  LIG1        0.1068
     29 O           2.2538   -2.4275    2.1575 O.3     1  LIG1       -0.4339
     30 C           1.9029   -3.5745    1.5363 C.2     1  LIG1        0.3093
     31 C           3.0053   -4.5403    1.1207 C.3     1  LIG1        0.0448
     32 C           2.3792   -5.6051    0.1806 C.3     1  LIG1       -0.0458
     33 C           1.8602   -4.9199   -1.0656 C.3     1  LIG1       -0.0648
     34 O           0.7383   -3.8994    1.3493 O.2     1  LIG1       -0.2508
     35 C           1.1636    0.3045   -1.5721 C.2     1  LIG1       -0.0497
     36 C           0.6755    1.6654   -1.2379 C.3     1  LIG1        0.0772
     37 H          -0.3065    1.7394   -1.6856 H       1  LIG1        0.0640
     38 O           1.4096    2.7096   -1.8828 O.3     1  LIG1       -0.3757
     39 C           2.7777    2.7961   -1.5416 C.3     1  LIG1        0.0372
     40 C           0.7052    1.8466    0.2735 C.3     1  LIG1       -0.0185
     41 C          -0.0493    0.8006    1.0220 C.3     1  LIG1       -0.0135
     42 H           0.1834    1.0077    2.0816 H       1  LIG1        0.0319
     43 C          -1.7084    1.0993    0.8674 C.3     1  LIG1       -0.0185
     44 C          -2.2584    1.9294   -0.3016 C.3     1  LIG1       -0.0586
     45 C          -2.0443    2.1129    2.0814 C.3     1  LIG1       -0.0282
     46 C          -1.5153    3.5439    2.3571 C.2     1  LIG1       -0.0806
     47 C          -1.1430    4.6482    1.6647 C.2     1  LIG1       -0.0549
     48 C          -1.0003    4.8656    0.2340 C.2     1  LIG1       -0.0662
     49 C          -1.3388    5.9932   -0.3996 C.2     1  LIG1       -0.0985
     50 C          -0.8326    5.9557    2.3621 C.3     1  LIG1       -0.0400
     51 H          -4.2613   -0.0684    2.1122 H       1  LIG1        0.0234
     52 H          -4.4292   -1.3852    1.0703 H       1  LIG1        0.0234
     53 H          -4.7359    0.2878    0.5217 H       1  LIG1        0.0234
     54 H          -2.7136   -3.3256   -2.8026 H       1  LIG1        0.0377
     55 H          -1.0951   -3.8376   -3.3096 H       1  LIG1        0.0377
     56 H          -0.4130   -1.5093   -3.7535 H       1  LIG1        0.0268
     57 H          -1.9341   -0.8978   -3.1084 H       1  LIG1        0.0268
     58 H          -1.3861   -2.2050   -5.7711 H       1  LIG1        0.0230
     59 H          -2.2175   -0.6932   -5.3973 H       1  LIG1        0.0230
     60 H          -3.0406   -2.2373   -5.1065 H       1  LIG1        0.0230
     61 H          -3.3445    0.5930    3.3333 H       1  LIG1        0.0342
     62 H          -2.5678    0.8420    4.8062 H       1  LIG1        0.0342
     63 H          -3.8558   -0.3901    4.6104 H       1  LIG1        0.0342
     64 H           5.3935    1.7723   -1.8314 H       1  LIG1        0.0342
     65 H           4.4992    0.8654   -3.0707 H       1  LIG1        0.0342
     66 H           6.1715    0.4130   -2.7042 H       1  LIG1        0.0342
     67 H           3.4136   -5.0259    2.0093 H       1  LIG1        0.0377
     68 H           3.7986   -4.0428    0.5551 H       1  LIG1        0.0377
     69 H           1.5390   -6.1170    0.6749 H       1  LIG1        0.0268
     70 H           3.0899   -6.3745   -0.1282 H       1  LIG1        0.0268
     71 H           1.3358   -4.0379   -0.7642 H       1  LIG1        0.0230
     72 H           1.1440   -5.5438   -1.5966 H       1  LIG1        0.0230
     73 H           2.6561   -4.5471   -1.7116 H       1  LIG1        0.0230
     74 H           1.7371    0.2519   -2.4971 H       1  LIG1        0.0599
     75 H           3.2471    1.8941   -1.8854 H       1  LIG1        0.0524
     76 H           2.9637    2.9101   -0.4729 H       1  LIG1        0.0524
     77 H           3.2370    3.6331   -2.0689 H       1  LIG1        0.0524
     78 H           0.2775    2.7806    0.5609 H       1  LIG1        0.0296
     79 H           1.7168    1.8724    0.6843 H       1  LIG1        0.0296
     80 H          -2.1606    1.4422   -1.2691 H       1  LIG1        0.0235
     81 H          -1.8082    2.8831   -0.3886 H       1  LIG1        0.0235
     82 H          -3.3259    2.1341   -0.1437 H       1  LIG1        0.0235
     83 H          -3.1368    2.2118    2.1523 H       1  LIG1        0.0313
     84 H          -1.7013    1.6153    2.9889 H       1  LIG1        0.0313
     85 H          -1.5312    3.7013    3.4473 H       1  LIG1        0.0575
     86 H          -0.4952    4.1484   -0.3958 H       1  LIG1        0.0614
     87 H          -1.7727    6.8379    0.1176 H       1  LIG1        0.0535
     88 H          -1.1595    6.0933   -1.4604 H       1  LIG1        0.0535
     89 H          -0.6754    5.8969    3.4369 H       1  LIG1        0.0277
     90 H          -1.6712    6.6419    2.1916 H       1  LIG1        0.0277
     91 H           0.0697    6.3965    1.9129 H       1  LIG1        0.0277
@<TRIPOS>BOND
     1     2     4    1
     2     6     7    1
     3     7     8    1
     4     8     9    1
     5     9    10    1
     6     7    11    2
     7     4    12    1
     8    14    15    1
     9    15    16    1
    10    15    17    2
    11    12    18    1
    12    18    19    1
    13    19    20    1
    14    22    23    1
    15    23    24    1
    16    23    25    2
    17    20    26    1
    18    26    27    1
    19    18    27    1
    20    29    30    1
    21    30    31    1
    22    31    32    1
    23    32    33    1
    24    30    34    2
    25    19    35    2
    26    35    36    1
    27    38    39    1
    28    36    40    1
    29    40    41    1
    30    18    41    1
    31    41    43    1
    32     2    43    1
    33    45    46    1
    34    46    47    2
    35    47    48    1
    36    48    49    2
    37    47    50    1
    38    12    13    1
    39    12    14    1
    40    20    21    1
    41    20    22    1
    42    27    28    1
    43    27    29    1
    44    41    42    1
    45    43    44    1
    46    43    45    1
    47     4     6    1
    48     4     5    1
    49     2     3    1
    50     2     1    1
    51    36    38    1
    52    36    37    1
    53     1    51    1
    54     1    52    1
    55     1    53    1
    56     8    54    1
    57     8    55    1
    58     9    56    1
    59     9    57    1
    60    10    58    1
    61    10    59    1
    62    10    60    1
    63    16    61    1
    64    16    62    1
    65    16    63    1
    66    24    64    1
    67    24    65    1
    68    24    66    1
    69    31    67    1
    70    31    68    1
    71    32    69    1
    72    32    70    1
    73    33    71    1
    74    33    72    1
    75    33    73    1
    76    35    74    1
    77    39    75    1
    78    39    76    1
    79    39    77    1
    80    40    78    1
    81    40    79    1
    82    44    80    1
    83    44    81    1
    84    44    82    1
    85    45    83    1
    86    45    84    1
    87    46    85    1
    88    48    86    1
    89    49    87    1
    90    49    88    1
    91    50    89    1
    92    50    90    1
    93    50    91    1
