@<TRIPOS>MOLECULE
NuBBE_1700
 111 116 0 0 0
SMALL
GASTEIGER

@<TRIPOS>ATOM
      1 C          -2.9516   -2.0928    0.3765 C.3     1  LIG1        0.1080
      2 O          -3.7699   -3.0442   -0.3530 O.3     1  LIG1       -0.4639
      3 C          -5.0169   -2.7718   -0.8051 C.2     1  LIG1        0.3040
      4 O          -5.7205   -1.8460   -0.4271 O.2     1  LIG1       -0.2512
      5 C          -5.4314   -3.7084   -1.9102 C.3     1  LIG1        0.0332
      6 C          -1.9939   -1.1714   -0.6488 C.3     1  LIG1        0.1207
      7 C          -0.8556   -0.0706    0.2670 C.3     1  LIG1        0.1549
      8 C          -1.8765    0.8376   -0.0544 C.3     1  LIG1        0.1446
      9 O          -1.4803    0.7671   -1.7859 O.3     1  LIG1       -0.4580
     10 C          -0.7769    1.4690   -2.7300 C.2     1  LIG1        0.3043
     11 O          -0.3104    2.5873   -2.6332 O.2     1  LIG1       -0.2512
     12 C          -0.5294    0.8120   -4.0501 C.3     1  LIG1        0.0332
     13 C          -2.2766    2.1894    0.1084 C.3     1  LIG1        0.0715
     14 C          -3.4360    1.6728   -0.9930 C.3     1  LIG1        0.1496
     15 C          -3.4329   -0.1539   -1.3304 C.3     1  LIG1        0.1553
     16 O          -4.2873   -0.4869   -2.4112 O.3     1  LIG1       -0.4569
     17 C          -3.8509   -0.4273   -3.6791 C.2     1  LIG1        0.3043
     18 O          -2.7885   -0.9536   -4.0664 O.2     1  LIG1       -0.2512
     19 C          -4.8200    0.3273   -4.5425 C.3     1  LIG1        0.0332
     20 O          -4.7015    1.9623   -0.3004 O.3     1  LIG1       -0.4573
     21 C          -5.1595    3.2370   -0.4401 C.2     1  LIG1        0.3043
     22 O          -5.0921    3.8902   -1.4713 O.2     1  LIG1       -0.2512
     23 C          -5.5542    3.8188    0.8901 C.3     1  LIG1        0.0332
     24 C          -0.7406    2.4391    0.3453 C.3     1  LIG1        0.1114
     25 O           0.0119    1.1157    0.0040 O.3     1  LIG1       -0.3557
     26 C          -0.3769    3.6832   -0.4771 C.3     1  LIG1       -0.0321
     27 C          -0.4817    2.8641    1.8813 C.3     1  LIG1        0.1219
     28 O           0.7947    2.6147    2.5784 O.3     1  LIG1       -0.4582
     29 C           1.9724    2.8463    1.9687 C.2     1  LIG1        0.3410
     30 O           2.0624    3.3308    0.8497 O.2     1  LIG1       -0.2449
     31 C           3.2171    2.7297    2.8047 C.ar    1  LIG1        0.0802
     32 C           3.7917    1.6853    3.5729 C.ar    1  LIG1        0.0552
     33 C           3.2458    0.3037    3.9451 C.3     1  LIG1       -0.0089
     34 C           3.8070   -0.8617    3.0541 C.3     1  LIG1       -0.0349
     35 C           3.3758   -2.3615    3.2880 C.3     1  LIG1        0.0540
     36 C           2.1186   -2.8506    2.5482 C.2     1  LIG1        0.3104
     37 O           1.4851   -3.8450    2.8791 O.2     1  LIG1       -0.2505
     38 O           1.7907   -2.0589    1.5000 O.3     1  LIG1       -0.4543
     39 C           0.4348   -2.1151    0.9562 C.3     1  LIG1        0.1742
     40 C          -0.3593   -0.8404    1.4732 C.3     1  LIG1        0.1367
     41 C           0.5309   -0.0798    2.4053 C.3     1  LIG1       -0.0295
     42 O          -1.4518   -1.2349    2.3127 O.3     1  LIG1       -0.3820
     43 C           0.4939   -2.2715   -0.6095 C.3     1  LIG1        0.1802
     44 C          -0.9956   -2.2946   -1.2112 C.3     1  LIG1        0.1584
     45 O          -0.9813   -2.7264   -2.5792 O.3     1  LIG1       -0.4567
     46 C          -1.7091   -3.8702   -2.7626 C.2     1  LIG1        0.3043
     47 O          -2.8352   -4.0432   -2.3496 O.2     1  LIG1       -0.2512
     48 C          -0.9849   -5.0335   -3.3447 C.3     1  LIG1        0.0332
     49 O           1.4239   -1.3111   -1.1986 O.3     1  LIG1       -0.4502
     50 C           2.7528   -1.6650   -1.0654 C.2     1  LIG1        0.3397
     51 O           3.1654   -2.7501   -0.6782 O.2     1  LIG1       -0.2449
     52 C           3.6963   -0.5339   -1.2634 C.ar    1  LIG1        0.0590
     53 C           3.5966    0.3410   -2.3420 C.ar    1  LIG1       -0.0478
     54 C           4.5105    1.3969   -2.4643 C.ar    1  LIG1       -0.0610
     55 C           5.4795    1.6189   -1.4815 C.ar    1  LIG1       -0.0617
     56 C           5.6001    0.7336   -0.4159 C.ar    1  LIG1       -0.0610
     57 C           4.7459   -0.3689   -0.3416 C.ar    1  LIG1       -0.0478
     58 C           4.4761   -3.3718    2.8780 C.3     1  LIG1       -0.0523
     59 N           5.0582    1.8229    4.0884 N.ar    1  LIG1       -0.2591
     60 C           5.7712    2.9449    3.8474 C.ar    1  LIG1        0.0279
     61 C           5.2879    4.0086    3.1300 C.ar    1  LIG1       -0.0428
     62 C           4.0036    3.8968    2.6235 C.ar    1  LIG1       -0.0446
     63 H          -2.3377   -2.7317    1.0165 H       1  LIG1        0.0706
     64 H          -3.5771   -1.4949    1.0509 H       1  LIG1        0.0706
     65 H          -6.4888   -3.5651   -2.1336 H       1  LIG1        0.0342
     66 H          -5.2703   -4.7454   -1.6057 H       1  LIG1        0.0342
     67 H          -4.8991   -3.4853   -2.8410 H       1  LIG1        0.0342
     68 H          -2.7278    0.3542    0.4624 H       1  LIG1        0.0769
     69 H          -0.0757    1.5760   -4.7012 H       1  LIG1        0.0342
     70 H          -1.4306    0.5603   -4.5965 H       1  LIG1        0.0342
     71 H           0.1905    0.0015   -3.9528 H       1  LIG1        0.0342
     72 H          -2.8078    2.4010    1.0474 H       1  LIG1        0.0404
     73 H          -3.4268    2.2002   -1.9534 H       1  LIG1        0.0777
     74 H          -4.1659   -0.3493   -0.5383 H       1  LIG1        0.0781
     75 H          -5.8334    0.1060   -4.2019 H       1  LIG1        0.0342
     76 H          -4.7239   -0.0396   -5.5775 H       1  LIG1        0.0342
     77 H          -4.6542    1.3908   -4.5089 H       1  LIG1        0.0342
     78 H          -4.8114    4.5788    1.1568 H       1  LIG1        0.0342
     79 H          -5.5493    3.0584    1.6763 H       1  LIG1        0.0342
     80 H          -6.5469    4.2709    0.8420 H       1  LIG1        0.0342
     81 H           0.6146    3.6014   -0.9245 H       1  LIG1        0.0259
     82 H          -0.4215    4.6187    0.0835 H       1  LIG1        0.0259
     83 H          -1.1354    3.8653   -1.2496 H       1  LIG1        0.0259
     84 H          -1.2257    2.3450    2.4976 H       1  LIG1        0.0727
     85 H          -0.7209    3.9259    2.0274 H       1  LIG1        0.0727
     86 H           2.1711    0.3591    4.0529 H       1  LIG1        0.0329
     87 H           3.5792    0.0975    4.9753 H       1  LIG1        0.0329
     88 H           4.8988   -0.8269    3.1708 H       1  LIG1        0.0277
     89 H           3.5933   -0.5865    2.0257 H       1  LIG1        0.0277
     90 H           3.1855   -2.4939    4.3601 H       1  LIG1        0.0411
     91 H          -0.0678   -3.0096    1.3403 H       1  LIG1        0.0803
     92 H           1.3947    0.3347    1.8808 H       1  LIG1        0.0259
     93 H           0.8561   -0.7501    3.2017 H       1  LIG1        0.0259
     94 H          -0.0228    0.6661    2.9612 H       1  LIG1        0.0259
     95 H          -1.5246   -0.6402    3.0816 H       1  LIG1        0.2104
     96 H           0.9036   -3.2655   -0.8412 H       1  LIG1        0.0811
     97 H          -1.3093   -3.2034   -0.6802 H       1  LIG1        0.0782
     98 H           0.0914   -4.9382   -3.2386 H       1  LIG1        0.0342
     99 H          -1.3002   -5.1859   -4.3766 H       1  LIG1        0.0342
    100 H          -1.2917   -5.9151   -2.7581 H       1  LIG1        0.0342
    101 H           2.8236    0.2080   -3.0908 H       1  LIG1        0.0626
    102 H           4.4512    2.0682   -3.3176 H       1  LIG1        0.0618
    103 H           6.1352    2.4839   -1.5455 H       1  LIG1        0.0618
    104 H           6.3473    0.9028    0.3571 H       1  LIG1        0.0618
    105 H           4.8904   -1.0867    0.4604 H       1  LIG1        0.0626
    106 H           4.4932   -3.5546    1.7962 H       1  LIG1        0.0238
    107 H           4.2869   -4.3494    3.3454 H       1  LIG1        0.0238
    108 H           5.4773   -3.0604    3.1899 H       1  LIG1        0.0238
    109 H           6.7790    2.9558    4.2509 H       1  LIG1        0.0829
    110 H           5.8905    4.8890    2.9388 H       1  LIG1        0.0633
    111 H           3.6218    4.7263    2.0246 H       1  LIG1        0.0627
@<TRIPOS>BOND
     1     1     2    1
     2     2     3    1
     3     3     4    2
     4     3     5    1
     5     1     6    1
     6     6     7    1
     7     7     8    1
     8     8     9    1
     9     9    10    1
    10    10    11    2
    11    10    12    1
    12     8    13    1
    13    13    14    1
    14    14    15    1
    15     6    15    1
    16    15    16    1
    17    16    17    1
    18    17    18    2
    19    17    19    1
    20    14    20    1
    21    20    21    1
    22    21    22    2
    23    21    23    1
    24    13    24    1
    25    24    25    1
    26     7    25    1
    27    24    26    1
    28    24    27    1
    29    27    28    1
    30    28    29    1
    31    29    30    2
    32    29    31    1
    33    31    32   ar
    34    32    33    1
    35    33    34    1
    36    34    35    1
    37    35    36    1
    38    36    37    2
    39    36    38    1
    40    38    39    1
    41    39    40    1
    42     7    40    1
    43    40    41    1
    44    40    42    1
    45    39    43    1
    46    43    44    1
    47     6    44    1
    48    44    45    1
    49    45    46    1
    50    46    47    2
    51    46    48    1
    52    43    49    1
    53    49    50    1
    54    50    51    2
    55    50    52    1
    56    52    53   ar
    57    53    54   ar
    58    54    55   ar
    59    55    56   ar
    60    56    57   ar
    61    52    57   ar
    62    35    58    1
    63    32    59   ar
    64    59    60   ar
    65    60    61   ar
    66    61    62   ar
    67    31    62   ar
    68     1    63    1
    69     1    64    1
    70     5    65    1
    71     5    66    1
    72     5    67    1
    73     8    68    1
    74    12    69    1
    75    12    70    1
    76    12    71    1
    77    13    72    1
    78    14    73    1
    79    15    74    1
    80    19    75    1
    81    19    76    1
    82    19    77    1
    83    23    78    1
    84    23    79    1
    85    23    80    1
    86    26    81    1
    87    26    82    1
    88    26    83    1
    89    27    84    1
    90    27    85    1
    91    33    86    1
    92    33    87    1
    93    34    88    1
    94    34    89    1
    95    35    90    1
    96    39    91    1
    97    41    92    1
    98    41    93    1
    99    41    94    1
   100    42    95    1
   101    43    96    1
   102    44    97    1
   103    48    98    1
   104    48    99    1
   105    48   100    1
   106    53   101    1
   107    54   102    1
   108    55   103    1
   109    56   104    1
   110    57   105    1
   111    58   106    1
   112    58   107    1
   113    58   108    1
   114    60   109    1
   115    61   110    1
   116    62   111    1
