@<TRIPOS>MOLECULE
NuBBE_645
 49 51 0 0 0
SMALL
GASTEIGER

@<TRIPOS>ATOM
      1 O          -2.3166    1.9510   -4.0921 O.3     1  LIG1       -0.5033
      2 C          -2.1528    1.5213   -2.8043 C.ar    1  LIG1        0.1585
      3 C          -2.6788    0.2738   -2.4441 C.ar    1  LIG1       -0.0162
      4 C          -2.5513   -0.1963   -1.1327 C.ar    1  LIG1       -0.0524
      5 C          -1.9017    0.5739   -0.1538 C.ar    1  LIG1       -0.0149
      6 C          -1.8110    0.0480    1.2734 C.3     1  LIG1        0.0874
      7 H          -2.8345   -0.1833    1.5927 H       1  LIG1        0.0649
      8 C          -1.1166    0.9451    2.3137 C.3     1  LIG1       -0.0081
      9 H          -1.2047    2.0122    2.0944 H       1  LIG1        0.0330
     10 C          -1.7442    0.7735    3.7009 C.3     1  LIG1       -0.0594
     11 C           0.3333    0.4708    2.2043 C.3     1  LIG1       -0.0081
     12 H           0.7641    0.9126    1.2948 H       1  LIG1        0.0330
     13 C           1.2365    0.8590    3.3639 C.3     1  LIG1       -0.0594
     14 C           0.1648   -1.0353    1.9944 C.3     1  LIG1        0.0874
     15 H           0.0081   -1.5550    2.9479 H       1  LIG1        0.0649
     16 C           1.3089   -1.6988    1.2565 C.ar    1  LIG1       -0.0149
     17 C           1.3118   -1.7782   -0.1482 C.ar    1  LIG1       -0.0107
     18 C           2.3489   -2.4185   -0.8306 C.ar    1  LIG1        0.1616
     19 O           2.4534   -2.5526   -2.1918 O.3     1  LIG1       -0.4914
     20 C           1.4154   -1.9647   -2.9704 C.3     1  LIG1        0.0790
     21 C           3.3901   -2.9837   -0.0904 C.ar    1  LIG1        0.1585
     22 O           4.3966   -3.6642   -0.7200 O.3     1  LIG1       -0.5033
     23 C           3.4311   -2.8904    1.2957 C.ar    1  LIG1       -0.0162
     24 C           2.3897   -2.2459    1.9682 C.ar    1  LIG1       -0.0524
     25 O          -1.0729   -1.1900    1.2569 O.3     1  LIG1       -0.3636
     26 C          -1.3745    1.8150   -0.5490 C.ar    1  LIG1       -0.0107
     27 C          -1.4851    2.2952   -1.8608 C.ar    1  LIG1        0.1616
     28 O          -0.8849    3.5175   -2.0132 O.3     1  LIG1       -0.4914
     29 C          -0.8757    4.1107   -3.3008 C.3     1  LIG1        0.0790
     30 H          -2.8420    1.2977   -4.5808 H       1  LIG1        0.2923
     31 H          -3.1912   -0.3480   -3.1700 H       1  LIG1        0.0655
     32 H          -2.9657   -1.1670   -0.8691 H       1  LIG1        0.0622
     33 H          -2.8095    1.0278    3.6675 H       1  LIG1        0.0233
     34 H          -1.2754    1.4530    4.4203 H       1  LIG1        0.0233
     35 H          -1.6524   -0.2478    4.0815 H       1  LIG1        0.0233
     36 H           0.9444    0.3651    4.2955 H       1  LIG1        0.0233
     37 H           1.2033    1.9420    3.5243 H       1  LIG1        0.0233
     38 H           2.2759    0.5876    3.1548 H       1  LIG1        0.0233
     39 H           0.4774   -1.3392   -0.6859 H       1  LIG1        0.0659
     40 H           1.7292   -1.9885   -4.0172 H       1  LIG1        0.0660
     41 H           1.2449   -0.9149   -2.7083 H       1  LIG1        0.0660
     42 H           0.4935   -2.5497   -2.8788 H       1  LIG1        0.0660
     43 H           4.1388   -3.6736   -1.6618 H       1  LIG1        0.2923
     44 H           4.2589   -3.3260    1.8452 H       1  LIG1        0.0655
     45 H           2.4248   -2.1873    3.0532 H       1  LIG1        0.0622
     46 H          -0.8522    2.4548    0.1528 H       1  LIG1        0.0659
     47 H          -0.2361    4.9974   -3.2459 H       1  LIG1        0.0660
     48 H          -1.8795    4.4442   -3.5802 H       1  LIG1        0.0660
     49 H          -0.4343    3.4499   -4.0524 H       1  LIG1        0.0660
@<TRIPOS>BOND
     1     1     2    1
     2     2     3   ar
     3     3     4   ar
     4     4     5   ar
     5     6     8    1
     6     8     9    1
     7     8    10    1
     8     8    11    1
     9    11    14    1
    10    14    15    1
    11    14    16    1
    12    16    17   ar
    13    17    18   ar
    14    18    19    1
    15    19    20    1
    16    18    21   ar
    17    21    22    1
    18    21    23   ar
    19    23    24   ar
    20    16    24   ar
    21    14    25    1
    22     6    25    1
    23     5    26   ar
    24    26    27   ar
    25     2    27   ar
    26    27    28    1
    27    28    29    1
    28    11    13    1
    29    11    12    1
    30     6     7    1
    31     6     5    1
    32     1    30    1
    33     3    31    1
    34     4    32    1
    35    10    33    1
    36    10    34    1
    37    10    35    1
    38    13    36    1
    39    13    37    1
    40    13    38    1
    41    17    39    1
    42    20    40    1
    43    20    41    1
    44    20    42    1
    45    22    43    1
    46    23    44    1
    47    24    45    1
    48    26    46    1
    49    29    47    1
    50    29    48    1
    51    29    49    1
