@<TRIPOS>MOLECULE
NuBBE_1761
 30 31 0 0 0
SMALL
GASTEIGER

@<TRIPOS>ATOM
      1 O          -2.2820   -0.1841    1.3631 O.3     1  LIG1       -0.4884
      2 C          -3.1952   -1.2646    1.5093 C.3     1  LIG1        0.0791
      3 C          -1.1734   -0.3557    0.5781 C.ar    1  LIG1        0.2077
      4 C          -0.8868   -1.4924   -0.1684 C.ar    1  LIG1        0.2112
      5 C           0.2185   -1.5607   -0.9898 C.ar    1  LIG1        0.1704
      6 C           1.1077   -0.5190   -1.1226 C.ar    1  LIG1       -0.0090
      7 C           0.8970    0.6421   -0.3617 C.ar    1  LIG1        0.0053
      8 C          -0.2393    0.7134    0.5057 C.ar    1  LIG1        0.1689
      9 O          -0.3389    1.8932    1.2089 O.3     1  LIG1       -0.4910
     10 C          -0.9534    1.8662    2.4931 C.3     1  LIG1        0.0790
     11 C           1.9763    1.7163   -0.3781 C.3     1  LIG1       -0.0060
     12 C           2.3571    2.2267   -1.7444 C.2     1  LIG1       -0.0867
     13 C           3.5941    2.1356   -2.2745 C.2     1  LIG1       -0.1023
     14 O           0.3439   -2.7612   -1.6202 O.3     1  LIG1       -0.4525
     15 C          -0.7520   -3.4839   -1.0393 C.3     1  LIG1        0.2334
     16 O          -1.5892   -2.6638   -0.2061 O.3     1  LIG1       -0.4488
     17 H          -2.7252   -2.1216    2.0039 H       1  LIG1        0.0660
     18 H          -3.6440   -1.5416    0.5506 H       1  LIG1        0.0660
     19 H          -4.0094   -0.9246    2.1575 H       1  LIG1        0.0660
     20 H           1.9716   -0.6216   -1.7717 H       1  LIG1        0.0659
     21 H          -0.4039    2.5610    3.1364 H       1  LIG1        0.0660
     22 H          -0.9137    0.8899    2.9864 H       1  LIG1        0.0660
     23 H          -1.9831    2.2301    2.4166 H       1  LIG1        0.0660
     24 H           2.8546    1.2926    0.1271 H       1  LIG1        0.0357
     25 H           1.6795    2.5876    0.2158 H       1  LIG1        0.0357
     26 H           1.5853    2.7452   -2.3070 H       1  LIG1        0.0570
     27 H           4.4059    1.6483   -1.7471 H       1  LIG1        0.0532
     28 H           3.8105    2.5613   -3.2479 H       1  LIG1        0.0532
     29 H          -0.3505   -4.3038   -0.4310 H       1  LIG1        0.1166
     30 H          -1.3620   -3.9109   -1.8424 H       1  LIG1        0.1166
@<TRIPOS>BOND
     1     1     2    1
     2     1     3    1
     3     3     4   ar
     4     4     5   ar
     5     5     6   ar
     6     6     7   ar
     7     7     8   ar
     8     3     8   ar
     9     8     9    1
    10     9    10    1
    11     7    11    1
    12    11    12    1
    13    12    13    2
    14     5    14    1
    15    14    15    1
    16    15    16    1
    17     4    16    1
    18     2    17    1
    19     2    18    1
    20     2    19    1
    21     6    20    1
    22    10    21    1
    23    10    22    1
    24    10    23    1
    25    11    24    1
    26    11    25    1
    27    12    26    1
    28    13    27    1
    29    13    28    1
    30    15    29    1
    31    15    30    1
