REMARK  Name = NuBBE_1418
REMARK  6 active torsions:
REMARK  status: ('A' for Active; 'I' for Inactive)
REMARK    1  A    between atoms: C_3  and  C_5
REMARK    2  A    between atoms: C_8  and  O_13
REMARK    3  A    between atoms: C_9  and  O_10
REMARK    4  A    between atoms: O_10  and  C_11
REMARK    5  A    between atoms: O_13  and  C_14
REMARK    6  A    between atoms: C_18  and  C_20
REMARK                            x       y       z     vdW  Elec       q    Type
REMARK                         _______ _______ _______ _____ _____    ______ ____
ROOT
ATOM      1  C   LIG A   1       0.293  -0.130  -1.514  0.00  0.00    +0.056 C 
ATOM      2  C   LIG A   1       0.464   1.351  -1.200  0.00  0.00    +0.154 C 
ATOM      3  O   LIG A   1       1.291   1.429  -0.021  0.00  0.00    -0.371 OA
ATOM      4  C   LIG A   1       1.760   0.109   0.301  0.00  0.00    +0.167 C 
ATOM      5  C   LIG A   1       0.717  -0.843  -0.255  0.00  0.00    +0.056 C 
ATOM      6  C   LIG A   1       1.197  -2.193  -0.765  0.00  0.00    +0.154 C 
ATOM      7  O   LIG A   1       1.677  -1.970  -2.107  0.00  0.00    -0.371 OA
ATOM      8  C   LIG A   1       1.292  -0.657  -2.533  0.00  0.00    +0.167 C 
ENDROOT
BRANCH   6   9
ATOM      9  C   LIG A   1       2.220  -2.899   0.098  0.00  0.00    -0.015 A 
ATOM     10  C   LIG A   1       3.493  -3.244  -0.421  0.00  0.00    +0.010 A 
ATOM     11  C   LIG A   1       4.450  -3.905   0.355  0.00  0.00    +0.050 A 
ATOM     12  C   LIG A   1       4.105  -4.219   1.652  0.00  0.00    +0.166 A 
ATOM     13  C   LIG A   1       2.870  -3.909   2.165  0.00  0.00    +0.167 A 
ATOM     14  O   LIG A   1       2.733  -4.313   3.459  0.00  0.00    -0.453 OA
ATOM     15  C   LIG A   1       4.038  -4.878   3.705  0.00  0.00    +0.466 C 
ATOM     16  O   LIG A   1       4.904  -4.849   2.548  0.00  0.00    -0.453 OA
ATOM     17  C   LIG A   1       1.904  -3.261   1.421  0.00  0.00    +0.055 A 
ENDBRANCH   6   9
BRANCH   2  18
ATOM     18  C   LIG A   1      -0.858   2.063  -0.984  0.00  0.00    -0.015 A 
ATOM     19  C   LIG A   1      -1.513   2.657  -2.072  0.00  0.00    +0.010 A 
ATOM     20  C   LIG A   1      -2.731   3.330  -1.901  0.00  0.00    +0.050 A 
ATOM     21  C   LIG A   1      -3.334   3.416  -0.640  0.00  0.00    +0.162 A 
ATOM     22  C   LIG A   1      -2.702   2.800   0.454  0.00  0.00    +0.162 A 
ATOM     23  C   LIG A   1      -1.470   2.145   0.274  0.00  0.00    +0.055 A 
BRANCH  22  24
ATOM     24  O   LIG A   1      -3.126   2.811   1.762  0.00  0.00    -0.491 OA
ATOM     25  C   LIG A   1      -4.529   2.833   1.994  0.00  0.00    +0.277 C 
ENDBRANCH  22  24
BRANCH  21  26
ATOM     26  O   LIG A   1      -4.482   4.114  -0.396  0.00  0.00    -0.491 OA
ATOM     27  C   LIG A   1      -5.210   4.660  -1.484  0.00  0.00    +0.277 C 
ENDBRANCH  21  26
ENDBRANCH   2  18
TORSDOF 4
