@<TRIPOS>MOLECULE
NuBBE_2398
 43 44 0 0 0
SMALL
GASTEIGER

@<TRIPOS>ATOM
      1 C          -1.5630    0.2370    1.2260 C.2     1  LIG1        0.1896
      2 O          -1.9937   -0.7085    1.8703 O.2     1  LIG1       -0.2872
      3 C          -2.4778    1.1953    0.5343 C.2     1  LIG1       -0.0137
      4 C          -3.7549    0.8444    0.3075 C.2     1  LIG1       -0.0510
      5 C          -4.7265    1.7361   -0.3358 C.ar    1  LIG1       -0.0249
      6 C          -5.5238    2.5765    0.4498 C.ar    1  LIG1       -0.0546
      7 C          -6.5054    3.3761   -0.1420 C.ar    1  LIG1       -0.0612
      8 C          -6.6926    3.3439   -1.5229 C.ar    1  LIG1       -0.0617
      9 C          -5.8952    2.5168   -2.3134 C.ar    1  LIG1       -0.0612
     10 C          -4.9124    1.7160   -1.7225 C.ar    1  LIG1       -0.0546
     11 C          -0.0810    0.3946    1.0911 C.ar    1  LIG1        0.0635
     12 C           0.7430   -0.7517    1.1760 C.ar    1  LIG1        0.1346
     13 O           0.1981   -2.0099    1.3125 O.3     1  LIG1       -0.5057
     14 C           2.1540   -0.6687    1.1152 C.ar    1  LIG1        0.0398
     15 C           2.9949   -1.9248    1.2003 C.3     1  LIG1       -0.0023
     16 C           3.2814   -2.5425   -0.1446 C.2     1  LIG1       -0.0807
     17 C           4.4813   -2.7596   -0.7211 C.2     1  LIG1       -0.0793
     18 C           5.8075   -2.3328   -0.1580 C.3     1  LIG1       -0.0440
     19 C           4.5889   -3.5116   -2.0239 C.3     1  LIG1       -0.0440
     20 C           2.7178    0.6050    0.9633 C.ar    1  LIG1        0.1238
     21 C           1.9153    1.7411    0.8561 C.ar    1  LIG1       -0.0190
     22 C           0.5237    1.6421    0.9235 C.ar    1  LIG1       -0.0440
     23 O           4.0617    0.8506    0.9287 O.3     1  LIG1       -0.5064
     24 H          -2.1039    2.1561    0.2174 H       1  LIG1        0.0656
     25 H          -4.1520   -0.1279    0.5955 H       1  LIG1        0.0625
     26 H          -5.4041    2.5956    1.5306 H       1  LIG1        0.0623
     27 H          -7.1352    4.0105    0.4768 H       1  LIG1        0.0618
     28 H          -7.4668    3.9547   -1.9813 H       1  LIG1        0.0618
     29 H          -6.0509    2.4826   -3.3890 H       1  LIG1        0.0618
     30 H          -4.3141    1.0608   -2.3511 H       1  LIG1        0.0623
     31 H          -0.7546   -1.9127    1.5365 H       1  LIG1        0.2922
     32 H           2.4885   -2.6739    1.8223 H       1  LIG1        0.0358
     33 H           3.9115   -1.7229    1.7608 H       1  LIG1        0.0358
     34 H           2.3868   -2.8971   -0.6604 H       1  LIG1        0.0575
     35 H           5.7241   -1.6909    0.7194 H       1  LIG1        0.0274
     36 H           6.3682   -1.7659   -0.9091 H       1  LIG1        0.0274
     37 H           6.3957   -3.2098    0.1278 H       1  LIG1        0.0274
     38 H           3.6112   -3.7612   -2.4484 H       1  LIG1        0.0274
     39 H           5.1314   -4.4501   -1.8635 H       1  LIG1        0.0274
     40 H           5.1348   -2.9210   -2.7668 H       1  LIG1        0.0274
     41 H           2.3881    2.7138    0.7370 H       1  LIG1        0.0654
     42 H          -0.0519    2.5605    0.8745 H       1  LIG1        0.0627
     43 H           4.5521    0.0339    1.1006 H       1  LIG1        0.2921
@<TRIPOS>BOND
     1     1     2    2
     2     1     3    1
     3     3     4    2
     4     4     5    1
     5     5     6   ar
     6     6     7   ar
     7     7     8   ar
     8     8     9   ar
     9     9    10   ar
    10     5    10   ar
    11     1    11    1
    12    11    12   ar
    13    12    13    1
    14    12    14   ar
    15    14    15    1
    16    15    16    1
    17    16    17    2
    18    17    18    1
    19    17    19    1
    20    14    20   ar
    21    20    21   ar
    22    21    22   ar
    23    11    22   ar
    24    20    23    1
    25     3    24    1
    26     4    25    1
    27     6    26    1
    28     7    27    1
    29     8    28    1
    30     9    29    1
    31    10    30    1
    32    13    31    1
    33    15    32    1
    34    15    33    1
    35    16    34    1
    36    18    35    1
    37    18    36    1
    38    18    37    1
    39    19    38    1
    40    19    39    1
    41    19    40    1
    42    21    41    1
    43    22    42    1
    44    23    43    1
