REMARK  Name = NuBBE_590
REMARK  3 active torsions:
REMARK  status: ('A' for Active; 'I' for Inactive)
REMARK    1  A    between atoms: C_1  and  C_2
REMARK    2  A    between atoms: C_4  and  C_19
REMARK    3  A    between atoms: C_13  and  C_15
REMARK                            x       y       z     vdW  Elec       q    Type
REMARK                         _______ _______ _______ _____ _____    ______ ____
ROOT
ATOM      1  C   LIG A   1      -2.474  -1.788   0.286  0.00  0.00    +0.009 C 
ATOM      2  C   LIG A   1      -0.938  -1.714   0.266  0.00  0.00    +0.001 C 
ATOM      3  C   LIG A   1      -0.466  -0.237   0.494  0.00  0.00    +0.056 C 
ATOM      4  C   LIG A   1       0.936  -0.093   1.070  0.00  0.00    +0.009 A 
ATOM      5  C   LIG A   1       1.473   1.158   1.358  0.00  0.00    +0.170 A 
ATOM      6  C   LIG A   1       2.747   1.319   1.858  0.00  0.00    +0.167 A 
ATOM      7  C   LIG A   1       3.566   0.245   2.119  0.00  0.00    +0.050 A 
ATOM      8  C   LIG A   1       3.053  -1.030   1.878  0.00  0.00    +0.008 A 
ATOM      9  C   LIG A   1       1.740  -1.208   1.381  0.00  0.00    -0.040 A 
ATOM     10  C   LIG A   1       1.226  -2.607   1.174  0.00  0.00    +0.039 C 
ATOM     11  C   LIG A   1      -0.303  -2.676   1.298  0.00  0.00    -0.006 C 
ATOM     12  C   LIG A   1      -0.753  -4.130   1.123  0.00  0.00    +0.008 C 
ATOM     13  O   LIG A   1       3.075   2.623   2.057  0.00  0.00    -0.453 OA
ATOM     14  C   LIG A   1       1.870   3.275   1.612  0.00  0.00    +0.466 C 
ATOM     15  O   LIG A   1       0.840   2.356   1.207  0.00  0.00    -0.452 OA
ENDROOT
BRANCH   3  16
ATOM     16  C   LIG A   1      -0.646   0.561  -0.803  0.00  0.00    -0.036 A 
ATOM     17  C   LIG A   1      -1.642   1.551  -0.884  0.00  0.00    +0.053 A 
ATOM     18  C   LIG A   1      -1.775   2.248  -2.067  0.00  0.00    +0.167 A 
ATOM     19  C   LIG A   1      -0.967   2.001  -3.150  0.00  0.00    +0.166 A 
ATOM     20  C   LIG A   1       0.022   1.044  -3.114  0.00  0.00    +0.050 A 
ATOM     21  C   LIG A   1       0.182   0.320  -1.928  0.00  0.00    +0.008 A 
ATOM     22  O   LIG A   1      -1.264   2.796  -4.213  0.00  0.00    -0.453 OA
ATOM     23  C   LIG A   1      -2.352   3.574  -3.671  0.00  0.00    +0.466 C 
ATOM     24  O   LIG A   1      -2.684   3.231  -2.310  0.00  0.00    -0.453 OA
ENDBRANCH   3  16
TORSDOF 1
