REMARK  Name = NuBBE_1660
REMARK  7 active torsions:
REMARK  status: ('A' for Active; 'I' for Inactive)
REMARK    1  A    between atoms: C_1  and  C_2
REMARK    2  A    between atoms: C_7  and  C_8
REMARK    3  A    between atoms: C_7  and  O_9
REMARK    4  A    between atoms: C_16  and  O_29
REMARK    5  A    between atoms: C_18  and  O_28
REMARK    6  A    between atoms: C_22  and  C_23
REMARK    7  A    between atoms: C_22  and  C_24
REMARK                            x       y       z     vdW  Elec       q    Type
REMARK                         _______ _______ _______ _____ _____    ______ ____
ROOT
ATOM      1  C   LIG A   1      -2.256  -0.791   1.124  0.00  0.00    +0.012 C 
ATOM      2  C   LIG A   1      -0.886  -0.022   1.152  0.00  0.00    -0.023 C 
ATOM      3  C   LIG A   1      -0.491   0.469  -0.284  0.00  0.00    +0.011 C 
ATOM      4  C   LIG A   1      -0.677  -0.695  -1.326  0.00  0.00    +0.060 C 
ATOM      5  C   LIG A   1      -0.308  -0.350  -2.825  0.00  0.00    +0.097 C 
ATOM      6  C   LIG A   1      -1.017  -1.310  -3.806  0.00  0.00    +0.047 C 
ATOM      7  C   LIG A   1      -0.640   1.059  -3.160  0.00  0.00    +0.025 A 
ATOM      8  C   LIG A   1      -1.040   2.021  -2.127  0.00  0.00    +0.111 A 
ATOM      9  C   LIG A   1      -1.231   1.749  -0.727  0.00  0.00    +0.079 C 
ATOM     10  O   LIG A   1      -1.173   3.219  -2.636  0.00  0.00    -0.467 OA
ATOM     11  C   LIG A   1      -0.874   3.133  -3.987  0.00  0.00    +0.195 A 
ATOM     12  C   LIG A   1      -0.613   1.886  -4.282  0.00  0.00    +0.048 A 
ATOM     13  C   LIG A   1      -0.144  -2.048  -0.752  0.00  0.00    +0.150 C 
ATOM     14  C   LIG A   1       0.496  -2.094   0.712  0.00  0.00    +0.147 C 
ATOM     15  C   LIG A   1       0.341  -0.875   1.689  0.00  0.00    +0.032 C 
ATOM     16  C   LIG A   1       1.718  -0.069   2.298  0.00  0.00    -0.029 C 
ATOM     17  C   LIG A   1       2.488  -0.961   3.328  0.00  0.00    +0.011 C 
ATOM     18  C   LIG A   1       2.866   0.479   1.389  0.00  0.00    +0.011 C 
ATOM     19  C   LIG A   1       1.310   1.103   3.136  0.00  0.00    +0.007 C 
ATOM     20  C   LIG A   1      -0.066   1.556   2.902  0.00  0.00    +0.001 C 
ATOM     21  C   LIG A   1      -1.249   1.043   2.141  0.00  0.00    +0.007 C 
ENDROOT
BRANCH   5  22
ATOM     22  O   LIG A   1       1.106  -0.525  -2.986  0.00  0.00    -0.384 OA
ATOM     23  H   LIG A   1       1.303  -0.238  -3.903  0.00  0.00    +0.211 HD
ENDBRANCH   5  22
BRANCH  14  24
ATOM     24  O   LIG A   1      -0.182  -3.199   1.391  0.00  0.00    -0.389 OA
ATOM     25  H   LIG A   1      -1.134  -3.157   1.188  0.00  0.00    +0.210 HD
ENDBRANCH  14  24
BRANCH  13  26
ATOM     26  O   LIG A   1       0.679  -2.783  -1.659  0.00  0.00    -0.389 OA
ATOM     27  H   LIG A   1       1.332  -2.158  -2.030  0.00  0.00    +0.210 HD
ENDBRANCH  13  26
TORSDOF 3
