REMARK  Name = NuBBE_282
REMARK  17 active torsions:
REMARK  status: ('A' for Active; 'I' for Inactive)
REMARK    1  A    between atoms: O_1  and  C_2
REMARK    2  A    between atoms: C_5  and  O_6
REMARK    3  A    between atoms: O_6  and  C_7
REMARK    4  A    between atoms: C_10  and  C_18
REMARK    5  A    between atoms: C_12  and  O_17
REMARK    6  A    between atoms: C_14  and  O_16
REMARK    7  A    between atoms: C_18  and  O_19
REMARK    8  A    between atoms: O_19  and  C_20
REMARK    9  A    between atoms: C_22  and  O_34
REMARK   10  A    between atoms: C_24  and  O_33
REMARK   11  A    between atoms: C_26  and  O_32
REMARK   12  A    between atoms: C_28  and  C_31
REMARK   13  A    between atoms: C_35  and  O_37
REMARK   14  A    between atoms: C_38  and  C_46
REMARK   15  A    between atoms: C_42  and  O_43
REMARK   16  A    between atoms: C_49  and  O_53
REMARK   17  A    between atoms: C_50  and  O_51
REMARK                            x       y       z     vdW  Elec       q    Type
REMARK                         _______ _______ _______ _____ _____    ______ ____
ROOT
ATOM      1  C   LIG A   1       0.500   1.659   0.665  0.00  0.00    +0.340 C 
ATOM      2  O   LIG A   1       0.196   2.056  -0.692  0.00  0.00    -0.331 OA
ATOM      3  C   LIG A   1       0.625   1.167  -1.732  0.00  0.00    +0.179 C 
ATOM      4  C   LIG A   1       2.122   0.802  -1.617  0.00  0.00    +0.177 C 
ATOM      5  C   LIG A   1       2.493   0.356  -0.202  0.00  0.00    +0.180 C 
ATOM      6  C   LIG A   1       2.016   1.399   0.808  0.00  0.00    +0.214 C 
ENDROOT
BRANCH   5   7
ATOM      7  O   LIG A   1       1.915  -0.918   0.088  0.00  0.00    -0.386 OA
ATOM      8  H   LIG A   1       2.630  -1.494   0.414  0.00  0.00    +0.210 HD
ENDBRANCH   5   7
BRANCH   4   9
ATOM      9  O   LIG A   1       2.577  -0.159  -2.568  0.00  0.00    -0.387 OA
ATOM     10  H   LIG A   1       1.905  -0.869  -2.604  0.00  0.00    +0.210 HD
ENDBRANCH   4   9
BRANCH   6  11
ATOM     11  O   LIG A   1       2.742   2.628   0.605  0.00  0.00    -0.383 OA
ATOM     12  H   LIG A   1       2.220   3.184  -0.008  0.00  0.00    +0.210 HD
ENDBRANCH   6  11
BRANCH   1  13
ATOM     13  O   LIG A   1      -0.386   0.634   1.133  0.00  0.00    -0.453 OA
BRANCH  13  17
ATOM     14  C   LIG A   1      -0.028  -3.417   3.898  0.00  0.00    +0.135 A 
ATOM     15  C   LIG A   1      -0.037  -2.025   3.765  0.00  0.00    +0.109 A 
ATOM     16  C   LIG A   1      -0.463  -1.362   2.523  0.00  0.00    +0.238 A 
ATOM     17  C   LIG A   1      -0.243   0.119   2.413  0.00  0.00    +0.214 A 
ATOM     18  C   LIG A   1      -0.024   0.774   3.583  0.00  0.00    +0.181 A 
ATOM     19  O   LIG A   1       0.291   0.135   4.783  0.00  0.00    -0.451 OA
ATOM     20  C   LIG A   1       0.390  -1.229   4.817  0.00  0.00    +0.146 A 
ATOM     21  C   LIG A   1       0.901  -1.812   5.982  0.00  0.00    +0.092 A 
ATOM     22  C   LIG A   1       0.951  -3.201   6.083  0.00  0.00    +0.124 A 
ATOM     23  C   LIG A   1       0.469  -4.008   5.058  0.00  0.00    +0.091 A 
ATOM     24  O   LIG A   1      -0.974  -2.023   1.632  0.00  0.00    -0.283 OA
BRANCH  18  25
ATOM     25  C   LIG A   1      -0.132   2.244   3.773  0.00  0.00    +0.025 A 
ATOM     26  C   LIG A   1       0.671   2.918   4.713  0.00  0.00    +0.015 A 
ATOM     27  C   LIG A   1       0.578   4.306   4.886  0.00  0.00    +0.050 A 
ATOM     28  C   LIG A   1      -0.296   5.030   4.089  0.00  0.00    +0.158 A 
ATOM     29  C   LIG A   1      -1.111   4.374   3.177  0.00  0.00    +0.159 A 
ATOM     30  C   LIG A   1      -1.086   2.992   3.065  0.00  0.00    +0.060 A 
BRANCH  29  31
ATOM     31  O   LIG A   1      -1.925   5.085   2.344  0.00  0.00    -0.503 OA
ATOM     32  H   LIG A   1      -1.716   6.022   2.529  0.00  0.00    +0.292 HD
ENDBRANCH  29  31
BRANCH  28  33
ATOM     33  O   LIG A   1      -0.395   6.390   4.163  0.00  0.00    -0.503 OA
ATOM     34  H   LIG A   1       0.145   6.696   4.911  0.00  0.00    +0.292 HD
ENDBRANCH  28  33
ENDBRANCH  18  25
BRANCH  14  35
ATOM     35  O   LIG A   1      -0.494  -4.261   2.927  0.00  0.00    -0.506 OA
ATOM     36  H   LIG A   1      -0.871  -3.713   2.201  0.00  0.00    +0.292 HD
ENDBRANCH  14  35
BRANCH  22  37
ATOM     37  O   LIG A   1       1.464  -3.819   7.186  0.00  0.00    -0.506 OA
ATOM     38  H   LIG A   1       1.839  -3.157   7.788  0.00  0.00    +0.292 HD
ENDBRANCH  22  37
ENDBRANCH  13  17
ENDBRANCH   1  13
BRANCH   3  39
ATOM     39  C   LIG A   1      -0.355  -0.001  -1.929  0.00  0.00    +0.197 C 
BRANCH  39  40
ATOM     40  O   LIG A   1       0.035  -0.739  -3.088  0.00  0.00    -0.346 OA
BRANCH  40  41
ATOM     41  C   LIG A   1      -0.792  -1.850  -3.404  0.00  0.00    +0.282 C 
ATOM     42  C   LIG A   1      -2.255  -1.491  -3.720  0.00  0.00    +0.201 C 
ATOM     43  C   LIG A   1      -2.283  -0.534  -4.912  0.00  0.00    +0.179 C 
ATOM     44  C   LIG A   1      -1.569  -1.147  -6.122  0.00  0.00    +0.174 C 
ATOM     45  C   LIG A   1      -0.188  -1.698  -5.728  0.00  0.00    +0.149 C 
ATOM     46  O   LIG A   1      -0.256  -2.534  -4.555  0.00  0.00    -0.343 OA
ATOM     47  C   LIG A   1       0.390  -2.547  -6.859  0.00  0.00    +0.040 C 
BRANCH  44  48
ATOM     48  O   LIG A   1      -1.454  -0.158  -7.150  0.00  0.00    -0.387 OA
ATOM     49  H   LIG A   1      -2.321   0.293  -7.180  0.00  0.00    +0.210 HD
ENDBRANCH  44  48
BRANCH  43  50
ATOM     50  O   LIG A   1      -3.641  -0.240  -5.284  0.00  0.00    -0.386 OA
ATOM     51  H   LIG A   1      -4.147  -1.057  -5.098  0.00  0.00    +0.210 HD
ENDBRANCH  43  50
BRANCH  42  52
ATOM     52  O   LIG A   1      -3.021  -2.667  -4.058  0.00  0.00    -0.384 OA
ATOM     53  H   LIG A   1      -2.385  -3.330  -4.396  0.00  0.00    +0.210 HD
ENDBRANCH  42  52
ENDBRANCH  40  41
ENDBRANCH  39  40
ENDBRANCH   3  39
TORSDOF 16
