@<TRIPOS>MOLECULE
NuBBE_1143
 35 37 0 0 0
SMALL
GASTEIGER

@<TRIPOS>ATOM
      1 O          -3.4503    3.8504   -1.2888 O.2     1  LIG1       -0.2452
      2 C          -2.2544    3.6241   -1.2454 C.ar    1  LIG1        0.3373
      3 C          -1.2798    4.6541   -1.6575 C.ar    1  LIG1        0.0236
      4 C           0.0346    4.4325   -1.6560 C.ar    1  LIG1       -0.0442
      5 C           0.5500    3.1306   -1.2557 C.ar    1  LIG1        0.0221
      6 C           1.9246    2.8742   -1.2978 C.ar    1  LIG1       -0.0401
      7 C           2.3831    1.5920   -0.9458 C.ar    1  LIG1        0.0246
      8 C           1.4631    0.6248   -0.5322 C.ar    1  LIG1        0.1799
      9 O           2.1322   -0.5383   -0.2684 O.2     1  LIG1       -0.4591
     10 C           3.4526   -0.3147   -0.4759 C.ar    1  LIG1        0.0933
     11 C           3.6644    0.9800   -0.8803 C.ar    1  LIG1       -0.0160
     12 C           0.0805    0.8470   -0.4105 C.ar    1  LIG1        0.2064
     13 O          -0.8870   -0.0310    0.0722 O.3     1  LIG1       -0.4822
     14 C          -0.4203   -1.3212    0.5241 C.3     1  LIG1        0.1195
     15 C          -1.5997   -2.1510    1.1033 C.3     1  LIG1        0.1097
     16 H          -2.3401   -2.3071    0.3096 H       1  LIG1        0.0674
     17 C          -1.1980   -3.5153    1.6651 C.2     1  LIG1       -0.0484
     18 C          -0.5444   -4.4697    0.7034 C.3     1  LIG1       -0.0415
     19 C          -1.4323   -3.9149    2.9306 C.2     1  LIG1       -0.0972
     20 O          -2.2655   -1.4077    2.1316 O.3     1  LIG1       -0.3841
     21 C          -0.3368    2.1332   -0.8232 C.ar    1  LIG1        0.1842
     22 O          -1.7324    2.4116   -0.8030 O.2     1  LIG1       -0.4183
     23 H          -1.7007    5.6048   -1.9618 H       1  LIG1        0.0689
     24 H           0.7293    5.2111   -1.9588 H       1  LIG1        0.0627
     25 H           2.6321    3.6400   -1.6062 H       1  LIG1        0.0632
     26 H           4.1033   -1.1570   -0.2871 H       1  LIG1        0.1030
     27 H           4.6230    1.4292   -1.0999 H       1  LIG1        0.0655
     28 H           0.3412   -1.1894    1.3019 H       1  LIG1        0.0726
     29 H          -0.0063   -1.8571   -0.3374 H       1  LIG1        0.0726
     30 H          -1.1293   -4.5485   -0.2180 H       1  LIG1        0.0275
     31 H          -0.4595   -5.4800    1.1211 H       1  LIG1        0.0275
     32 H           0.4653   -4.1285    0.4576 H       1  LIG1        0.0275
     33 H          -1.9227   -3.2696    3.6544 H       1  LIG1        0.0535
     34 H          -1.1513   -4.9031    3.2836 H       1  LIG1        0.0535
     35 H          -2.4683   -0.5352    1.7513 H       1  LIG1        0.2104
@<TRIPOS>BOND
     1     1     2    2
     2     2     3   ar
     3     3     4   ar
     4     4     5   ar
     5     5     6   ar
     6     6     7   ar
     7     7     8   ar
     8     8     9   ar
     9     9    10   ar
    10    10    11   ar
    11     7    11   ar
    12     8    12   ar
    13    12    13    1
    14    13    14    1
    15    14    15    1
    16    15    16    1
    17    15    17    1
    18    17    18    1
    19    17    19    2
    20    15    20    1
    21    12    21   ar
    22     5    21   ar
    23    21    22   ar
    24     2    22   ar
    25     3    23    1
    26     4    24    1
    27     6    25    1
    28    10    26    1
    29    11    27    1
    30    14    28    1
    31    14    29    1
    32    18    30    1
    33    18    31    1
    34    18    32    1
    35    19    33    1
    36    19    34    1
    37    20    35    1
