@<TRIPOS>MOLECULE
NuBBE_2009
 45 48 0 0 0
SMALL
GASTEIGER

@<TRIPOS>ATOM
      1 C          -3.2845   -0.5620   -3.0757 C.3     1  LIG1        0.0790
      2 O          -2.7322    0.7447   -3.1758 O.3     1  LIG1       -0.4913
      3 C          -1.9566    1.1775   -2.1304 C.ar    1  LIG1        0.1655
      4 C          -1.1552    0.3950   -1.2867 C.ar    1  LIG1        0.2042
      5 O          -1.1375   -0.9586   -1.4621 O.3     1  LIG1       -0.4781
      6 C           0.0441   -1.5790   -0.9361 C.3     1  LIG1        0.1385
      7 H           0.8819   -1.3060   -1.5916 H       1  LIG1        0.0771
      8 C          -0.2189   -3.0759   -1.0655 C.3     1  LIG1       -0.0239
      9 C           0.2863   -1.1136    0.5127 C.3     1  LIG1        0.1617
     10 H          -0.5857   -1.3627    1.1333 H       1  LIG1        0.0822
     11 O           0.4338    0.3211    0.5712 O.3     1  LIG1       -0.4767
     12 C           1.5452   -1.7042    1.1397 C.ar    1  LIG1       -0.0001
     13 C           2.8222   -1.4407    0.5821 C.ar    1  LIG1       -0.0513
     14 C           3.9903   -1.9615    1.1525 C.ar    1  LIG1       -0.0158
     15 C           3.8623   -2.7361    2.2827 C.ar    1  LIG1        0.1662
     16 C           2.6341   -2.9991    2.8398 C.ar    1  LIG1        0.1666
     17 O           2.7299   -3.7785    3.9520 O.3     1  LIG1       -0.4526
     18 C           4.1608   -3.9522    4.0428 C.3     1  LIG1        0.2332
     19 O           4.8836   -3.3124    2.9713 O.3     1  LIG1       -0.4526
     20 C           1.4628   -2.5020    2.2970 C.ar    1  LIG1       -0.0094
     21 C          -0.3891    1.0068   -0.2872 C.ar    1  LIG1        0.1669
     22 C          -0.4096    2.3967   -0.1358 C.ar    1  LIG1       -0.0125
     23 C          -1.1886    3.1946   -0.9855 C.ar    1  LIG1       -0.0365
     24 C          -1.2344    4.6975   -0.8206 C.3     1  LIG1       -0.0095
     25 C          -2.3475    5.1476    0.0844 C.2     1  LIG1       -0.0868
     26 C          -3.3385    5.9662   -0.2817 C.2     1  LIG1       -0.1023
     27 C          -1.9509    2.5700   -1.9824 C.ar    1  LIG1       -0.0126
     28 H          -4.0690   -0.6470   -3.8343 H       1  LIG1        0.0660
     29 H          -3.7491   -0.7315   -2.0985 H       1  LIG1        0.0660
     30 H          -2.5395   -1.3278   -3.3096 H       1  LIG1        0.0660
     31 H          -0.5321   -3.3115   -2.0906 H       1  LIG1        0.0266
     32 H          -1.0478   -3.3828   -0.4174 H       1  LIG1        0.0266
     33 H           0.6619   -3.6763   -0.8280 H       1  LIG1        0.0266
     34 H           2.9111   -0.8063   -0.2984 H       1  LIG1        0.0623
     35 H           4.9657   -1.7546    0.7267 H       1  LIG1        0.0655
     36 H           4.3885   -5.0246    4.0281 H       1  LIG1        0.1166
     37 H           4.5064   -3.5359    4.9967 H       1  LIG1        0.1166
     38 H           0.5127   -2.7230    2.7724 H       1  LIG1        0.0659
     39 H           0.1887    2.8553    0.6484 H       1  LIG1        0.0658
     40 H          -1.3290    5.1610   -1.8139 H       1  LIG1        0.0355
     41 H          -0.2810    5.0522   -0.4185 H       1  LIG1        0.0355
     42 H          -2.3159    4.7841    1.1116 H       1  LIG1        0.0570
     43 H          -3.4132    6.3605   -1.2913 H       1  LIG1        0.0532
     44 H          -4.1068    6.2637    0.4279 H       1  LIG1        0.0532
     45 H          -2.5596    3.1714   -2.6558 H       1  LIG1        0.0658
@<TRIPOS>BOND
     1     1     2    1
     2     2     3    1
     3     3     4   ar
     4     4     5    1
     5     5     6    1
     6     6     7    1
     7     6     8    1
     8     6     9    1
     9     9    10    1
    10     9    11    1
    11     9    12    1
    12    12    13   ar
    13    13    14   ar
    14    14    15   ar
    15    15    16   ar
    16    16    17    1
    17    17    18    1
    18    18    19    1
    19    15    19    1
    20    16    20   ar
    21    12    20   ar
    22     4    21   ar
    23    11    21    1
    24    21    22   ar
    25    22    23   ar
    26    23    24    1
    27    24    25    1
    28    25    26    2
    29    23    27   ar
    30     3    27   ar
    31     1    28    1
    32     1    29    1
    33     1    30    1
    34     8    31    1
    35     8    32    1
    36     8    33    1
    37    13    34    1
    38    14    35    1
    39    18    36    1
    40    18    37    1
    41    20    38    1
    42    22    39    1
    43    24    40    1
    44    24    41    1
    45    25    42    1
    46    26    43    1
    47    26    44    1
    48    27    45    1
