@<TRIPOS>MOLECULE
NuBBE_2273
 38 39 0 0 0
SMALL
GASTEIGER

@<TRIPOS>ATOM
      1 C           2.4265   -0.8983   -0.0618 C.ar    1  LIG1       -0.0470
      2 C           1.1931   -0.2042   -0.0668 C.ar    1  LIG1       -0.0407
      3 C           1.1854    1.2108   -0.0685 C.ar    1  LIG1       -0.0410
      4 C           2.4063    1.9210    0.0085 C.ar    1  LIG1       -0.0470
      5 C           3.6140    1.2147    0.0312 C.ar    1  LIG1       -0.0583
      6 C           3.6240   -0.1762   -0.0042 C.ar    1  LIG1       -0.0583
      7 C           2.4500    3.4257    0.0403 C.3     1  LIG1       -0.0394
      8 C          -0.1221    1.9706   -0.0929 C.3     1  LIG1       -0.0268
      9 C          -1.3188    1.1404   -0.5476 C.3     1  LIG1       -0.0433
     10 C          -1.3771   -0.1856    0.2237 C.3     1  LIG1       -0.0084
     11 H          -1.3375    0.0416    1.2994 H       1  LIG1        0.0331
     12 C          -0.1058   -0.9871   -0.1272 C.3     1  LIG1       -0.0217
     13 C          -2.6936   -0.9827   -0.0408 C.3     1  LIG1        0.0636
     14 C          -2.6712   -2.3812    0.5927 C.3     1  LIG1       -0.0361
     15 C          -3.9169   -0.2294    0.5037 C.3     1  LIG1       -0.0361
     16 O          -2.9082   -1.1371   -1.4464 O.3     1  LIG1       -0.3888
     17 C           2.4948   -2.4024   -0.0901 C.3     1  LIG1       -0.0394
     18 H           4.5622    1.7458    0.0766 H       1  LIG1        0.0620
     19 H           4.5803   -0.6943    0.0133 H       1  LIG1        0.0620
     20 H           1.7849    3.8151    0.8176 H       1  LIG1        0.0278
     21 H           2.1563    3.8324   -0.9325 H       1  LIG1        0.0278
     22 H           3.4566    3.7933    0.2674 H       1  LIG1        0.0278
     23 H          -0.0441    2.8324   -0.7656 H       1  LIG1        0.0313
     24 H          -0.3125    2.3524    0.9182 H       1  LIG1        0.0313
     25 H          -1.2452    0.9471   -1.6258 H       1  LIG1        0.0272
     26 H          -2.2221    1.7378   -0.3923 H       1  LIG1        0.0272
     27 H          -0.1898   -1.3999   -1.1397 H       1  LIG1        0.0317
     28 H          -0.0322   -1.8249    0.5753 H       1  LIG1        0.0317
     29 H          -2.4687   -2.3316    1.6675 H       1  LIG1        0.0257
     30 H          -1.9238   -3.0276    0.1205 H       1  LIG1        0.0257
     31 H          -3.6313   -2.8901    0.4462 H       1  LIG1        0.0257
     32 H          -3.8114   -0.0079    1.5706 H       1  LIG1        0.0257
     33 H          -4.8300   -0.8211    0.3658 H       1  LIG1        0.0257
     34 H          -4.0935    0.7061   -0.0360 H       1  LIG1        0.0257
     35 H          -2.2303   -1.7352   -1.8021 H       1  LIG1        0.2101
     36 H           1.8857   -2.8017   -0.9071 H       1  LIG1        0.0278
     37 H           2.1471   -2.8139    0.8626 H       1  LIG1        0.0278
     38 H           3.5190   -2.7547   -0.2538 H       1  LIG1        0.0278
@<TRIPOS>BOND
     1     1     2   ar
     2     2     3   ar
     3     3     4   ar
     4     4     5   ar
     5     5     6   ar
     6     1     6   ar
     7     4     7    1
     8     3     8    1
     9     8     9    1
    10     9    10    1
    11    10    11    1
    12    10    12    1
    13     2    12    1
    14    10    13    1
    15    13    14    1
    16    13    15    1
    17    13    16    1
    18     1    17    1
    19     5    18    1
    20     6    19    1
    21     7    20    1
    22     7    21    1
    23     7    22    1
    24     8    23    1
    25     8    24    1
    26     9    25    1
    27     9    26    1
    28    12    27    1
    29    12    28    1
    30    14    29    1
    31    14    30    1
    32    14    31    1
    33    15    32    1
    34    15    33    1
    35    15    34    1
    36    16    35    1
    37    17    36    1
    38    17    37    1
    39    17    38    1
