REMARK  Name = NuBBE_1221
REMARK  11 active torsions:
REMARK  status: ('A' for Active; 'I' for Inactive)
REMARK    1  A    between atoms: C_4  and  C_18
REMARK    2  A    between atoms: C_9  and  O_10
REMARK    3  A    between atoms: O_10  and  C_11
REMARK    4  A    between atoms: C_12  and  O_13
REMARK    5  A    between atoms: O_13  and  C_14
REMARK    6  A    between atoms: C_15  and  O_16
REMARK    7  A    between atoms: O_16  and  C_17
REMARK    8  A    between atoms: C_21  and  O_26
REMARK    9  A    between atoms: C_22  and  O_23
REMARK   10  A    between atoms: O_23  and  C_24
REMARK   11  A    between atoms: O_26  and  C_27
REMARK                            x       y       z     vdW  Elec       q    Type
REMARK                         _______ _______ _______ _____ _____    ______ ____
ROOT
ATOM      1  O   LIG A   1      -3.609   0.752   1.119  0.00  0.00    -0.287 OA
ATOM      2  C   LIG A   1      -2.499   0.554   0.767  0.00  0.00    +0.193 A 
ATOM      3  C   LIG A   1      -1.996  -0.808   0.530  0.00  0.00    +0.098 A 
ATOM      4  C   LIG A   1      -0.736  -0.987   0.128  0.00  0.00    +0.140 A 
ATOM      5  O   LIG A   1       0.185   0.043  -0.109  0.00  0.00    -0.451 OA
ATOM      6  C   LIG A   1      -0.220   1.354   0.078  0.00  0.00    +0.184 A 
ATOM      7  C   LIG A   1      -1.503   1.623   0.530  0.00  0.00    +0.071 A 
ATOM      8  C   LIG A   1      -1.899   2.914   0.791  0.00  0.00    +0.065 A 
ATOM      9  C   LIG A   1      -1.003   3.981   0.661  0.00  0.00    +0.166 A 
ATOM     10  C   LIG A   1       0.309   3.791   0.110  0.00  0.00    +0.207 A 
ATOM     11  C   LIG A   1       0.688   2.430  -0.167  0.00  0.00    +0.209 A 
ENDROOT
BRANCH   4  12
ATOM     12  C   LIG A   1      -0.214  -2.351  -0.088  0.00  0.00    +0.021 A 
ATOM     13  C   LIG A   1       1.130  -2.656   0.111  0.00  0.00    +0.015 A 
ATOM     14  C   LIG A   1       1.605  -3.953  -0.110  0.00  0.00    +0.050 A 
ATOM     15  C   LIG A   1       0.733  -4.977  -0.505  0.00  0.00    +0.162 A 
ATOM     16  C   LIG A   1      -0.632  -4.692  -0.680  0.00  0.00    +0.162 A 
ATOM     17  C   LIG A   1      -1.070  -3.376  -0.510  0.00  0.00    +0.061 A 
BRANCH  16  18
ATOM     18  O   LIG A   1      -1.503  -5.698  -1.032  0.00  0.00    -0.491 OA
ATOM     19  C   LIG A   1      -2.857  -5.508  -0.600  0.00  0.00    +0.277 C 
ENDBRANCH  16  18
BRANCH  15  20
ATOM     20  O   LIG A   1       1.166  -6.250  -0.781  0.00  0.00    -0.491 OA
ATOM     21  C   LIG A   1       2.267  -6.704   0.004  0.00  0.00    +0.277 C 
ENDBRANCH  15  20
ENDBRANCH   4  12
BRANCH   9  22
ATOM     22  O   LIG A   1      -1.635   5.096   1.195  0.00  0.00    -0.491 OA
ATOM     23  C   LIG A   1      -0.873   6.239   1.019  0.00  0.00    +0.277 C 
ENDBRANCH   9  22
BRANCH  10  24
ATOM     24  O   LIG A   1       1.320   4.749   0.021  0.00  0.00    -0.488 OA
ATOM     25  C   LIG A   1       1.298   6.009  -0.696  0.00  0.00    +0.277 C 
ENDBRANCH  10  24
BRANCH  11  26
ATOM     26  O   LIG A   1       1.897   2.036  -0.714  0.00  0.00    -0.488 OA
ATOM     27  C   LIG A   1       3.004   2.902  -0.490  0.00  0.00    +0.277 C 
ENDBRANCH  11  26
TORSDOF 6
