@<TRIPOS>MOLECULE
NuBBE_2344
 42 45 0 0 0
SMALL
GASTEIGER

@<TRIPOS>ATOM
      1 C           4.5824   -3.9148    1.1887 C.3     1  LIG1        0.0790
      2 O           3.3193   -3.7919    0.5469 O.3     1  LIG1       -0.4913
      3 C           2.7798   -2.5407    0.4706 C.ar    1  LIG1        0.1657
      4 C           3.3364   -1.3441    0.8896 C.ar    1  LIG1        0.2075
      5 O           4.5528   -1.1452    1.4696 O.3     1  LIG1       -0.4489
      6 C           4.5549    0.2807    1.6625 C.3     1  LIG1        0.2334
      7 O           3.3483    0.9172    1.2098 O.3     1  LIG1       -0.4525
      8 C           2.6513   -0.1573    0.7442 C.ar    1  LIG1        0.1703
      9 C           1.3942   -0.0855    0.1807 C.ar    1  LIG1       -0.0092
     10 C           0.7998   -1.2686   -0.2849 C.ar    1  LIG1        0.0004
     11 C          -0.5869   -1.2929   -0.9200 C.3     1  LIG1        0.1320
     12 H          -0.6415   -2.1803   -1.5649 H       1  LIG1        0.0790
     13 O          -1.5703   -1.4685    0.1383 O.3     1  LIG1       -0.4832
     14 C          -2.1737   -0.2438    0.2593 C.ar    1  LIG1        0.1287
     15 C          -3.0263    0.1027    1.2839 C.ar    1  LIG1        0.0255
     16 C          -3.5383    1.3960    1.2705 C.ar    1  LIG1        0.1620
     17 O          -4.3861    1.7636    2.2825 O.3     1  LIG1       -0.5032
     18 C          -3.2104    2.3240    0.2587 C.ar    1  LIG1        0.1618
     19 O          -3.8027    3.5554    0.3906 O.3     1  LIG1       -0.4914
     20 C          -3.4850    4.5205   -0.6065 C.3     1  LIG1        0.0790
     21 C          -2.3510    1.9383   -0.7724 C.ar    1  LIG1       -0.0093
     22 C          -1.8519    0.6435   -0.7584 C.ar    1  LIG1        0.0046
     23 C          -0.9768   -0.0395   -1.7511 C.3     1  LIG1        0.0261
     24 H          -0.1094    0.5677   -2.0295 H       1  LIG1        0.0387
     25 C          -1.7640   -0.3942   -3.0119 C.3     1  LIG1       -0.0546
     26 C           1.5040   -2.4864   -0.1159 C.ar    1  LIG1       -0.0094
     27 H           4.8569   -4.9743    1.1839 H       1  LIG1        0.0660
     28 H           4.5294   -3.5955    2.2348 H       1  LIG1        0.0660
     29 H           5.3606   -3.3757    0.6389 H       1  LIG1        0.0660
     30 H           5.4039    0.7062    1.1149 H       1  LIG1        0.1166
     31 H           4.6859    0.4914    2.7299 H       1  LIG1        0.1166
     32 H           0.8963    0.8761    0.1190 H       1  LIG1        0.0659
     33 H          -3.2830   -0.5975    2.0690 H       1  LIG1        0.0692
     34 H          -4.6217    2.6917    2.0899 H       1  LIG1        0.2923
     35 H          -4.0977    5.4078   -0.4215 H       1  LIG1        0.0660
     36 H          -3.7295    4.1576   -1.6104 H       1  LIG1        0.0660
     37 H          -2.4328    4.8163   -0.5379 H       1  LIG1        0.0660
     38 H          -2.0678    2.6046   -1.5777 H       1  LIG1        0.0659
     39 H          -2.6600   -0.9839   -2.7855 H       1  LIG1        0.0237
     40 H          -1.1435   -0.9726   -3.7039 H       1  LIG1        0.0237
     41 H          -2.0921    0.5127   -3.5330 H       1  LIG1        0.0237
     42 H           1.0461   -3.4209   -0.4413 H       1  LIG1        0.0659
@<TRIPOS>BOND
     1     1     2    1
     2     2     3    1
     3     3     4   ar
     4     4     5    1
     5     5     6    1
     6     6     7    1
     7     4     8   ar
     8     7     8    1
     9     8     9   ar
    10     9    10   ar
    11    11    13    1
    12    13    14    1
    13    14    15   ar
    14    15    16   ar
    15    16    17    1
    16    16    18   ar
    17    18    19    1
    18    19    20    1
    19    18    21   ar
    20    21    22   ar
    21    14    22   ar
    22    22    23    1
    23    11    23    1
    24    10    26   ar
    25     3    26   ar
    26    11    12    1
    27    11    10    1
    28    23    25    1
    29    23    24    1
    30     1    27    1
    31     1    28    1
    32     1    29    1
    33     6    30    1
    34     6    31    1
    35     9    32    1
    36    15    33    1
    37    17    34    1
    38    20    35    1
    39    20    36    1
    40    20    37    1
    41    21    38    1
    42    25    39    1
    43    25    40    1
    44    25    41    1
    45    26    42    1
