REMARK  Name = NuBBE_1571
REMARK  7 active torsions:
REMARK  status: ('A' for Active; 'I' for Inactive)
REMARK    1  A    between atoms: C_1  and  C_2
REMARK    2  A    between atoms: C_1  and  C_4
REMARK    3  A    between atoms: C_2  and  O_3
REMARK    4  A    between atoms: C_17  and  O_19
REMARK    5  A    between atoms: O_19  and  C_20
REMARK    6  A    between atoms: C_25  and  C_27
REMARK    7  A    between atoms: C_27  and  C_28
REMARK                            x       y       z     vdW  Elec       q    Type
REMARK                         _______ _______ _______ _____ _____    ______ ____
ROOT
ATOM      1  C   LIG A   1       1.457  -0.276   2.180  0.00  0.00    -0.003 C 
ATOM      2  C   LIG A   1       2.151  -0.667   0.864  0.00  0.00    +0.029 C 
ATOM      3  C   LIG A   1       1.795   0.224  -0.351  0.00  0.00    +0.104 C 
ATOM      4  C   LIG A   1       0.558  -0.242  -1.060  0.00  0.00    +0.038 A 
ATOM      5  C   LIG A   1      -0.460   0.556  -1.549  0.00  0.00    -0.016 A 
ATOM      6  C   LIG A   1      -1.488  -0.302  -2.020  0.00  0.00    +0.007 A 
ATOM      7  C   LIG A   1      -1.003  -1.615  -1.905  0.00  0.00    +0.047 A 
ATOM      8  N   LIG A   1       0.278  -1.526  -1.414  0.00  0.00    -0.356 N 
ATOM      9  H   LIG A   1       0.870  -2.332  -1.209  0.00  0.00    +0.166 HD
ATOM     10  C   LIG A   1      -1.768  -2.732  -2.240  0.00  0.00    +0.030 A 
ATOM     11  C   LIG A   1      -3.070  -2.511  -2.693  0.00  0.00    +0.048 A 
ATOM     12  C   LIG A   1      -3.576  -1.217  -2.850  0.00  0.00    +0.121 A 
ATOM     13  C   LIG A   1      -2.794  -0.107  -2.512  0.00  0.00    +0.056 A 
ATOM     14  C   LIG A   1      -0.372   2.037  -1.458  0.00  0.00    +0.053 C 
ATOM     15  C   LIG A   1       1.097   2.449  -1.149  0.00  0.00    +0.090 C 
ATOM     16  N   LIG A   1       1.750   1.681  -0.054  0.00  0.00    -0.293 NA
ATOM     17  C   LIG A   1       1.173   2.047   1.247  0.00  0.00    +0.088 C 
ATOM     18  C   LIG A   1       1.737   1.232   2.428  0.00  0.00    +0.006 C 
ENDROOT
BRANCH  12  19
ATOM     19  O   LIG A   1      -4.871  -1.154  -3.293  0.00  0.00    -0.495 OA
ATOM     20  C   LIG A   1      -5.209   0.023  -4.020  0.00  0.00    +0.277 C 
ENDBRANCH  12  19
BRANCH  18  21
ATOM     21  C   LIG A   1       3.235   1.574   2.647  0.00  0.00    +0.002 C 
ATOM     22  C   LIG A   1       3.878   0.841   3.816  0.00  0.00    +0.004 C 
ENDBRANCH  18  21
BRANCH   1  23
ATOM     23  C   LIG A   1      -0.066  -0.583   2.244  0.00  0.00    +0.032 C 
BRANCH  23  24
ATOM     24  C   LIG A   1      -0.447  -2.062   2.328  0.00  0.00    +0.156 C 
BRANCH  24  25
ATOM     25  O   LIG A   1      -0.085  -2.795   1.170  0.00  0.00    -0.395 OA
ATOM     26  H   LIG A   1      -0.799  -2.635   0.526  0.00  0.00    +0.209 HD
ENDBRANCH  24  25
ENDBRANCH  23  24
ENDBRANCH   1  23
TORSDOF 5
