REMARK  Name = NuBBE_2096
REMARK  6 active torsions:
REMARK  status: ('A' for Active; 'I' for Inactive)
REMARK    1  A    between atoms: C_1  and  O_3
REMARK    2  A    between atoms: C_1  and  C_11
REMARK    3  A    between atoms: O_3  and  C_4
REMARK    4  A    between atoms: C_4  and  C_5
REMARK    5  A    between atoms: C_12  and  O_13
REMARK    6  A    between atoms: O_13  and  C_14
REMARK                            x       y       z     vdW  Elec       q    Type
REMARK                         _______ _______ _______ _____ _____    ______ ____
ROOT
ATOM      1  C   LIG A   1       0.261   1.234   0.746  0.00  0.00    +0.343 C 
ATOM      2  O   LIG A   1       0.013   1.433   1.926  0.00  0.00    -0.245 OA
ENDROOT
BRANCH   1   3
ATOM      3  C   LIG A   1       1.651   1.172   0.215  0.00  0.00    +0.101 A 
ATOM      4  C   LIG A   1       2.027   0.465  -0.943  0.00  0.00    +0.134 A 
ATOM      5  C   LIG A   1       3.367   0.510  -1.354  0.00  0.00    +0.046 A 
ATOM      6  C   LIG A   1       4.321   1.221  -0.618  0.00  0.00    +0.004 A 
ATOM      7  C   LIG A   1       3.951   1.896   0.540  0.00  0.00    +0.001 A 
ATOM      8  C   LIG A   1       2.622   1.872   0.956  0.00  0.00    +0.019 A 
BRANCH   4   9
ATOM      9  O   LIG A   1       1.064  -0.267  -1.585  0.00  0.00    -0.494 OA
ATOM     10  C   LIG A   1       1.417  -0.940  -2.786  0.00  0.00    +0.277 C 
ENDBRANCH   4   9
ENDBRANCH   1   3
BRANCH   1  11
ATOM     11  O   LIG A   1      -0.648   1.159  -0.254  0.00  0.00    -0.456 OA
BRANCH  11  12
ATOM     12  C   LIG A   1      -2.019   1.231   0.150  0.00  0.00    +0.268 C 
BRANCH  12  13
ATOM     13  C   LIG A   1      -2.525  -0.111   0.614  0.00  0.00    -0.010 A 
ATOM     14  C   LIG A   1      -2.505  -1.219  -0.245  0.00  0.00    +0.007 A 
ATOM     15  C   LIG A   1      -2.979  -2.458   0.187  0.00  0.00    +0.000 A 
ATOM     16  C   LIG A   1      -3.476  -2.603   1.482  0.00  0.00    +0.000 A 
ATOM     17  C   LIG A   1      -3.495  -1.510   2.346  0.00  0.00    +0.000 A 
ATOM     18  C   LIG A   1      -3.021  -0.271   1.915  0.00  0.00    +0.007 A 
ENDBRANCH  12  13
ENDBRANCH  11  12
ENDBRANCH   1  11
TORSDOF 5
