REMARK  Name = NuBBE_1768
REMARK  4 active torsions:
REMARK  status: ('A' for Active; 'I' for Inactive)
REMARK    1  A    between atoms: O_1  and  C_2
REMARK    2  A    between atoms: C_13  and  O_17
REMARK    3  A    between atoms: C_14  and  O_16
REMARK    4  A    between atoms: C_23  and  O_25
REMARK                            x       y       z     vdW  Elec       q    Type
REMARK                         _______ _______ _______ _____ _____    ______ ____
ROOT
ATOM      1  C   LIG A   1      -1.526  -1.791   0.675  0.00  0.00    +0.181 C 
ATOM      2  C   LIG A   1      -1.001  -0.989  -0.517  0.00  0.00    +0.197 C 
ATOM      3  C   LIG A   1       0.437  -0.554  -0.224  0.00  0.00    +0.235 C 
ATOM      4  C   LIG A   1       0.938   0.266  -1.395  0.00  0.00    +0.004 A 
ATOM      5  C   LIG A   1       0.011   0.936  -2.224  0.00  0.00    -0.011 A 
ATOM      6  C   LIG A   1      -1.478   0.836  -1.963  0.00  0.00    +0.196 C 
ATOM      7  O   LIG A   1      -1.833   0.172  -0.743  0.00  0.00    -0.365 OA
ATOM      8  C   LIG A   1       0.470   1.651  -3.343  0.00  0.00    +0.055 A 
ATOM      9  C   LIG A   1       1.833   1.698  -3.616  0.00  0.00    +0.159 A 
ATOM     10  C   LIG A   1       2.742   1.054  -2.781  0.00  0.00    +0.159 A 
ATOM     11  C   LIG A   1       2.311   0.349  -1.668  0.00  0.00    +0.057 A 
ATOM     12  O   LIG A   1       0.539   0.260   0.954  0.00  0.00    -0.481 OA
ATOM     13  C   LIG A   1      -0.087  -0.252   2.059  0.00  0.00    +0.131 A 
ATOM     14  C   LIG A   1      -1.085  -1.230   1.997  0.00  0.00    +0.025 A 
ATOM     15  C   LIG A   1      -1.641  -1.718   3.192  0.00  0.00    +0.013 A 
ATOM     16  C   LIG A   1      -1.230  -1.213   4.425  0.00  0.00    +0.046 A 
ATOM     17  C   LIG A   1      -0.265  -0.212   4.464  0.00  0.00    +0.120 A 
ATOM     18  C   LIG A   1       0.304   0.274   3.292  0.00  0.00    +0.091 A 
ENDROOT
BRANCH   1  19
ATOM     19  O   LIG A   1      -2.953  -1.862   0.617  0.00  0.00    -0.384 OA
ATOM     20  H   LIG A   1      -3.234  -0.945   0.424  0.00  0.00    +0.210 HD
ENDBRANCH   1  19
BRANCH  10  21
ATOM     21  O   LIG A   1       4.077   1.097  -3.065  0.00  0.00    -0.503 OA
ATOM     22  H   LIG A   1       4.137   1.633  -3.881  0.00  0.00    +0.292 HD
ENDBRANCH  10  21
BRANCH   9  23
ATOM     23  O   LIG A   1       2.331   2.358  -4.706  0.00  0.00    -0.503 OA
ATOM     24  H   LIG A   1       1.588   2.764  -5.183  0.00  0.00    +0.292 HD
ENDBRANCH   9  23
BRANCH  17  25
ATOM     25  O   LIG A   1       0.158   0.313   5.649  0.00  0.00    -0.507 OA
ATOM     26  H   LIG A   1      -0.332  -0.112   6.370  0.00  0.00    +0.292 HD
ENDBRANCH  17  25
TORSDOF 4
