@<TRIPOS>MOLECULE
NuBBE_584
 50 52 0 0 0
SMALL
GASTEIGER

@<TRIPOS>ATOM
      1 O          -2.8422    0.6720    4.1866 O.3     1  LIG1       -0.3891
      2 C          -1.4044    0.6496    4.1578 C.3     1  LIG1        0.0862
      3 H          -1.0715    0.9207    5.1664 H       1  LIG1        0.0621
      4 C          -0.9203   -0.7485    3.7812 C.3     1  LIG1        0.0024
      5 C          -1.2529   -1.0540    2.3159 C.3     1  LIG1        0.0654
      6 H          -2.3391   -1.0353    2.1555 H       1  LIG1        0.0600
      7 O          -0.6356   -0.0585    1.4998 O.3     1  LIG1       -0.3663
      8 C          -1.1744    1.2491    1.7070 C.3     1  LIG1        0.1057
      9 H          -2.2519    1.2350    1.4948 H       1  LIG1        0.0667
     10 C          -0.5452    2.1863    0.7022 C.2     1  LIG1       -0.0525
     11 C           0.3378    1.8321   -0.2485 C.2     1  LIG1       -0.0560
     12 C           0.9214    2.7477   -1.2359 C.ar    1  LIG1       -0.0252
     13 C           0.2228    3.8561   -1.7304 C.ar    1  LIG1       -0.0546
     14 C           0.7968    4.6864   -2.6947 C.ar    1  LIG1       -0.0612
     15 C           2.0704    4.4087   -3.1854 C.ar    1  LIG1       -0.0617
     16 C           2.7683    3.2974   -2.7173 C.ar    1  LIG1       -0.0612
     17 C           2.1942    2.4679   -1.7510 C.ar    1  LIG1       -0.0546
     18 C          -0.9226    1.7142    3.1571 C.3     1  LIG1        0.1107
     19 H           0.1502    1.8838    3.3108 H       1  LIG1        0.0648
     20 O          -1.6134    2.9422    3.4350 O.3     1  LIG1       -0.3863
     21 C          -0.6987   -2.4239    1.8828 C.3     1  LIG1       -0.0081
     22 C          -1.0421   -2.7590    0.4477 C.2     1  LIG1       -0.0821
     23 C          -0.1183   -2.9894   -0.5031 C.2     1  LIG1       -0.0475
     24 C          -0.4222   -3.2822   -1.9544 C.3     1  LIG1        0.1250
     25 H          -1.5079   -3.3804   -2.0783 H       1  LIG1        0.0782
     26 O           0.1309   -4.5745   -2.2952 O.3     1  LIG1       -0.4538
     27 C           1.4124   -4.7117   -2.7051 C.2     1  LIG1        0.3322
     28 C           2.1282   -3.4880   -3.1100 C.2     1  LIG1        0.0187
     29 C           1.5026   -2.3110   -3.2313 C.2     1  LIG1       -0.0735
     30 C           0.0519   -2.1760   -2.9068 C.3     1  LIG1        0.0067
     31 O           1.9689   -5.8036   -2.7831 O.2     1  LIG1       -0.2456
     32 H          -3.1224    0.1194    4.9392 H       1  LIG1        0.2099
     33 H          -1.3808   -1.4997    4.4324 H       1  LIG1        0.0316
     34 H           0.1666   -0.7869    3.9281 H       1  LIG1        0.0316
     35 H          -0.8647    3.2219    0.7937 H       1  LIG1        0.0599
     36 H           0.6701    0.7978   -0.3176 H       1  LIG1        0.0621
     37 H          -0.7806    4.0809   -1.3785 H       1  LIG1        0.0623
     38 H           0.2447    5.5466   -3.0632 H       1  LIG1        0.0618
     39 H           2.5162    5.0564   -3.9353 H       1  LIG1        0.0618
     40 H           3.7599    3.0761   -3.1027 H       1  LIG1        0.0618
     41 H           2.7541    1.6053   -1.3964 H       1  LIG1        0.0623
     42 H          -2.5394    2.6772    3.6112 H       1  LIG1        0.2100
     43 H          -1.1064   -3.2092    2.5293 H       1  LIG1        0.0332
     44 H           0.3915   -2.4284    2.0074 H       1  LIG1        0.0332
     45 H          -2.1004   -2.7924    0.1959 H       1  LIG1        0.0571
     46 H           0.9345   -2.9451   -0.2338 H       1  LIG1        0.0605
     47 H           3.1745   -3.6127   -3.3649 H       1  LIG1        0.0686
     48 H           2.0399   -1.4376   -3.5891 H       1  LIG1        0.0575
     49 H          -0.5052   -2.2354   -3.8501 H       1  LIG1        0.0346
     50 H          -0.1462   -1.1877   -2.4754 H       1  LIG1        0.0346
@<TRIPOS>BOND
     1     1     2    1
     2     2     3    1
     3     2     4    1
     4     4     5    1
     5     5     6    1
     6     5     7    1
     7     7     8    1
     8     8     9    1
     9     8    10    1
    10    10    11    2
    11    11    12    1
    12    12    13   ar
    13    13    14   ar
    14    14    15   ar
    15    15    16   ar
    16    16    17   ar
    17    12    17   ar
    18     8    18    1
    19     2    18    1
    20     5    21    1
    21    21    22    1
    22    22    23    2
    23    23    24    1
    24    24    25    1
    25    24    26    1
    26    26    27    1
    27    27    28    1
    28    28    29    2
    29    29    30    1
    30    24    30    1
    31    27    31    2
    32    18    20    1
    33    18    19    1
    34     1    32    1
    35     4    33    1
    36     4    34    1
    37    10    35    1
    38    11    36    1
    39    13    37    1
    40    14    38    1
    41    15    39    1
    42    16    40    1
    43    17    41    1
    44    20    42    1
    45    21    43    1
    46    21    44    1
    47    22    45    1
    48    23    46    1
    49    28    47    1
    50    29    48    1
    51    30    49    1
    52    30    50    1
