REMARK  Name = NuBBE_2421
REMARK  8 active torsions:
REMARK  status: ('A' for Active; 'I' for Inactive)
REMARK    1  A    between atoms: O_1  and  C_2
REMARK    2  A    between atoms: O_1  and  C_3
REMARK    3  A    between atoms: C_11  and  O_12
REMARK    4  A    between atoms: C_13  and  O_16
REMARK    5  A    between atoms: O_16  and  C_17
REMARK    6  A    between atoms: N_18  and  C_19
REMARK    7  A    between atoms: C_24  and  O_25
REMARK    8  A    between atoms: O_25  and  C_26
REMARK                            x       y       z     vdW  Elec       q    Type
REMARK                         _______ _______ _______ _____ _____    ______ ____
ROOT
ATOM      1  C   LIG A   1      -0.754   1.561  -0.289  0.00  0.00    +0.170 A 
ATOM      2  C   LIG A   1      -0.204   0.275  -0.030  0.00  0.00    +0.036 A 
ATOM      3  C   LIG A   1       1.108   0.212   0.515  0.00  0.00    -0.015 A 
ATOM      4  C   LIG A   1       1.646  -1.164   0.927  0.00  0.00    +0.092 C 
ATOM      5  C   LIG A   1       0.501  -1.837   1.729  0.00  0.00    +0.059 C 
ATOM      6  C   LIG A   1      -0.682  -2.026   0.794  0.00  0.00    -0.034 A 
ATOM      7  C   LIG A   1      -0.949  -1.017  -0.175  0.00  0.00    +0.034 A 
ATOM      8  C   LIG A   1      -1.830  -1.368  -1.227  0.00  0.00    +0.167 A 
ATOM      9  C   LIG A   1      -2.531  -2.583  -1.218  0.00  0.00    +0.162 A 
ATOM     10  C   LIG A   1      -2.337  -3.487  -0.168  0.00  0.00    +0.050 A 
ATOM     11  C   LIG A   1      -1.407  -3.216   0.830  0.00  0.00    +0.008 A 
ATOM     12  N   LIG A   1       2.920  -1.123   1.693  0.00  0.00    -0.298 NA
ATOM     13  C   LIG A   1       3.566  -2.442   1.694  0.00  0.00    +0.105 C 
ATOM     14  C   LIG A   1       3.838  -0.145   1.084  0.00  0.00    +0.089 C 
ATOM     15  C   LIG A   1       3.277   1.271   1.226  0.00  0.00    +0.051 C 
ATOM     16  C   LIG A   1       1.876   1.368   0.687  0.00  0.00    -0.037 A 
ATOM     17  C   LIG A   1       1.313   2.620   0.419  0.00  0.00    +0.053 A 
ATOM     18  C   LIG A   1       0.006   2.729  -0.067  0.00  0.00    +0.162 A 
ENDROOT
BRANCH   1  19
ATOM     19  O   LIG A   1      -2.003   1.569  -0.868  0.00  0.00    -0.491 OA
ATOM     20  C   LIG A   1      -2.930   2.558  -0.433  0.00  0.00    +0.277 C 
ENDBRANCH   1  19
BRANCH   8  21
ATOM     21  O   LIG A   1      -1.927  -0.571  -2.344  0.00  0.00    -0.503 OA
ATOM     22  H   LIG A   1      -1.620   0.320  -2.103  0.00  0.00    +0.292 HD
ENDBRANCH   8  21
BRANCH   9  23
ATOM     23  O   LIG A   1      -3.394  -3.061  -2.173  0.00  0.00    -0.491 OA
ATOM     24  C   LIG A   1      -4.061  -2.099  -2.978  0.00  0.00    +0.277 C 
ENDBRANCH   9  23
BRANCH  18  25
ATOM     25  O   LIG A   1      -0.584   3.944  -0.301  0.00  0.00    -0.491 OA
ATOM     26  C   LIG A   1       0.266   5.019  -0.680  0.00  0.00    +0.277 C 
ENDBRANCH  18  25
TORSDOF 4
