@<TRIPOS>MOLECULE
NuBBE_1392
 40 42 0 0 0
SMALL
GASTEIGER

@<TRIPOS>ATOM
      1 C          -2.4007    2.7824    0.5671 C.3     1  LIG1       -0.0334
      2 C          -0.9359    2.4403    0.6880 C.3     1  LIG1        0.0932
      3 C           0.0602    2.9613   -0.3495 C.3     1  LIG1        0.0884
      4 H          -0.3467    3.3878   -1.2592 H       1  LIG1        0.0625
      5 C           1.5089    2.6050   -0.4947 C.3     1  LIG1       -0.0202
      6 C           1.7586    1.3056   -1.2591 C.3     1  LIG1       -0.0293
      7 C           1.8886    0.1067   -0.3546 C.2     1  LIG1       -0.0731
      8 C           0.8019   -0.9000   -0.4151 C.3     1  LIG1       -0.0163
      9 H           0.2555   -0.7734   -1.3608 H       1  LIG1        0.0349
     10 C          -0.1265   -1.1351    0.7913 C.3     1  LIG1       -0.0292
     11 H           0.3892   -1.3033    1.7537 H       1  LIG1        0.0312
     12 C          -0.4883   -2.6762   -0.0021 C.3     1  LIG1       -0.0310
     13 C          -0.2910   -3.8274   -1.0448 C.3     1  LIG1       -0.0595
     14 C          -1.9589   -2.3170   -0.3463 C.3     1  LIG1       -0.0595
     15 C           1.1483   -2.3667   -0.2222 C.3     1  LIG1       -0.0408
     16 C          -1.1620   -0.0260    1.0585 C.3     1  LIG1       -0.0465
     17 C          -0.5781    1.2885    1.5976 C.3     1  LIG1       -0.0213
     18 C           2.9876   -0.0686    0.4225 C.2     1  LIG1       -0.0992
     19 O          -0.1702    3.6360    0.8954 O.3     1  LIG1       -0.3650
     20 H          -3.0405    1.8972    0.6259 H       1  LIG1        0.0258
     21 H          -2.6163    3.2796   -0.3841 H       1  LIG1        0.0258
     22 H          -2.7004    3.4550    1.3784 H       1  LIG1        0.0258
     23 H           2.0109    2.5914    0.4801 H       1  LIG1        0.0294
     24 H           1.9781    3.4212   -1.0581 H       1  LIG1        0.0294
     25 H           2.6936    1.4032   -1.8268 H       1  LIG1        0.0311
     26 H           0.9765    1.1488   -2.0133 H       1  LIG1        0.0311
     27 H           0.5883   -4.4635   -0.8864 H       1  LIG1        0.0235
     28 H          -0.2575   -3.4082   -2.0647 H       1  LIG1        0.0235
     29 H          -1.1237   -4.5408   -1.0309 H       1  LIG1        0.0235
     30 H          -2.5167   -2.0221    0.5484 H       1  LIG1        0.0235
     31 H          -2.5464   -3.1660   -0.7152 H       1  LIG1        0.0235
     32 H          -2.0210   -1.5433   -1.1173 H       1  LIG1        0.0235
     33 H           1.7266   -2.7602   -1.0690 H       1  LIG1        0.0276
     34 H           1.7311   -2.6499    0.6732 H       1  LIG1        0.0276
     35 H          -1.8753   -0.3937    1.8065 H       1  LIG1        0.0269
     36 H          -1.7255    0.1744    0.1424 H       1  LIG1        0.0269
     37 H           0.4986    1.2214    1.7737 H       1  LIG1        0.0294
     38 H          -1.0255    1.4928    2.5793 H       1  LIG1        0.0294
     39 H           3.7816    0.6674    0.4235 H       1  LIG1        0.0534
     40 H           3.1230   -0.9248    1.0682 H       1  LIG1        0.0534
@<TRIPOS>BOND
     1     2     3    1
     2     3     5    1
     3     5     6    1
     4     6     7    1
     5     7     8    1
     6     8    10    1
     7    10    12    1
     8    12    15    1
     9     8    15    1
    10    10    16    1
    11    16    17    1
    12     2    17    1
    13     3    19    1
    14     2    19    1
    15     1     2    1
    16     3     4    1
    17     7    18    2
    18     8     9    1
    19    10    11    1
    20    12    13    1
    21    12    14    1
    22     1    20    1
    23     1    21    1
    24     1    22    1
    25     5    23    1
    26     5    24    1
    27     6    25    1
    28     6    26    1
    29    13    27    1
    30    13    28    1
    31    13    29    1
    32    14    30    1
    33    14    31    1
    34    14    32    1
    35    15    33    1
    36    15    34    1
    37    16    35    1
    38    16    36    1
    39    17    37    1
    40    17    38    1
    41    18    39    1
    42    18    40    1
