REMARK  Name = NuBBE_346
REMARK  8 active torsions:
REMARK  status: ('A' for Active; 'I' for Inactive)
REMARK    1  A    between atoms: C_2  and  C_3
REMARK    2  A    between atoms: C_2  and  C_7
REMARK    3  A    between atoms: C_3  and  O_4
REMARK    4  A    between atoms: O_4  and  C_5
REMARK    5  A    between atoms: C_10  and  C_11
REMARK    6  A    between atoms: C_11  and  C_12
REMARK    7  A    between atoms: C_12  and  O_13
REMARK    8  A    between atoms: O_13  and  C_14
REMARK                            x       y       z     vdW  Elec       q    Type
REMARK                         _______ _______ _______ _____ _____    ______ ____
ROOT
ATOM      1  C   LIG A   1       0.145   1.788   0.561  0.00  0.00    +0.029 A 
ATOM      2  C   LIG A   1       0.544   2.322  -0.672  0.00  0.00    +0.012 A 
ATOM      3  C   LIG A   1       0.988   1.480  -1.699  0.00  0.00    +0.012 A 
ATOM      4  C   LIG A   1       1.040   0.094  -1.502  0.00  0.00    +0.029 A 
ATOM      5  C   LIG A   1       0.655  -0.436  -0.264  0.00  0.00    +0.012 A 
ATOM      6  C   LIG A   1       0.211   0.405   0.764  0.00  0.00    +0.012 A 
ENDROOT
BRANCH   1   8
ATOM      7  O   LIG A   1      -0.368   3.927   1.451  0.00  0.00    -0.280 OA
ATOM      8  C   LIG A   1      -0.349   2.715   1.613  0.00  0.00    +0.269 C 
BRANCH   8   9
ATOM      9  C   LIG A   1      -0.861   2.139   2.922  0.00  0.00    +0.380 C 
ATOM     10  O   LIG A   1      -0.134   1.901   3.867  0.00  0.00    -0.241 OA
BRANCH   9  11
ATOM     11  O   LIG A   1      -2.188   1.913   2.812  0.00  0.00    -0.462 OA
ATOM     12  C   LIG A   1      -2.791   1.420   4.008  0.00  0.00    +0.280 C 
ENDBRANCH   9  11
ENDBRANCH   8   9
ENDBRANCH   1   8
BRANCH   4  13
ATOM     13  C   LIG A   1       1.490  -0.776  -2.621  0.00  0.00    +0.269 C 
ATOM     14  O   LIG A   1       1.800  -0.322  -3.716  0.00  0.00    -0.280 OA
BRANCH  13  15
ATOM     15  C   LIG A   1       1.546  -2.280  -2.394  0.00  0.00    +0.380 C 
ATOM     16  O   LIG A   1       2.324  -2.797  -1.613  0.00  0.00    -0.241 OA
BRANCH  15  17
ATOM     17  O   LIG A   1       0.562  -2.877  -3.099  0.00  0.00    -0.462 OA
ATOM     18  C   LIG A   1       0.492  -4.289  -2.903  0.00  0.00    +0.280 C 
ENDBRANCH  15  17
ENDBRANCH  13  15
ENDBRANCH   4  13
TORSDOF 6
