REMARK  Name = NuBBE_600
REMARK  2 active torsions:
REMARK  status: ('A' for Active; 'I' for Inactive)
REMARK    1  A    between atoms: C_1  and  O_2
REMARK    2  A    between atoms: O_2  and  C_3
REMARK                            x       y       z     vdW  Elec       q    Type
REMARK                         _______ _______ _______ _____ _____    ______ ____
ROOT
ATOM      1  C   LIG A   1       0.394   1.251  -0.241  0.00  0.00    +0.142 A 
ATOM      2  C   LIG A   1       1.133   1.762   0.835  0.00  0.00    +0.082 A 
ATOM      3  C   LIG A   1       1.446   0.876   1.857  0.00  0.00    +0.231 A 
ATOM      4  O   LIG A   1       2.152   1.522   2.829  0.00  0.00    -0.445 OA
ATOM      5  C   LIG A   1       2.303   2.810   2.426  0.00  0.00    +0.198 A 
ATOM      6  C   LIG A   1       1.700   3.010   1.206  0.00  0.00    +0.055 A 
ATOM      7  N   LIG A   1       1.131  -0.426   1.929  0.00  0.00    -0.212 NA
ATOM      8  C   LIG A   1       0.465  -0.905   0.875  0.00  0.00    +0.082 A 
ATOM      9  C   LIG A   1       0.145  -2.256   0.896  0.00  0.00    +0.078 A 
ATOM     10  C   LIG A   1      -0.535  -2.812  -0.167  0.00  0.00    +0.168 A 
ATOM     11  C   LIG A   1      -0.907  -2.065  -1.252  0.00  0.00    +0.167 A 
ATOM     12  O   LIG A   1      -1.563  -2.797  -2.189  0.00  0.00    -0.453 OA
ATOM     13  C   LIG A   1      -1.556  -4.101  -1.569  0.00  0.00    +0.466 C 
ATOM     14  O   LIG A   1      -0.909  -4.114  -0.280  0.00  0.00    -0.453 OA
ATOM     15  C   LIG A   1      -0.620  -0.723  -1.327  0.00  0.00    +0.063 A 
ATOM     16  C   LIG A   1       0.071  -0.121  -0.252  0.00  0.00    +0.046 A 
ENDROOT
BRANCH   1  18
ATOM     17  C   LIG A   1      -1.101   2.820  -1.012  0.00  0.00    +0.277 C 
ATOM     18  O   LIG A   1       0.061   2.048  -1.317  0.00  0.00    -0.494 OA
ENDBRANCH   1  18
TORSDOF 1
