REMARK  Name = NuBBE_1546
REMARK  13 active torsions:
REMARK  status: ('A' for Active; 'I' for Inactive)
REMARK    1  A    between atoms: C_1  and  C_2
REMARK    2  A    between atoms: C_11  and  O_26
REMARK    3  A    between atoms: C_13  and  O_15
REMARK    4  A    between atoms: O_15  and  C_16
REMARK    5  A    between atoms: C_16  and  C_17
REMARK    6  A    between atoms: C_19  and  O_21
REMARK    7  A    between atoms: O_21  and  C_22
REMARK    8  A    between atoms: C_22  and  C_23
REMARK    9  A    between atoms: O_26  and  C_27
REMARK   10  A    between atoms: C_27  and  C_28
REMARK   11  A    between atoms: C_32  and  C_33
REMARK   12  A    between atoms: C_34  and  C_36
REMARK   13  A    between atoms: C_36  and  C_37
REMARK                            x       y       z     vdW  Elec       q    Type
REMARK                         _______ _______ _______ _____ _____    ______ ____
ROOT
ATOM      1  C   LIG A   1      -3.942  -2.824   0.952  0.00  0.00    +0.012 C 
ATOM      2  C   LIG A   1      -2.811  -1.886   0.555  0.00  0.00    -0.019 C 
ATOM      3  C   LIG A   1      -1.544  -1.400   1.815  0.00  0.00    -0.001 C 
ATOM      4  C   LIG A   1       0.369  -2.246   1.139  0.00  0.00    -0.003 C 
ATOM      5  C   LIG A   1       0.285  -3.616   0.228  0.00  0.00    +0.004 C 
ATOM      6  C   LIG A   1      -0.866  -3.424  -0.791  0.00  0.00    +0.008 C 
ATOM      7  C   LIG A   1      -1.604  -2.550   0.128  0.00  0.00    +0.040 C 
ATOM      8  C   LIG A   1      -0.713  -1.052   0.290  0.00  0.00    +0.224 C 
ATOM      9  C   LIG A   1      -0.514  -0.205  -0.709  0.00  0.00    +0.257 C 
ATOM     10  C   LIG A   1      -2.180   0.015  -1.357  0.00  0.00    +0.221 C 
ATOM     11  C   LIG A   1      -3.285  -0.910  -0.627  0.00  0.00    +0.055 C 
ATOM     12  C   LIG A   1       1.466  -1.131  -0.222  0.00  0.00    +0.006 C 
ATOM     13  C   LIG A   1       1.184   0.784  -0.958  0.00  0.00    -0.019 C 
ATOM     14  C   LIG A   1       0.929   0.807  -2.529  0.00  0.00    +0.012 C 
ATOM     15  C   LIG A   1       2.679   1.369  -0.840  0.00  0.00    +0.061 C 
ATOM     16  C   LIG A   1       3.614   0.104  -0.762  0.00  0.00    +0.137 C 
ATOM     17  C   LIG A   1       3.008  -1.257  -0.291  0.00  0.00    +0.079 C 
ATOM     18  O   LIG A   1       4.828   0.189  -0.960  0.00  0.00    -0.297 OA
ATOM     19  C   LIG A   1      -0.430   1.716   0.003  0.00  0.00    +0.008 C 
ATOM     20  C   LIG A   1      -1.483   0.690   1.451  0.00  0.00    +0.005 C 
ENDROOT
BRANCH  15  21
ATOM     21  C   LIG A   1       3.063   2.490  -1.850  0.00  0.00    +0.008 C 
ATOM     22  C   LIG A   1       4.508   2.965  -1.764  0.00  0.00    +0.004 C 
ENDBRANCH  15  21
BRANCH   9  23
ATOM     23  O   LIG A   1       0.617   0.480   0.731  0.00  0.00    -0.454 OA
BRANCH  23  24
ATOM     24  C   LIG A   1       1.714   0.763   1.584  0.00  0.00    +0.304 C 
ATOM     25  C   LIG A   1       1.585   2.098   2.257  0.00  0.00    +0.136 C 
ATOM     26  O   LIG A   1       2.735   0.112   1.770  0.00  0.00    -0.251 OA
ENDBRANCH  23  24
ENDBRANCH   9  23
BRANCH  10  27
ATOM     27  O   LIG A   1      -2.732   1.346  -1.544  0.00  0.00    -0.458 OA
BRANCH  27  28
ATOM     28  C   LIG A   1      -3.158   1.736  -2.785  0.00  0.00    +0.304 C 
ATOM     29  C   LIG A   1      -3.765   3.116  -2.756  0.00  0.00    +0.136 C 
ATOM     30  O   LIG A   1      -3.110   1.050  -3.797  0.00  0.00    -0.251 OA
ENDBRANCH  27  28
ENDBRANCH  10  27
BRANCH   8  31
ATOM     31  O   LIG A   1       0.100  -0.638   2.090  0.00  0.00    -0.457 OA
BRANCH  31  32
ATOM     32  C   LIG A   1       0.038  -0.419   3.512  0.00  0.00    +0.304 C 
ATOM     33  C   LIG A   1       1.359  -0.170   4.289  0.00  0.00    +0.136 C 
ATOM     34  O   LIG A   1      -1.008  -0.327   4.159  0.00  0.00    -0.251 OA
ENDBRANCH  31  32
ENDBRANCH   8  31
TORSDOF 7
