REMARK  Name = NuBBE_1266
REMARK  4 active torsions:
REMARK  status: ('A' for Active; 'I' for Inactive)
REMARK    1  A    between atoms: C_9  and  C_10
REMARK    2  A    between atoms: C_10  and  O_11
REMARK    3  A    between atoms: C_13  and  O_14
REMARK    4  A    between atoms: O_14  and  C_15
REMARK                            x       y       z     vdW  Elec       q    Type
REMARK                         _______ _______ _______ _____ _____    ______ ____
ROOT
ATOM      1  O   LIG A   1      -4.684   1.287  -0.187  0.00  0.00    -0.245 OA
ATOM      2  C   LIG A   1      -3.461   1.286  -0.127  0.00  0.00    +0.337 A 
ATOM      3  C   LIG A   1      -2.708   2.551  -0.065  0.00  0.00    +0.092 A 
ATOM      4  C   LIG A   1      -1.373   2.590  -0.005  0.00  0.00    +0.018 A 
ATOM      5  O   LIG A   1      -2.718   0.113  -0.111  0.00  0.00    -0.422 OA
ATOM      6  C   LIG A   1      -1.310   0.140  -0.057  0.00  0.00    +0.143 A 
ATOM      7  C   LIG A   1      -0.621   1.346  -0.005  0.00  0.00    +0.019 A 
ATOM      8  C   LIG A   1       0.772   1.320   0.041  0.00  0.00    +0.030 A 
ATOM      9  C   LIG A   1       1.461   0.090   0.031  0.00  0.00    +0.101 A 
ATOM     10  C   LIG A   1       0.749  -1.126  -0.024  0.00  0.00    +0.138 A 
ATOM     11  C   LIG A   1      -0.649  -1.089  -0.063  0.00  0.00    +0.093 A 
ENDROOT
BRANCH   9  12
ATOM     12  C   LIG A   1       2.948   0.102   0.054  0.00  0.00    +0.340 C 
ATOM     13  O   LIG A   1       3.715  -0.708  -0.429  0.00  0.00    -0.245 OA
BRANCH  12  14
ATOM     14  O   LIG A   1       3.418   1.179   0.717  0.00  0.00    -0.477 OA
ATOM     15  H   LIG A   1       4.390   1.053   0.685  0.00  0.00    +0.295 HD
ENDBRANCH  12  14
ENDBRANCH   9  12
BRANCH  10  16
ATOM     16  O   LIG A   1       1.480  -2.283  -0.011  0.00  0.00    -0.494 OA
ATOM     17  C   LIG A   1       0.782  -3.519  -0.084  0.00  0.00    +0.277 C 
ENDBRANCH  10  16
TORSDOF 3
