REMARK  Name = NuBBE_1828
REMARK  4 active torsions:
REMARK  status: ('A' for Active; 'I' for Inactive)
REMARK    1  A    between atoms: C_2  and  O_3
REMARK    2  A    between atoms: C_2  and  C_11
REMARK    3  A    between atoms: O_3  and  C_4
REMARK    4  A    between atoms: C_4  and  C_5
REMARK                            x       y       z     vdW  Elec       q    Type
REMARK                         _______ _______ _______ _____ _____    ______ ____
ROOT
ATOM      1  O   LIG A   1      -0.876   1.798   1.868  0.00  0.00    -0.245 OA
ATOM      2  C   LIG A   1      -0.825   1.388   0.718  0.00  0.00    +0.340 C 
ENDROOT
BRANCH   2   3
ATOM      3  C   LIG A   1      -2.024   1.051  -0.095  0.00  0.00    +0.059 A 
ATOM      4  C   LIG A   1      -1.923   0.632  -1.430  0.00  0.00    +0.015 A 
ATOM      5  C   LIG A   1      -3.068   0.281  -2.145  0.00  0.00    +0.001 A 
ATOM      6  C   LIG A   1      -4.319   0.349  -1.535  0.00  0.00    +0.000 A 
ATOM      7  C   LIG A   1      -4.430   0.774  -0.211  0.00  0.00    +0.001 A 
ATOM      8  C   LIG A   1      -3.286   1.127   0.509  0.00  0.00    +0.015 A 
ENDBRANCH   2   3
BRANCH   2   9
ATOM      9  O   LIG A   1       0.294   1.137   0.002  0.00  0.00    -0.456 OA
BRANCH   9  10
ATOM     10  C   LIG A   1       1.541   1.278   0.688  0.00  0.00    +0.268 C 
BRANCH  10  11
ATOM     11  C   LIG A   1       2.272  -0.036   0.584  0.00  0.00    -0.010 A 
ATOM     12  C   LIG A   1       3.115  -0.308  -0.503  0.00  0.00    +0.007 A 
ATOM     13  C   LIG A   1       3.768  -1.538  -0.599  0.00  0.00    +0.000 A 
ATOM     14  C   LIG A   1       3.578  -2.510   0.382  0.00  0.00    +0.000 A 
ATOM     15  C   LIG A   1       2.732  -2.255   1.459  0.00  0.00    +0.000 A 
ATOM     16  C   LIG A   1       2.078  -1.026   1.558  0.00  0.00    +0.007 A 
ENDBRANCH  10  11
ENDBRANCH   9  10
ENDBRANCH   2   9
TORSDOF 4
