REMARK  Name = NuBBE_2495
REMARK  6 active torsions:
REMARK  status: ('A' for Active; 'I' for Inactive)
REMARK    1  A    between atoms: C_1  and  C_2
REMARK    2  A    between atoms: C_2  and  C_3
REMARK    3  A    between atoms: C_4  and  C_5
REMARK    4  A    between atoms: C_14  and  C_15
REMARK    5  A    between atoms: C_14  and  C_16
REMARK    6  A    between atoms: C_21  and  C_22
REMARK                            x       y       z     vdW  Elec       q    Type
REMARK                         _______ _______ _______ _____ _____    ______ ____
ROOT
ATOM      1  C   LIG A   1      -0.980   0.082  -2.446  0.00  0.00    -0.034 A 
ATOM      2  C   LIG A   1      -2.143   0.887  -2.530  0.00  0.00    -0.047 A 
ATOM      3  C   LIG A   1      -3.015   0.932  -3.760  0.00  0.00    +0.044 C 
ATOM      4  C   LIG A   1      -2.533   1.653  -1.426  0.00  0.00    +0.004 A 
ATOM      5  C   LIG A   1      -1.802   1.637  -0.241  0.00  0.00    +0.005 A 
ATOM      6  C   LIG A   1      -0.650   0.848  -0.109  0.00  0.00    -0.027 A 
ATOM      7  C   LIG A   1      -0.231   0.083  -1.234  0.00  0.00    +0.025 A 
ATOM      8  C   LIG A   1       1.036  -0.711  -1.096  0.00  0.00    +0.164 C 
ATOM      9  O   LIG A   1       1.748  -0.966  -2.063  0.00  0.00    -0.292 OA
ATOM     10  C   LIG A   1       1.470  -1.168   0.281  0.00  0.00    +0.085 C 
ATOM     11  C   LIG A   1       0.539  -0.700   1.401  0.00  0.00    +0.024 C 
ATOM     12  C   LIG A   1       1.002  -1.121   2.834  0.00  0.00    +0.032 C 
ATOM     13  C   LIG A   1       1.094  -2.661   2.926  0.00  0.00    +0.019 C 
ATOM     14  C   LIG A   1       2.352  -0.543   3.286  0.00  0.00    +0.019 C 
ATOM     15  C   LIG A   1      -0.053  -0.647   3.839  0.00  0.00    +0.162 C 
ATOM     16  O   LIG A   1      -0.303  -1.237   4.888  0.00  0.00    -0.292 OA
ATOM     17  C   LIG A   1      -0.725   0.648   3.589  0.00  0.00    +0.043 C 
ATOM     18  C   LIG A   1      -0.591   1.300   2.427  0.00  0.00    -0.012 C 
ATOM     19  C   LIG A   1       0.172   0.809   1.204  0.00  0.00    +0.016 C 
ATOM     20  C   LIG A   1       1.366   1.772   1.012  0.00  0.00    +0.021 C 
ENDROOT
BRANCH   1  22
ATOM     21  C   LIG A   1       0.321  -0.013  -4.620  0.00  0.00    +0.009 C 
ATOM     22  C   LIG A   1      -0.576  -0.763  -3.643  0.00  0.00    +0.033 C 
ENDBRANCH   1  22
TORSDOF 1
