@<TRIPOS>MOLECULE
NuBBE_1246
 62 63 0 0 0
SMALL
GASTEIGER

@<TRIPOS>ATOM
      1 O          -3.7604    6.6402   -0.4046 O.2     1  LIG1       -0.2833
      2 C          -2.6653    6.1971   -0.0937 C.ar    1  LIG1        0.2310
      3 C          -2.2768    4.7432   -0.2699 C.ar    1  LIG1        0.1864
      4 O          -3.1227    3.8222   -0.8789 O.3     1  LIG1       -0.4897
      5 C          -3.9776    4.3372   -1.8973 C.3     1  LIG1        0.0790
      6 C          -1.0730    4.3591    0.2154 C.ar    1  LIG1        0.0624
      7 C          -0.6049    2.9156    0.1519 C.3     1  LIG1       -0.0088
      8 C           0.2366    2.6241   -1.0958 C.3     1  LIG1       -0.0476
      9 C           0.7637    1.1842   -1.1346 C.3     1  LIG1       -0.0527
     10 C          -0.3524    0.1347   -1.1209 C.3     1  LIG1       -0.0530
     11 C           0.2147   -1.2830   -1.1570 C.3     1  LIG1       -0.0531
     12 C          -0.8965   -2.3355   -1.1198 C.3     1  LIG1       -0.0531
     13 C          -0.3672   -3.7721   -1.1799 C.3     1  LIG1       -0.0531
     14 C           0.5563   -4.1374   -0.0118 C.3     1  LIG1       -0.0530
     15 C           1.0250   -5.5912   -0.1137 C.3     1  LIG1       -0.0505
     16 C           1.9728   -5.9713    1.0342 C.3     1  LIG1       -0.0245
     17 C           2.4805   -7.4296    0.9769 C.3     1  LIG1        0.0605
     18 C           1.3342   -8.4426    1.0566 C.3     1  LIG1       -0.0363
     19 O           3.2044   -7.6334   -0.2390 O.3     1  LIG1       -0.3891
     20 C           3.4734   -7.6885    2.1142 C.3     1  LIG1       -0.0363
     21 N          -0.1898    5.2267    0.8303 N.ar    1  LIG1       -0.3549
     22 H           0.7345    4.8838    1.0603 H       1  LIG1        0.1657
     23 C          -0.4393    6.5962    0.9268 C.ar    1  LIG1        0.0505
     24 C           0.4954    7.4589    1.5037 C.ar    1  LIG1       -0.0377
     25 C           0.2153    8.8225    1.6298 C.ar    1  LIG1       -0.0598
     26 C          -1.0028    9.3349    1.1858 C.ar    1  LIG1       -0.0610
     27 C          -1.9459    8.4819    0.6141 C.ar    1  LIG1       -0.0488
     28 C          -1.6623    7.1174    0.4929 C.ar    1  LIG1        0.0487
     29 H          -4.8050    4.9132   -1.4742 H       1  LIG1        0.0660
     30 H          -4.4310    3.4888   -2.4196 H       1  LIG1        0.0660
     31 H          -3.4169    4.9234   -2.6337 H       1  LIG1        0.0660
     32 H          -1.4719    2.2493    0.1954 H       1  LIG1        0.0329
     33 H          -0.0132    2.6823    1.0484 H       1  LIG1        0.0329
     34 H           1.0954    3.3078   -1.1344 H       1  LIG1        0.0269
     35 H          -0.3576    2.8166   -1.9971 H       1  LIG1        0.0269
     36 H           1.4375    1.0206   -0.2842 H       1  LIG1        0.0265
     37 H           1.3684    1.0570   -2.0417 H       1  LIG1        0.0265
     38 H          -1.0204    0.2966   -1.9748 H       1  LIG1        0.0265
     39 H          -0.9532    0.2349   -0.2112 H       1  LIG1        0.0265
     40 H           0.8762   -1.4078   -0.2932 H       1  LIG1        0.0265
     41 H           0.8215   -1.4184   -2.0594 H       1  LIG1        0.0265
     42 H          -1.5693   -2.1790   -1.9728 H       1  LIG1        0.0265
     43 H          -1.5031   -2.2082   -0.2148 H       1  LIG1        0.0265
     44 H           0.1608   -3.9231   -2.1292 H       1  LIG1        0.0265
     45 H          -1.2265   -4.4548   -1.1867 H       1  LIG1        0.0265
     46 H           0.0269   -3.9822    0.9360 H       1  LIG1        0.0265
     47 H           1.4364   -3.4862   -0.0062 H       1  LIG1        0.0265
     48 H           1.5334   -5.7375   -1.0736 H       1  LIG1        0.0266
     49 H           0.1439   -6.2406   -0.1058 H       1  LIG1        0.0266
     50 H           1.4676   -5.7963    1.9929 H       1  LIG1        0.0293
     51 H           2.8353   -5.2921    0.9996 H       1  LIG1        0.0293
     52 H           0.6740   -8.3735    0.1857 H       1  LIG1        0.0257
     53 H           0.7344   -8.2978    1.9608 H       1  LIG1        0.0257
     54 H           1.7203   -9.4679    1.0549 H       1  LIG1        0.0257
     55 H           2.5734   -7.8686   -0.9396 H       1  LIG1        0.2101
     56 H           3.0155   -7.5423    3.0975 H       1  LIG1        0.0257
     57 H           4.3454   -7.0294    2.0319 H       1  LIG1        0.0257
     58 H           3.8610   -8.7133    2.0626 H       1  LIG1        0.0257
     59 H           1.4466    7.0773    1.8639 H       1  LIG1        0.0638
     60 H           0.9480    9.4856    2.0834 H       1  LIG1        0.0618
     61 H          -1.2237   10.3937    1.2905 H       1  LIG1        0.0618
     62 H          -2.8997    8.8770    0.2726 H       1  LIG1        0.0625
@<TRIPOS>BOND
     1     1     2    2
     2     2     3   ar
     3     3     4    1
     4     4     5    1
     5     3     6   ar
     6     6     7    1
     7     7     8    1
     8     8     9    1
     9     9    10    1
    10    10    11    1
    11    11    12    1
    12    12    13    1
    13    13    14    1
    14    14    15    1
    15    15    16    1
    16    16    17    1
    17    17    18    1
    18    17    19    1
    19    17    20    1
    20     6    21   ar
    21    21    22    1
    22    21    23   ar
    23    23    24   ar
    24    24    25   ar
    25    25    26   ar
    26    26    27   ar
    27    27    28   ar
    28    23    28   ar
    29     2    28   ar
    30     5    29    1
    31     5    30    1
    32     5    31    1
    33     7    32    1
    34     7    33    1
    35     8    34    1
    36     8    35    1
    37     9    36    1
    38     9    37    1
    39    10    38    1
    40    10    39    1
    41    11    40    1
    42    11    41    1
    43    12    42    1
    44    12    43    1
    45    13    44    1
    46    13    45    1
    47    14    46    1
    48    14    47    1
    49    15    48    1
    50    15    49    1
    51    16    50    1
    52    16    51    1
    53    18    52    1
    54    18    53    1
    55    18    54    1
    56    19    55    1
    57    20    56    1
    58    20    57    1
    59    20    58    1
    60    24    59    1
    61    25    60    1
    62    26    61    1
    63    27    62    1
