REMARK  Name = NuBBE_1877
REMARK  13 active torsions:
REMARK  status: ('A' for Active; 'I' for Inactive)
REMARK    1  A    between atoms: C_4  and  O_39
REMARK    2  A    between atoms: C_5  and  O_6
REMARK    3  A    between atoms: C_7  and  O_37
REMARK    4  A    between atoms: C_11  and  C_12
REMARK    5  A    between atoms: C_13  and  O_14
REMARK    6  A    between atoms: O_14  and  C_15
REMARK    7  A    between atoms: C_21  and  O_22
REMARK    8  A    between atoms: O_22  and  C_23
REMARK    9  A    between atoms: C_29  and  O_32
REMARK   10  A    between atoms: O_32  and  C_33
REMARK   11  A    between atoms: C_34  and  O_35
REMARK   12  A    between atoms: O_35  and  C_36
REMARK   13  A    between atoms: O_37  and  C_38
REMARK                            x       y       z     vdW  Elec       q    Type
REMARK                         _______ _______ _______ _____ _____    ______ ____
ROOT
ATOM      1  C   LIG A   1       0.141   0.343  -0.983  0.00  0.00    +0.067 A 
ATOM      2  C   LIG A   1       1.371   0.949  -0.493  0.00  0.00    +0.185 A 
ATOM      3  C   LIG A   1       2.267   1.577  -1.406  0.00  0.00    +0.212 A 
ATOM      4  C   LIG A   1       1.619   2.247  -2.454  0.00  0.00    +0.166 A 
ATOM      5  C   LIG A   1       0.359   1.830  -2.898  0.00  0.00    +0.050 A 
ATOM      6  C   LIG A   1      -0.342   0.860  -2.197  0.00  0.00    +0.019 A 
ENDROOT
BRANCH   1  16
ATOM      7  O   LIG A   1      -1.543  -3.655   1.526  0.00  0.00    -0.283 OA
ATOM      8  C   LIG A   1      -1.663  -2.781   0.742  0.00  0.00    +0.238 A 
ATOM      9  C   LIG A   1      -2.981  -2.510   0.167  0.00  0.00    +0.113 A 
ATOM     10  C   LIG A   1      -4.018  -3.421   0.333  0.00  0.00    +0.177 A 
ATOM     11  C   LIG A   1      -5.213  -3.234  -0.368  0.00  0.00    +0.202 A 
ATOM     12  C   LIG A   1      -5.375  -2.120  -1.203  0.00  0.00    +0.169 A 
ATOM     13  C   LIG A   1      -4.332  -1.185  -1.286  0.00  0.00    +0.096 A 
ATOM     14  C   LIG A   1      -3.132  -1.390  -0.605  0.00  0.00    +0.147 A 
ATOM     15  O   LIG A   1      -2.133  -0.469  -0.767  0.00  0.00    -0.451 OA
ATOM     16  C   LIG A   1      -0.772  -0.814  -0.470  0.00  0.00    +0.184 A 
ATOM     17  C   LIG A   1      -0.504  -1.928   0.277  0.00  0.00    +0.211 A 
BRANCH  11  18
ATOM     18  O   LIG A   1      -6.200  -4.168  -0.193  0.00  0.00    -0.501 OA
ATOM     19  H   LIG A   1      -5.849  -4.779   0.491  0.00  0.00    +0.292 HD
ENDBRANCH  11  18
BRANCH  17  20
ATOM     20  O   LIG A   1       0.629  -2.424   0.899  0.00  0.00    -0.488 OA
ATOM     21  C   LIG A   1       1.616  -1.556   1.372  0.00  0.00    +0.277 C 
ENDBRANCH  17  20
BRANCH  12  22
ATOM     22  O   LIG A   1      -6.530  -1.995  -1.936  0.00  0.00    -0.491 OA
ATOM     23  C   LIG A   1      -6.855  -0.656  -2.316  0.00  0.00    +0.277 C 
ENDBRANCH  12  22
BRANCH  10  24
ATOM     24  O   LIG A   1      -3.928  -4.535   1.133  0.00  0.00    -0.503 OA
ATOM     25  H   LIG A   1      -3.019  -4.537   1.535  0.00  0.00    +0.292 HD
ENDBRANCH  10  24
ENDBRANCH   1  16
BRANCH   4  26
ATOM     26  O   LIG A   1       2.072   3.413  -3.028  0.00  0.00    -0.491 OA
ATOM     27  C   LIG A   1       2.823   4.236  -2.124  0.00  0.00    +0.277 C 
ENDBRANCH   4  26
BRANCH   2  28
ATOM     28  O   LIG A   1       1.739   1.127   0.870  0.00  0.00    -0.452 OA
BRANCH  28  29
ATOM     29  C   LIG A   1       0.802   1.304   1.848  0.00  0.00    +0.129 A 
ATOM     30  C   LIG A   1      -0.455   0.776   1.785  0.00  0.00    +0.046 A 
ATOM     31  C   LIG A   1      -1.574   1.351   2.272  0.00  0.00    +0.004 A 
ATOM     32  C   LIG A   1      -1.325   2.318   3.194  0.00  0.00    +0.000 A 
ATOM     33  C   LIG A   1      -0.017   2.437   3.711  0.00  0.00    +0.004 A 
ATOM     34  C   LIG A   1       1.076   1.855   3.062  0.00  0.00    +0.046 A 
ENDBRANCH  28  29
ENDBRANCH   2  28
BRANCH   3  35
ATOM     35  O   LIG A   1       3.693   1.589  -1.496  0.00  0.00    -0.449 OA
BRANCH  35  36
ATOM     36  C   LIG A   1       4.617   0.829  -0.782  0.00  0.00    +0.129 A 
ATOM     37  C   LIG A   1       4.237  -0.003   0.230  0.00  0.00    +0.046 A 
ATOM     38  C   LIG A   1       5.041  -0.581   1.204  0.00  0.00    +0.004 A 
ATOM     39  C   LIG A   1       6.396  -0.464   1.085  0.00  0.00    +0.000 A 
ATOM     40  C   LIG A   1       6.887   0.225  -0.024  0.00  0.00    +0.004 A 
ATOM     41  C   LIG A   1       6.009   0.878  -0.953  0.00  0.00    +0.046 A 
ENDBRANCH  35  36
ENDBRANCH   3  35
TORSDOF 10
