REMARK  Name = NuBBE_2294
REMARK  5 active torsions:
REMARK  status: ('A' for Active; 'I' for Inactive)
REMARK    1  A    between atoms: C_1  and  C_2
REMARK    2  A    between atoms: C_6  and  C_7
REMARK    3  A    between atoms: C_10  and  C_11
REMARK    4  A    between atoms: C_11  and  C_12
REMARK    5  A    between atoms: C_11  and  C_13
REMARK                            x       y       z     vdW  Elec       q    Type
REMARK                         _______ _______ _______ _____ _____    ______ ____
ROOT
ATOM      1  C   LIG A   1      -3.430   0.798  -0.077  0.00  0.00    +0.044 C 
ATOM      2  C   LIG A   1      -2.158   1.548   0.063  0.00  0.00    -0.043 A 
ATOM      3  C   LIG A   1      -1.979   2.887   0.043  0.00  0.00    +0.004 A 
ATOM      4  C   LIG A   1      -0.570   3.201   0.213  0.00  0.00    +0.009 A 
ATOM      5  C   LIG A   1       0.130   2.062   0.359  0.00  0.00    -0.015 A 
ATOM      6  C   LIG A   1       1.559   1.909   0.547  0.00  0.00    -0.043 A 
ATOM      7  C   LIG A   1       2.386   2.210  -0.673  0.00  0.00    +0.044 C 
ATOM      8  C   LIG A   1       1.891   0.950   1.440  0.00  0.00    +0.004 A 
ATOM      9  C   LIG A   1       1.887  -0.421   0.921  0.00  0.00    +0.004 A 
ATOM     10  C   LIG A   1       0.792  -1.010   0.380  0.00  0.00    -0.044 A 
ATOM     11  C   LIG A   1      -0.536  -0.364   0.268  0.00  0.00    +0.012 A 
ATOM     12  C   LIG A   1      -0.833   0.952   0.239  0.00  0.00    -0.015 A 
ENDROOT
BRANCH  10  13
ATOM     13  C   LIG A   1       0.903  -2.446  -0.134  0.00  0.00    +0.013 C 
ATOM     14  C   LIG A   1       0.136  -3.438   0.746  0.00  0.00    +0.012 C 
ATOM     15  C   LIG A   1       0.487  -2.579  -1.603  0.00  0.00    +0.012 C 
ENDBRANCH  10  13
TORSDOF 1
