REMARK  Name = NuBBE_1580
REMARK  11 active torsions:
REMARK  status: ('A' for Active; 'I' for Inactive)
REMARK    1  A    between atoms: C_1  and  O_2
REMARK    2  A    between atoms: O_2  and  C_3
REMARK    3  A    between atoms: C_5  and  O_6
REMARK    4  A    between atoms: O_6  and  C_7
REMARK    5  A    between atoms: C_8  and  O_9
REMARK    6  A    between atoms: O_9  and  C_10
REMARK    7  A    between atoms: C_13  and  C_14
REMARK    8  A    between atoms: C_16  and  O_17
REMARK    9  A    between atoms: O_17  and  C_18
REMARK   10  A    between atoms: C_19  and  O_20
REMARK   11  A    between atoms: O_20  and  C_21
REMARK                            x       y       z     vdW  Elec       q    Type
REMARK                         _______ _______ _______ _____ _____    ______ ____
ROOT
ATOM      1  C   LIG A   1       0.015  -2.703  -3.114  0.00  0.00    +0.138 A 
ATOM      2  C   LIG A   1      -0.507  -3.846  -2.505  0.00  0.00    +0.096 A 
ATOM      3  C   LIG A   1      -0.582  -3.970  -1.107  0.00  0.00    +0.169 A 
ATOM      4  C   LIG A   1      -0.184  -2.901  -0.283  0.00  0.00    +0.205 A 
ATOM      5  C   LIG A   1       0.273  -1.725  -0.899  0.00  0.00    +0.188 A 
ATOM      6  O   LIG A   1       0.550  -0.642  -0.105  0.00  0.00    -0.451 OA
ATOM      7  C   LIG A   1       0.646   0.610  -0.673  0.00  0.00    +0.140 A 
ATOM      8  C   LIG A   1       0.921   0.790  -1.971  0.00  0.00    +0.098 A 
ATOM      9  C   LIG A   1       0.425  -1.645  -2.293  0.00  0.00    +0.109 A 
ATOM     10  C   LIG A   1       1.060  -0.415  -2.809  0.00  0.00    +0.197 A 
ATOM     11  O   LIG A   1       1.715  -0.367  -3.850  0.00  0.00    -0.287 OA
ENDROOT
BRANCH   7  12
ATOM     12  C   LIG A   1       0.489   1.714   0.296  0.00  0.00    +0.021 A 
ATOM     13  C   LIG A   1      -0.070   2.948  -0.060  0.00  0.00    +0.061 A 
ATOM     14  C   LIG A   1      -0.255   3.973   0.884  0.00  0.00    +0.162 A 
ATOM     15  C   LIG A   1       0.145   3.776   2.215  0.00  0.00    +0.162 A 
ATOM     16  C   LIG A   1       0.666   2.534   2.585  0.00  0.00    +0.050 A 
ATOM     17  C   LIG A   1       0.841   1.523   1.639  0.00  0.00    +0.015 A 
BRANCH  14  18
ATOM     18  O   LIG A   1      -0.774   5.120   0.337  0.00  0.00    -0.491 OA
ATOM     19  C   LIG A   1      -1.579   5.925   1.188  0.00  0.00    +0.277 C 
ENDBRANCH  14  18
BRANCH  15  20
ATOM     20  O   LIG A   1      -0.006   4.793   3.118  0.00  0.00    -0.491 OA
ATOM     21  C   LIG A   1       0.948   4.835   4.175  0.00  0.00    +0.277 C 
ENDBRANCH  15  20
ENDBRANCH   7  12
BRANCH   1  23
ATOM     22  C   LIG A   1       0.155  -3.720  -5.255  0.00  0.00    +0.277 C 
ATOM     23  O   LIG A   1       0.043  -2.533  -4.473  0.00  0.00    -0.494 OA
ENDBRANCH   1  23
BRANCH   3  24
ATOM     24  O   LIG A   1      -1.087  -5.191  -0.726  0.00  0.00    -0.491 OA
ATOM     25  C   LIG A   1      -1.198  -5.468   0.663  0.00  0.00    +0.277 C 
ENDBRANCH   3  24
BRANCH   4  26
ATOM     26  O   LIG A   1      -0.292  -3.100   1.064  0.00  0.00    -0.488 OA
ATOM     27  C   LIG A   1       0.090  -2.113   2.003  0.00  0.00    +0.277 C 
ENDBRANCH   4  26
TORSDOF 6
