@<TRIPOS>MOLECULE
NuBBE_943
 38 40 0 0 0
SMALL
GASTEIGER

@<TRIPOS>ATOM
      1 O           1.6517    1.3987   -2.6772 O.2     1  LIG1       -0.2669
      2 C           1.0187    0.7836   -1.8155 C.ar    1  LIG1        0.2623
      3 C           1.4246    0.9171   -0.3838 C.ar    1  LIG1        0.0816
      4 C           0.7689    0.2503    0.5770 C.ar    1  LIG1        0.1432
      5 C          -0.3713   -0.6182    0.2447 C.ar    1  LIG1        0.0448
      6 C          -0.8121   -0.7248   -1.0926 C.ar    1  LIG1        0.1009
      7 N          -0.0647   -0.0401   -2.1122 N.ar    1  LIG1       -0.3073
      8 C          -0.3667   -0.2442   -3.5204 C.3     1  LIG1        0.0154
      9 C          -1.9576   -1.5144   -1.3421 C.ar    1  LIG1        0.1855
     10 O          -2.5495   -1.6061   -2.5818 O.3     1  LIG1       -0.4895
     11 C          -3.6327   -0.6692   -2.6692 C.3     1  LIG1        0.0791
     12 C          -2.5484   -2.2670   -0.3163 C.ar    1  LIG1        0.1606
     13 C          -2.0960   -2.1806    0.9854 C.ar    1  LIG1       -0.0157
     14 C          -1.0217   -1.3432    1.2665 C.ar    1  LIG1       -0.0454
     15 O          -3.5875   -3.1172   -0.5778 O.3     1  LIG1       -0.5032
     16 O           1.0864    0.3211    1.9197 O.3     1  LIG1       -0.4808
     17 C           2.1432    1.1993    2.3643 C.3     1  LIG1        0.1235
     18 C           2.8953    1.8932    1.2537 C.2     1  LIG1       -0.0407
     19 C           2.5490    1.7541   -0.0303 C.2     1  LIG1       -0.0461
     20 C           1.4917    2.2468    3.2731 C.3     1  LIG1       -0.0215
     21 C           3.1106    0.3332    3.1776 C.3     1  LIG1       -0.0215
     22 H          -1.2954    0.2733   -3.7724 H       1  LIG1        0.0457
     23 H          -0.4267   -1.3136   -3.7426 H       1  LIG1        0.0457
     24 H           0.4139    0.1637   -4.1699 H       1  LIG1        0.0457
     25 H          -3.9388   -0.6142   -3.7181 H       1  LIG1        0.0660
     26 H          -3.3323    0.3350   -2.3490 H       1  LIG1        0.0660
     27 H          -4.4923   -1.0110   -2.0836 H       1  LIG1        0.0660
     28 H          -2.5710   -2.7560    1.7741 H       1  LIG1        0.0655
     29 H          -0.6800   -1.2739    2.2976 H       1  LIG1        0.0626
     30 H          -3.6326   -3.1919   -1.5496 H       1  LIG1        0.2923
     31 H           3.7374    2.5265    1.5183 H       1  LIG1        0.0611
     32 H           3.0961    2.2594   -0.8211 H       1  LIG1        0.0624
     33 H           0.7618    2.8474    2.7168 H       1  LIG1        0.0271
     34 H           2.2310    2.9253    3.7127 H       1  LIG1        0.0271
     35 H           0.9370    1.7662    4.0875 H       1  LIG1        0.0271
     36 H           3.5521   -0.4522    2.5524 H       1  LIG1        0.0271
     37 H           2.5844   -0.1806    3.9908 H       1  LIG1        0.0271
     38 H           3.9236    0.9242    3.6133 H       1  LIG1        0.0271
@<TRIPOS>BOND
     1     1     2    2
     2     2     3   ar
     3     3     4   ar
     4     4     5   ar
     5     5     6   ar
     6     6     7   ar
     7     2     7   ar
     8     7     8    1
     9     6     9   ar
    10     9    10    1
    11    10    11    1
    12     9    12   ar
    13    12    13   ar
    14    13    14   ar
    15     5    14   ar
    16    12    15    1
    17     4    16    1
    18    16    17    1
    19    17    18    1
    20    18    19    2
    21     3    19    1
    22    17    20    1
    23    17    21    1
    24     8    22    1
    25     8    23    1
    26     8    24    1
    27    11    25    1
    28    11    26    1
    29    11    27    1
    30    13    28    1
    31    14    29    1
    32    15    30    1
    33    18    31    1
    34    19    32    1
    35    20    33    1
    36    20    34    1
    37    20    35    1
    38    21    36    1
    39    21    37    1
    40    21    38    1
