REMARK  Name = NuBBE_1681
REMARK  16 active torsions:
REMARK  status: ('A' for Active; 'I' for Inactive)
REMARK    1  A    between atoms: C_1  and  C_2
REMARK    2  A    between atoms: C_2  and  C_3
REMARK    3  A    between atoms: C_3  and  C_4
REMARK    4  A    between atoms: C_4  and  C_5
REMARK    5  A    between atoms: C_5  and  C_6
REMARK    6  A    between atoms: C_6  and  C_7
REMARK    7  A    between atoms: C_8  and  C_9
REMARK    8  A    between atoms: C_9  and  C_10
REMARK    9  A    between atoms: C_10  and  C_11
REMARK   10  A    between atoms: C_11  and  C_12
REMARK   11  A    between atoms: C_12  and  C_13
REMARK   12  A    between atoms: C_13  and  C_14
REMARK   13  A    between atoms: C_14  and  C_15
REMARK   14  A    between atoms: C_15  and  C_16
REMARK   15  A    between atoms: C_18  and  O_19
REMARK   16  A    between atoms: C_21  and  O_22
REMARK                            x       y       z     vdW  Elec       q    Type
REMARK                         _______ _______ _______ _____ _____    ______ ____
ROOT
ATOM      1  C   LIG A   1       2.947  -1.396   1.685  0.00  0.00    +0.000 C 
ENDROOT
BRANCH   1   2
ATOM      2  C   LIG A   1       4.098  -0.412   1.895  0.00  0.00    +0.000 C 
BRANCH   2   3
ATOM      3  C   LIG A   1       4.186   0.865   1.035  0.00  0.00    +0.000 C 
BRANCH   3   4
ATOM      4  C   LIG A   1       3.145   2.037   1.235  0.00  0.00    +0.004 C 
BRANCH   4   5
ATOM      5  C   LIG A   1       1.673   1.715   1.098  0.00  0.00    +0.027 C 
BRANCH   5   7
ATOM      6  C   LIG A   1      -1.244   2.318   0.995  0.00  0.00    -0.031 C 
ATOM      7  C   LIG A   1       0.201   2.639   1.220  0.00  0.00    -0.031 C 
BRANCH   6   8
ATOM      8  C   LIG A   1      -2.227   0.826   0.325  0.00  0.00    +0.027 C 
BRANCH   8   9
ATOM      9  C   LIG A   1      -2.228   0.149  -1.335  0.00  0.00    +0.004 C 
BRANCH   9  10
ATOM     10  C   LIG A   1      -2.506  -1.324  -1.644  0.00  0.00    +0.000 C 
BRANCH  10  11
ATOM     11  C   LIG A   1      -3.929  -1.569  -1.303  0.00  0.00    -0.000 C 
BRANCH  11  13
ATOM     12  C   LIG A   1      -5.583  -1.654   0.610  0.00  0.00    +0.004 C 
ATOM     13  C   LIG A   1      -4.161  -1.484   0.190  0.00  0.00    -0.003 C 
ENDBRANCH  11  13
ENDBRANCH  10  11
ENDBRANCH   9  10
ENDBRANCH   8   9
ENDBRANCH   6   8
ENDBRANCH   5   7
ENDBRANCH   4   5
ENDBRANCH   3   4
ENDBRANCH   2   3
ENDBRANCH   1   2
BRANCH   1  14
ATOM     14  C   LIG A   1       2.826  -2.073   0.281  0.00  0.00    +0.005 C 
BRANCH  14  15
ATOM     15  C   LIG A   1       2.712  -1.230  -1.048  0.00  0.00    +0.035 C 
BRANCH  15  16
ATOM     16  C   LIG A   1       1.458  -0.489  -1.256  0.00  0.00    -0.041 A 
ATOM     17  C   LIG A   1       0.580  -0.713  -0.228  0.00  0.00    +0.049 A 
ATOM     18  C   LIG A   1      -0.036   0.325   0.020  0.00  0.00    +0.121 A 
ATOM     19  C   LIG A   1      -0.232   1.586  -1.052  0.00  0.00    +0.090 A 
ATOM     20  C   LIG A   1       0.364   1.554  -2.262  0.00  0.00    +0.121 A 
ATOM     21  C   LIG A   1       1.274   0.526  -2.320  0.00  0.00    +0.049 A 
BRANCH  18  22
ATOM     22  O   LIG A   1      -0.297   0.334   1.527  0.00  0.00    -0.507 OA
ATOM     23  H   LIG A   1      -0.858  -0.338   1.964  0.00  0.00    +0.292 HD
ENDBRANCH  18  22
BRANCH  20  24
ATOM     24  O   LIG A   1      -0.007   2.353  -3.260  0.00  0.00    -0.507 OA
ATOM     25  H   LIG A   1      -0.963   2.561  -3.227  0.00  0.00    +0.292 HD
ENDBRANCH  20  24
ENDBRANCH  15  16
ENDBRANCH  14  15
ENDBRANCH   1  14
TORSDOF 15
