REMARK  Name = NuBBE_567
REMARK  4 active torsions:
REMARK  status: ('A' for Active; 'I' for Inactive)
REMARK    1  A    between atoms: O_1  and  C_2
REMARK    2  A    between atoms: C_5  and  O_6
REMARK    3  A    between atoms: C_8  and  C_9
REMARK    4  A    between atoms: C_15  and  O_16
REMARK                            x       y       z     vdW  Elec       q    Type
REMARK                         _______ _______ _______ _____ _____    ______ ____
ROOT
ATOM      1  C   LIG A   1       0.358   1.621  -0.054  0.00  0.00    +0.058 C 
ATOM      2  C   LIG A   1       1.004   0.452  -0.159  0.00  0.00    +0.176 C 
ATOM      3  C   LIG A   1       2.459   0.357  -0.455  0.00  0.00    +0.232 C 
ATOM      4  C   LIG A   1       2.693  -1.081  -0.488  0.00  0.00    +0.068 A 
ATOM      5  C   LIG A   1       3.857  -1.789  -0.715  0.00  0.00    +0.019 A 
ATOM      6  C   LIG A   1       3.770  -3.184  -0.680  0.00  0.00    +0.046 A 
ATOM      7  C   LIG A   1       2.536  -3.809  -0.423  0.00  0.00    +0.120 A 
ATOM      8  C   LIG A   1       1.370  -3.076  -0.196  0.00  0.00    +0.092 A 
ATOM      9  C   LIG A   1       1.474  -1.703  -0.234  0.00  0.00    +0.143 A 
ATOM     10  O   LIG A   1       0.443  -0.814  -0.034  0.00  0.00    -0.451 OA
ATOM     11  O   LIG A   1       3.268   1.243  -0.626  0.00  0.00    -0.283 OA
ENDROOT
BRANCH   1  17
ATOM     12  C   LIG A   1      -3.788   2.219   0.756  0.00  0.00    +0.158 A 
ATOM     13  C   LIG A   1      -3.112   1.219   1.440  0.00  0.00    +0.050 A 
ATOM     14  C   LIG A   1      -1.753   1.011   1.175  0.00  0.00    +0.012 A 
ATOM     15  C   LIG A   1      -3.119   3.006  -0.176  0.00  0.00    +0.159 A 
ATOM     16  C   LIG A   1      -1.772   2.805  -0.445  0.00  0.00    +0.057 A 
ATOM     17  C   LIG A   1      -1.074   1.789   0.222  0.00  0.00    -0.018 A 
BRANCH  12  18
ATOM     18  O   LIG A   1      -5.114   2.474   0.971  0.00  0.00    -0.503 OA
ATOM     19  H   LIG A   1      -5.438   1.846   1.639  0.00  0.00    +0.292 HD
ENDBRANCH  12  18
BRANCH  15  20
ATOM     20  O   LIG A   1      -3.790   3.995  -0.839  0.00  0.00    -0.503 OA
ATOM     21  H   LIG A   1      -4.703   3.947  -0.490  0.00  0.00    +0.292 HD
ENDBRANCH  15  20
ENDBRANCH   1  17
BRANCH   7  22
ATOM     22  O   LIG A   1       2.435  -5.170  -0.385  0.00  0.00    -0.507 OA
ATOM     23  H   LIG A   1       3.308  -5.558  -0.566  0.00  0.00    +0.292 HD
ENDBRANCH   7  22
TORSDOF 4
