REMARK  Name = NuBBE_1205
REMARK  6 active torsions:
REMARK  status: ('A' for Active; 'I' for Inactive)
REMARK    1  A    between atoms: O_1  and  C_2
REMARK    2  A    between atoms: C_6  and  C_7
REMARK    3  A    between atoms: C_9  and  O_10
REMARK    4  A    between atoms: O_10  and  C_11
REMARK    5  A    between atoms: C_12  and  O_15
REMARK    6  A    between atoms: C_20  and  O_21
REMARK                            x       y       z     vdW  Elec       q    Type
REMARK                         _______ _______ _______ _____ _____    ______ ____
ROOT
ATOM      1  C   LIG A   1      -3.723  -2.374   0.257  0.00  0.00    +0.124 A 
ATOM      2  C   LIG A   1      -2.869  -1.273   0.221  0.00  0.00    +0.092 A 
ATOM      3  C   LIG A   1      -1.489  -1.478   0.273  0.00  0.00    +0.146 A 
ATOM      4  O   LIG A   1      -0.688  -0.361   0.240  0.00  0.00    -0.454 OA
ATOM      5  C   LIG A   1       0.690  -0.528   0.312  0.00  0.00    +0.139 A 
ATOM      6  C   LIG A   1       1.293  -1.724   0.383  0.00  0.00    +0.098 A 
ATOM      7  C   LIG A   1       0.476  -2.944   0.413  0.00  0.00    +0.197 A 
ATOM      8  O   LIG A   1       0.985  -4.056   0.486  0.00  0.00    -0.287 OA
ATOM      9  C   LIG A   1      -0.979  -2.773   0.357  0.00  0.00    +0.105 A 
ATOM     10  C   LIG A   1      -1.846  -3.870   0.389  0.00  0.00    +0.135 A 
ATOM     11  C   LIG A   1      -3.222  -3.671   0.339  0.00  0.00    +0.091 A 
ENDROOT
BRANCH   5  12
ATOM     12  C   LIG A   1       1.467   0.735   0.279  0.00  0.00    +0.021 A 
ATOM     13  C   LIG A   1       0.989   1.844  -0.447  0.00  0.00    +0.060 A 
ATOM     14  C   LIG A   1       1.712   3.040  -0.491  0.00  0.00    +0.162 A 
ATOM     15  C   LIG A   1       2.922   3.123   0.205  0.00  0.00    +0.159 A 
ATOM     16  C   LIG A   1       3.409   2.053   0.939  0.00  0.00    +0.050 A 
ATOM     17  C   LIG A   1       2.680   0.865   0.980  0.00  0.00    +0.015 A 
BRANCH  14  18
ATOM     18  O   LIG A   1       1.356   4.178  -1.168  0.00  0.00    -0.491 OA
ATOM     19  C   LIG A   1       0.129   4.133  -1.886  0.00  0.00    +0.277 C 
ENDBRANCH  14  18
BRANCH  15  20
ATOM     20  O   LIG A   1       3.658   4.276   0.180  0.00  0.00    -0.503 OA
ATOM     21  H   LIG A   1       3.148   4.892  -0.380  0.00  0.00    +0.292 HD
ENDBRANCH  15  20
ENDBRANCH   5  12
BRANCH   1  22
ATOM     22  O   LIG A   1      -5.078  -2.224   0.214  0.00  0.00    -0.506 OA
ATOM     23  H   LIG A   1      -5.297  -1.278   0.181  0.00  0.00    +0.292 HD
ENDBRANCH   1  22
BRANCH  10  24
ATOM     24  O   LIG A   1      -1.408  -5.164   0.469  0.00  0.00    -0.506 OA
ATOM     25  H   LIG A   1      -0.424  -5.157   0.498  0.00  0.00    +0.292 HD
ENDBRANCH  10  24
TORSDOF 5
