REMARK  Name = NuBBE_1432
REMARK  11 active torsions:
REMARK  status: ('A' for Active; 'I' for Inactive)
REMARK    1  A    between atoms: C_1  and  C_2
REMARK    2  A    between atoms: C_2  and  C_3
REMARK    3  A    between atoms: C_4  and  C_5
REMARK    4  A    between atoms: C_5  and  C_6
REMARK    5  A    between atoms: C_6  and  O_7
REMARK    6  A    between atoms: O_7  and  C_8
REMARK    7  A    between atoms: C_9  and  O_11
REMARK    8  A    between atoms: O_11  and  C_12
REMARK    9  A    between atoms: C_12  and  C_13
REMARK   10  A    between atoms: C_25  and  O_26
REMARK   11  A    between atoms: O_26  and  C_27
REMARK                            x       y       z     vdW  Elec       q    Type
REMARK                         _______ _______ _______ _____ _____    ______ ____
ROOT
ATOM      1  C   LIG A   1       0.963  -0.271   0.702  0.00  0.00    +0.151 C 
ATOM      2  C   LIG A   1       1.393   1.106   0.116  0.00  0.00    +0.215 C 
ATOM      3  C   LIG A   1       0.341   1.714  -0.796  0.00  0.00    +0.053 C 
ATOM      4  C   LIG A   1      -0.008   0.763  -1.938  0.00  0.00    +0.044 C 
ATOM      5  C   LIG A   1      -0.168  -0.693  -1.560  0.00  0.00    +0.019 A 
ATOM      6  C   LIG A   1       0.309  -1.195  -0.340  0.00  0.00    +0.087 A 
ATOM      7  N   LIG A   1       0.221  -2.499   0.024  0.00  0.00    -0.213 NA
ATOM      8  C   LIG A   1      -0.299  -3.316  -0.899  0.00  0.00    +0.231 A 
ATOM      9  O   LIG A   1      -0.390  -4.661  -0.705  0.00  0.00    -0.445 OA
ATOM     10  C   LIG A   1      -0.914  -5.194  -1.834  0.00  0.00    +0.198 A 
ATOM     11  C   LIG A   1      -1.174  -4.207  -2.754  0.00  0.00    +0.055 A 
ATOM     12  C   LIG A   1      -0.790  -2.971  -2.155  0.00  0.00    +0.082 A 
ATOM     13  C   LIG A   1      -0.750  -1.598  -2.484  0.00  0.00    +0.137 A 
ENDROOT
BRANCH   1  14
ATOM     14  O   LIG A   1       2.147  -0.911   1.283  0.00  0.00    -0.366 OA
ATOM     15  C   LIG A   1       3.207  -1.226   0.381  0.00  0.00    +0.195 C 
ENDBRANCH   1  14
BRANCH  13  16
ATOM     16  O   LIG A   1      -1.141  -1.049  -3.696  0.00  0.00    -0.494 OA
ATOM     17  C   LIG A   1      -2.259  -1.670  -4.320  0.00  0.00    +0.277 C 
ENDBRANCH  13  16
BRANCH   1  18
ATOM     18  C   LIG A   1      -0.039  -0.130   1.911  0.00  0.00    +0.072 C 
BRANCH  18  22
ATOM     19  C   LIG A   1      -3.374   1.975   1.829  0.00  0.00    +0.038 C 
ATOM     20  C   LIG A   1      -1.966   1.577   2.205  0.00  0.00    -0.080 C 
ATOM     21  C   LIG A   1      -1.310   2.488   3.205  0.00  0.00    +0.038 C 
ATOM     22  C   LIG A   1      -1.405   0.482   1.649  0.00  0.00    -0.025 C 
ENDBRANCH  18  22
ENDBRANCH   1  18
BRANCH   2  23
ATOM     23  O   LIG A   1       1.678   2.039   1.188  0.00  0.00    -0.458 OA
BRANCH  23  24
ATOM     24  C   LIG A   1       2.965   2.457   1.316  0.00  0.00    +0.304 C 
ATOM     25  C   LIG A   1       3.147   3.254   2.584  0.00  0.00    +0.136 C 
ATOM     26  O   LIG A   1       3.892   2.201   0.533  0.00  0.00    -0.251 OA
ENDBRANCH  23  24
ENDBRANCH   2  23
TORSDOF 6
