@<TRIPOS>MOLECULE
NuBBE_1798
 73 73 0 0 0
SMALL
GASTEIGER

@<TRIPOS>ATOM
      1 O           1.2683   -2.6816    1.6227 O.2     1  LIG1        0.0000
      2 C           0.7152   -2.1109    0.6880 C.2     1  LIG1        0.0000
      3 O           1.2456   -1.1474   -0.1975 O.3     1  LIG1        0.0000
      4 C          -0.6292   -2.4945    0.3021 C.3     1  LIG1        0.0000
      5 C          -1.8747   -1.7341    0.8020 C.3     1  LIG1        0.0000
      6 C          -2.1813   -1.5581    2.3376 C.3     1  LIG1        0.0000
      7 O          -1.4187   -0.4989    2.9884 O.3     1  LIG1        0.0000
      8 SI          0.1902   -0.6548    3.4976 Si      1  LIG1        0.0000
      9 C           1.0564    0.6605    4.4705 C.3     1  LIG1        0.0000
     10 C           0.6027   -2.2627    4.3912 C.3     1  LIG1        0.0000
     11 C           1.3985   -0.1279    2.0282 C.3     1  LIG1        0.0000
     12 C          -3.7165   -1.1822    2.4910 C.3     1  LIG1        0.0000
     13 O          -4.6657   -2.1263    1.9766 O.3     1  LIG1        0.0000
     14 SI         -4.8503   -3.6694    2.6039 Si      1  LIG1        0.0000
     15 C          -5.2082   -3.7495    4.4458 C.3     1  LIG1        0.0000
     16 C          -6.2412   -4.5681    1.7043 C.3     1  LIG1        0.0000
     17 C          -3.2703   -4.6723    2.3733 C.3     1  LIG1        0.0000
     18 C          -0.2425   -2.3352   -1.1702 C.3     1  LIG1        0.0000
     19 C           0.3016   -0.9181   -1.2551 C.3     1  LIG1        0.0000
     20 C           1.0140   -0.5502   -2.5791 C.3     1  LIG1        0.0000
     21 C           1.3737    0.9490   -2.8387 C.3     1  LIG1        0.0000
     22 C           2.0846    1.1381   -4.2102 C.3     1  LIG1        0.0000
     23 C           2.4736    2.5935   -4.5734 C.3     1  LIG1        0.0000
     24 C           3.4760    3.2180   -3.5937 C.3     1  LIG1        0.0000
     25 C           3.9894    4.6276   -3.9557 C.3     1  LIG1        0.0000
     26 C           2.9063    5.7123   -4.0152 C.3     1  LIG1        0.0000
     27 C           3.4168    7.1144   -4.3712 C.3     1  LIG1        0.0000
     28 C           4.3602    7.7364   -3.3853 C.1     1  LIG1        0.0000
     29 C           5.0371    8.3418   -2.6758 C.1     1  LIG1        0.0000
     30 H          -0.6595   -3.5232    0.6755 H       1  LIG1        0.0000
     31 H          -2.6864   -2.3326    0.3643 H       1  LIG1        0.0000
     32 H          -1.9556   -0.7441    0.3493 H       1  LIG1        0.0000
     33 H          -2.0377   -2.4923    2.8826 H       1  LIG1        0.0000
     34 H           0.9388    1.6214    3.9648 H       1  LIG1        0.0000
     35 H           2.1194    0.3771    4.4043 H       1  LIG1        0.0000
     36 H           0.7523    0.6676    5.5052 H       1  LIG1        0.0000
     37 H           0.3974   -2.1627    5.4645 H       1  LIG1        0.0000
     38 H           1.6749   -2.4626    4.2907 H       1  LIG1        0.0000
     39 H           0.0594   -3.1424    4.0286 H       1  LIG1        0.0000
     40 H           2.0046    0.7726    1.9811 H       1  LIG1        0.0000
     41 H           0.5939    0.0778    1.3165 H       1  LIG1        0.0000
     42 H           2.1798   -0.8733    1.8029 H       1  LIG1        0.0000
     43 H          -3.8952   -0.2527    1.9292 H       1  LIG1        0.0000
     44 H          -3.9723   -0.9343    3.5292 H       1  LIG1        0.0000
     45 H          -4.6687   -2.9740    4.9948 H       1  LIG1        0.0000
     46 H          -4.8773   -4.7214    4.8312 H       1  LIG1        0.0000
     47 H          -6.2777   -3.6584    4.6509 H       1  LIG1        0.0000
     48 H          -7.1054   -3.9117    1.5642 H       1  LIG1        0.0000
     49 H          -6.5593   -5.4361    2.2889 H       1  LIG1        0.0000
     50 H          -5.9088   -4.9158    0.7219 H       1  LIG1        0.0000
     51 H          -2.6563   -4.5986    3.2764 H       1  LIG1        0.0000
     52 H          -2.6832   -4.3185    1.5252 H       1  LIG1        0.0000
     53 H          -3.5080   -5.7225    2.2051 H       1  LIG1        0.0000
     54 H          -1.0170   -2.6117   -1.8585 H       1  LIG1        0.0000
     55 H           0.6446   -2.9877   -1.3406 H       1  LIG1        0.0000
     56 H          -0.4490   -0.1421   -1.0238 H       1  LIG1        0.0000
     57 H           0.3722   -0.8773   -3.4036 H       1  LIG1        0.0000
     58 H           1.9506   -1.1127   -2.6166 H       1  LIG1        0.0000
     59 H           2.0325    1.3127   -2.0441 H       1  LIG1        0.0000
     60 H           0.4708    1.5733   -2.8212 H       1  LIG1        0.0000
     61 H           1.4327    0.7608   -5.0104 H       1  LIG1        0.0000
     62 H           2.9887    0.5169   -4.2334 H       1  LIG1        0.0000
     63 H           1.5652    3.2024   -4.6249 H       1  LIG1        0.0000
     64 H           2.9077    2.5974   -5.5846 H       1  LIG1        0.0000
     65 H           4.3499    2.5574   -3.5203 H       1  LIG1        0.0000
     66 H           3.0255    3.2560   -2.5974 H       1  LIG1        0.0000
     67 H           4.5259    4.5861   -4.9104 H       1  LIG1        0.0000
     68 H           4.7252    4.9092   -3.1919 H       1  LIG1        0.0000
     69 H           2.3677    5.7483   -3.0605 H       1  LIG1        0.0000
     70 H           2.1739    5.4382   -4.7838 H       1  LIG1        0.0000
     71 H           2.5465    7.7801   -4.4309 H       1  LIG1        0.0000
     72 H           3.8703    7.1109   -5.3685 H       1  LIG1        0.0000
     73 H           5.6352    8.9933   -2.0240 H       1  LIG1        0.0000
@<TRIPOS>BOND
     1     1     2    2
     2     2     3    1
     3     2     4    1
     4     4     5    1
     5     5     6    1
     6     6     7    1
     7     7     8    1
     8     8     9    1
     9     8    10    1
    10     8    11    1
    11     6    12    1
    12    12    13    1
    13    13    14    1
    14    14    15    1
    15    14    16    1
    16    14    17    1
    17     4    18    1
    18    18    19    1
    19     3    19    1
    20    19    20    1
    21    20    21    1
    22    21    22    1
    23    22    23    1
    24    23    24    1
    25    24    25    1
    26    25    26    1
    27    26    27    1
    28    27    28    1
    29    28    29    3
    30     4    30    1
    31     5    31    1
    32     5    32    1
    33     6    33    1
    34     9    34    1
    35     9    35    1
    36     9    36    1
    37    10    37    1
    38    10    38    1
    39    10    39    1
    40    11    40    1
    41    11    41    1
    42    11    42    1
    43    12    43    1
    44    12    44    1
    45    15    45    1
    46    15    46    1
    47    15    47    1
    48    16    48    1
    49    16    49    1
    50    16    50    1
    51    17    51    1
    52    17    52    1
    53    17    53    1
    54    18    54    1
    55    18    55    1
    56    19    56    1
    57    20    57    1
    58    20    58    1
    59    21    59    1
    60    21    60    1
    61    22    61    1
    62    22    62    1
    63    23    63    1
    64    23    64    1
    65    24    65    1
    66    24    66    1
    67    25    67    1
    68    25    68    1
    69    26    69    1
    70    26    70    1
    71    27    71    1
    72    27    72    1
    73    29    73    1
