@<TRIPOS>MOLECULE
NuBBE_2111
 42 41 0 0 0
SMALL
GASTEIGER

@<TRIPOS>ATOM
      1 C          -2.7627   -6.2444    2.4166 C.2     1  LIG1       -0.1026
      2 C          -3.5191   -5.1722    2.6353 C.2     1  LIG1       -0.0911
      3 C          -3.0424   -3.7443    2.5154 C.3     1  LIG1       -0.0350
      4 C          -2.6606   -3.4066    1.0689 C.3     1  LIG1       -0.0496
      5 C          -2.1189   -1.9837    0.9060 C.3     1  LIG1       -0.0528
      6 C          -1.6974   -1.7042   -0.5431 C.3     1  LIG1       -0.0530
      7 C          -1.2199   -0.2688   -0.7787 C.3     1  LIG1       -0.0531
      8 C           0.0473    0.0730    0.0051 C.3     1  LIG1       -0.0531
      9 C           0.5475    1.4920   -0.2477 C.3     1  LIG1       -0.0531
     10 C           0.9725    1.6943   -1.7027 C.3     1  LIG1       -0.0531
     11 C           1.5983    3.0631   -1.9596 C.3     1  LIG1       -0.0531
     12 C           2.8837    3.2871   -1.1581 C.3     1  LIG1       -0.0533
     13 C           3.4904    4.6616   -1.4257 C.3     1  LIG1       -0.0559
     14 C           4.7536    4.8934   -0.6082 C.3     1  LIG1       -0.0653
     15 H          -3.1781   -7.2487    2.4844 H       1  LIG1        0.0532
     16 H          -1.7117   -6.1613    2.1434 H       1  LIG1        0.0532
     17 H          -4.5698   -5.3099    2.8981 H       1  LIG1        0.0566
     18 H          -2.2088   -3.5729    3.2079 H       1  LIG1        0.0307
     19 H          -3.8535   -3.0812    2.8391 H       1  LIG1        0.0307
     20 H          -3.5496   -3.5285    0.4385 H       1  LIG1        0.0268
     21 H          -1.9080   -4.1165    0.7049 H       1  LIG1        0.0268
     22 H          -1.2591   -1.8545    1.5714 H       1  LIG1        0.0265
     23 H          -2.8838   -1.2604    1.2104 H       1  LIG1        0.0265
     24 H          -2.5423   -1.8956   -1.2162 H       1  LIG1        0.0265
     25 H          -0.8983   -2.3959   -0.8385 H       1  LIG1        0.0265
     26 H          -2.0159    0.4430   -0.5298 H       1  LIG1        0.0265
     27 H          -1.0297   -0.1629   -1.8531 H       1  LIG1        0.0265
     28 H           0.8465   -0.6314   -0.2559 H       1  LIG1        0.0265
     29 H          -0.1321   -0.0304    1.0801 H       1  LIG1        0.0265
     30 H           1.3968    1.6509    0.4248 H       1  LIG1        0.0265
     31 H          -0.2170    2.2282    0.0298 H       1  LIG1        0.0265
     32 H           0.0973    1.6016   -2.3557 H       1  LIG1        0.0265
     33 H           1.6723    0.9027   -1.9978 H       1  LIG1        0.0265
     34 H           0.8625    3.8405   -1.7216 H       1  LIG1        0.0265
     35 H           1.8125    3.1448   -3.0325 H       1  LIG1        0.0265
     36 H           3.6075    2.4997   -1.3997 H       1  LIG1        0.0265
     37 H           2.6725    3.2156   -0.0866 H       1  LIG1        0.0265
     38 H           2.7580    5.4362   -1.1711 H       1  LIG1        0.0263
     39 H           3.7241    4.7677   -2.4904 H       1  LIG1        0.0263
     40 H           4.5936    4.6757    0.4531 H       1  LIG1        0.0230
     41 H           5.0669    5.9386   -0.6937 H       1  LIG1        0.0230
     42 H           5.5747    4.2645   -0.9668 H       1  LIG1        0.0230
@<TRIPOS>BOND
     1     1     2    2
     2     2     3    1
     3     3     4    1
     4     4     5    1
     5     5     6    1
     6     6     7    1
     7     7     8    1
     8     8     9    1
     9     9    10    1
    10    10    11    1
    11    11    12    1
    12    12    13    1
    13    13    14    1
    14     1    15    1
    15     1    16    1
    16     2    17    1
    17     3    18    1
    18     3    19    1
    19     4    20    1
    20     4    21    1
    21     5    22    1
    22     5    23    1
    23     6    24    1
    24     6    25    1
    25     7    26    1
    26     7    27    1
    27     8    28    1
    28     8    29    1
    29     9    30    1
    30     9    31    1
    31    10    32    1
    32    10    33    1
    33    11    34    1
    34    11    35    1
    35    12    36    1
    36    12    37    1
    37    13    38    1
    38    13    39    1
    39    14    40    1
    40    14    41    1
    41    14    42    1
