@<TRIPOS>MOLECULE
NuBBE_185
 66 67 0 0 0
SMALL
GASTEIGER

@<TRIPOS>ATOM
      1 O           4.7754   -2.1737    1.7085 O.3     1  LIG1       -0.4806
      2 C           3.4528   -2.5198    1.6456 C.2     1  LIG1        0.3047
      3 C           2.6520   -1.2960    1.2415 C.3     1  LIG1        0.0448
      4 C           1.2793   -1.3919    1.8041 C.3     1  LIG1       -0.0430
      5 C           0.9172   -1.3374    3.2947 C.3     1  LIG1       -0.0526
      6 C          -0.6073   -1.3211    3.5919 C.3     1  LIG1       -0.0530
      7 C          -1.4502   -2.5906    3.3780 C.3     1  LIG1       -0.0531
      8 C          -0.8115   -3.9151    3.6618 C.3     1  LIG1       -0.0531
      9 C          -1.5717   -5.0617    2.9510 C.3     1  LIG1       -0.0531
     10 C          -1.5775   -5.2094    1.3968 C.3     1  LIG1       -0.0531
     11 C          -2.5212   -4.3012    0.5511 C.3     1  LIG1       -0.0531
     12 C          -2.1087   -2.9311   -0.1009 C.3     1  LIG1       -0.0531
     13 C          -1.6607   -1.7353    0.7429 C.3     1  LIG1       -0.0531
     14 C          -1.3783   -0.3807    0.1002 C.3     1  LIG1       -0.0531
     15 C          -0.9458    0.8812    0.9304 C.3     1  LIG1       -0.0530
     16 C          -0.9014    2.1714    0.0924 C.3     1  LIG1       -0.0528
     17 C           0.0855    2.3505   -1.1140 C.3     1  LIG1       -0.0491
     18 C          -0.1030    3.7974   -1.7141 C.3     1  LIG1       -0.0276
     19 C           0.6082    4.3000   -2.9860 C.ar    1  LIG1       -0.0437
     20 C           0.0333    5.3584   -3.7369 C.ar    1  LIG1       -0.0130
     21 C           0.6866    5.8553   -4.8645 C.ar    1  LIG1        0.1665
     22 O           0.2984    6.9334   -5.6073 O.3     1  LIG1       -0.4526
     23 C           1.2220    6.8409   -6.7137 C.3     1  LIG1        0.2332
     24 O           2.3188    5.9391   -6.4465 O.3     1  LIG1       -0.4526
     25 C           1.8543    5.3097   -5.3295 C.ar    1  LIG1        0.1662
     26 C           2.4614    4.2873   -4.6353 C.ar    1  LIG1       -0.0159
     27 C           1.8719    3.8469   -3.4208 C.ar    1  LIG1       -0.0549
     28 O           3.0331   -3.5944    1.8268 O.2     1  LIG1       -0.2510
     29 H           4.9125   -1.2144    1.5703 H       1  LIG1        0.2951
     30 H           2.5601   -1.3409    0.1463 H       1  LIG1        0.0377
     31 H           3.1081   -0.3413    1.4970 H       1  LIG1        0.0377
     32 H           0.9005   -2.2867    1.3378 H       1  LIG1        0.0270
     33 H           0.8447   -0.5422    1.3231 H       1  LIG1        0.0270
     34 H           1.3306   -0.4232    3.7410 H       1  LIG1        0.0265
     35 H           1.3613   -2.1785    3.8261 H       1  LIG1        0.0265
     36 H          -1.0527   -0.4687    3.0723 H       1  LIG1        0.0265
     37 H          -0.7604   -1.0622    4.6440 H       1  LIG1        0.0265
     38 H          -1.7482   -2.8632    2.4013 H       1  LIG1        0.0265
     39 H          -2.4586   -2.3804    3.7529 H       1  LIG1        0.0265
     40 H          -0.8582   -4.0340    4.7429 H       1  LIG1        0.0265
     41 H           0.2318   -3.9458    3.3307 H       1  LIG1        0.0265
     42 H          -2.6206   -5.0068    3.2561 H       1  LIG1        0.0265
     43 H          -1.1576   -5.9881    3.3683 H       1  LIG1        0.0265
     44 H          -2.0000   -6.2281    1.2670 H       1  LIG1        0.0265
     45 H          -0.5757   -5.2727    0.9608 H       1  LIG1        0.0265
     46 H          -3.4628   -4.1808    1.0986 H       1  LIG1        0.0265
     47 H          -2.7873   -4.9184   -0.3244 H       1  LIG1        0.0265
     48 H          -3.0141   -2.5551   -0.5746 H       1  LIG1        0.0265
     49 H          -1.3565   -3.1324   -0.8711 H       1  LIG1        0.0265
     50 H          -0.7648   -2.1213    1.1715 H       1  LIG1        0.0265
     51 H          -2.4480   -1.5297    1.4729 H       1  LIG1        0.0265
     52 H          -2.3622   -0.1301   -0.2889 H       1  LIG1        0.0265
     53 H          -0.6662   -0.5555   -0.7032 H       1  LIG1        0.0265
     54 H           0.0040    0.8886    1.4660 H       1  LIG1        0.0265
     55 H          -1.6522    1.0365    1.7618 H       1  LIG1        0.0265
     56 H          -0.6709    2.9654    0.8146 H       1  LIG1        0.0265
     57 H          -1.9244    2.3296   -0.2537 H       1  LIG1        0.0265
     58 H          -0.1005    1.5961   -1.8876 H       1  LIG1        0.0268
     59 H           1.1209    2.2068   -0.7768 H       1  LIG1        0.0268
     60 H           0.1239    4.5088   -0.9083 H       1  LIG1        0.0313
     61 H          -1.1815    3.8978   -1.9048 H       1  LIG1        0.0313
     62 H          -0.9014    5.8238   -3.4402 H       1  LIG1        0.0658
     63 H           1.6075    7.8385   -6.9691 H       1  LIG1        0.1166
     64 H           0.6634    6.4625   -7.5786 H       1  LIG1        0.1166
     65 H           3.3911    3.8572   -4.9959 H       1  LIG1        0.0655
     66 H           2.4515    3.1766   -2.7943 H       1  LIG1        0.0621
@<TRIPOS>BOND
     1     1     2    1
     2     2     3    1
     3     3     4    1
     4     4     5    1
     5     5     6    1
     6     6     7    1
     7     7     8    1
     8     8     9    1
     9     9    10    1
    10    10    11    1
    11    11    12    1
    12    12    13    1
    13    13    14    1
    14    14    15    1
    15    15    16    1
    16    16    17    1
    17    17    18    1
    18    18    19    1
    19    19    20   ar
    20    20    21   ar
    21    21    22    1
    22    22    23    1
    23    23    24    1
    24    21    25   ar
    25    24    25    1
    26    25    26   ar
    27    26    27   ar
    28    19    27   ar
    29     2    28    2
    30     1    29    1
    31     3    30    1
    32     3    31    1
    33     4    32    1
    34     4    33    1
    35     5    34    1
    36     5    35    1
    37     6    36    1
    38     6    37    1
    39     7    38    1
    40     7    39    1
    41     8    40    1
    42     8    41    1
    43     9    42    1
    44     9    43    1
    45    10    44    1
    46    10    45    1
    47    11    46    1
    48    11    47    1
    49    12    48    1
    50    12    49    1
    51    13    50    1
    52    13    51    1
    53    14    52    1
    54    14    53    1
    55    15    54    1
    56    15    55    1
    57    16    56    1
    58    16    57    1
    59    17    58    1
    60    17    59    1
    61    18    60    1
    62    18    61    1
    63    20    62    1
    64    23    63    1
    65    23    64    1
    66    26    65    1
    67    27    66    1
