REMARK  Name = NuBBE_1209
REMARK  14 active torsions:
REMARK  status: ('A' for Active; 'I' for Inactive)
REMARK    1  A    between atoms: O_1  and  C_2
REMARK    2  A    between atoms: C_11  and  C_29
REMARK    3  A    between atoms: C_12  and  C_28
REMARK    4  A    between atoms: C_15  and  C_17
REMARK    5  A    between atoms: C_17  and  C_19
REMARK    6  A    between atoms: C_17  and  C_20
REMARK    7  A    between atoms: C_20  and  C_21
REMARK    8  A    between atoms: C_21  and  C_22
REMARK    9  A    between atoms: C_22  and  C_23
REMARK   10  A    between atoms: C_23  and  C_24
REMARK   11  A    between atoms: C_23  and  C_26
REMARK   12  A    between atoms: C_24  and  O_25
REMARK   13  A    between atoms: C_34  and  C_35
REMARK   14  A    between atoms: C_34  and  C_36
REMARK                            x       y       z     vdW  Elec       q    Type
REMARK                         _______ _______ _______ _____ _____    ______ ____
ROOT
ATOM      1  C   LIG A   1      -4.149   2.898  -0.011  0.00  0.00    +0.120 C 
ATOM      2  C   LIG A   1      -3.863   1.743   0.929  0.00  0.00    +0.032 C 
ATOM      3  C   LIG A   1      -2.821   2.151   1.942  0.00  0.00    +0.010 C 
ATOM      4  C   LIG A   1      -1.493   2.593   1.332  0.00  0.00    -0.019 C 
ATOM      5  C   LIG A   1      -0.523   2.982   2.448  0.00  0.00    +0.015 C 
ATOM      6  C   LIG A   1      -0.158   1.824   1.562  0.00  0.00    -0.019 C 
ATOM      7  C   LIG A   1      -0.282   0.436   2.116  0.00  0.00    +0.008 C 
ATOM      8  C   LIG A   1       1.043  -0.210   2.496  0.00  0.00    +0.008 C 
ATOM      9  C   LIG A   1       2.220  -0.094   1.509  0.00  0.00    -0.023 C 
ATOM     10  C   LIG A   1       2.333   1.365   0.928  0.00  0.00    -0.023 C 
ATOM     11  C   LIG A   1       3.244   1.168  -0.318  0.00  0.00    +0.008 C 
ATOM     12  C   LIG A   1       3.380  -0.327  -0.598  0.00  0.00    +0.005 C 
ATOM     13  C   LIG A   1       2.317  -1.053   0.248  0.00  0.00    -0.002 C 
ATOM     14  C   LIG A   1       3.030   2.345   1.900  0.00  0.00    +0.012 C 
ATOM     15  C   LIG A   1       3.480  -0.469   2.384  0.00  0.00    +0.012 C 
ATOM     16  C   LIG A   1       0.930   1.955   0.492  0.00  0.00    +0.002 C 
ATOM     17  C   LIG A   1       0.991   3.410  -0.016  0.00  0.00    +0.005 C 
ATOM     18  C   LIG A   1      -0.327   3.775  -0.688  0.00  0.00    +0.005 C 
ATOM     19  C   LIG A   1      -1.628   3.592   0.148  0.00  0.00    +0.004 C 
ATOM     20  C   LIG A   1      -2.889   3.350  -0.802  0.00  0.00    -0.006 C 
ATOM     21  C   LIG A   1      -2.592   2.336  -1.940  0.00  0.00    +0.014 C 
ATOM     22  C   LIG A   1      -3.257   4.694  -1.487  0.00  0.00    +0.014 C 
ENDROOT
BRANCH   1  23
ATOM     23  O   LIG A   1      -5.200   2.525  -0.909  0.00  0.00    -0.391 OA
ATOM     24  H   LIG A   1      -5.837   1.969  -0.430  0.00  0.00    +0.210 HD
ENDBRANCH   1  23
BRANCH  13  25
ATOM     25  C   LIG A   1       1.139  -1.505  -0.679  0.00  0.00    -0.010 C 
ATOM     26  C   LIG A   1       0.019  -2.134   0.104  0.00  0.00    +0.008 C 
BRANCH  25  27
ATOM     27  C   LIG A   1       1.677  -2.610  -1.694  0.00  0.00    +0.008 C 
BRANCH  27  28
ATOM     28  C   LIG A   1       0.703  -3.330  -2.646  0.00  0.00    +0.031 C 
BRANCH  28  29
ATOM     29  C   LIG A   1      -0.406  -4.209  -2.038  0.00  0.00    -0.072 C 
ATOM     30  C   LIG A   1      -1.667  -3.866  -2.261  0.00  0.00    +0.008 C 
BRANCH  29  31
ATOM     31  C   LIG A   1      -0.115  -5.500  -1.236  0.00  0.00    +0.037 C 
ATOM     32  C   LIG A   1      -0.113  -5.288   0.284  0.00  0.00    +0.014 C 
BRANCH  31  33
ATOM     33  C   LIG A   1       1.138  -6.297  -1.603  0.00  0.00    +0.163 C 
BRANCH  33  34
ATOM     34  O   LIG A   1       1.050  -6.782  -2.937  0.00  0.00    -0.394 OA
ATOM     35  H   LIG A   1       1.958  -6.950  -3.236  0.00  0.00    +0.209 HD
ENDBRANCH  33  34
ENDBRANCH  31  33
ENDBRANCH  29  31
ENDBRANCH  28  29
ENDBRANCH  27  28
ENDBRANCH  25  27
ENDBRANCH  13  25
TORSDOF 8
