REMARK  Name = NuBBE_1511
REMARK  13 active torsions:
REMARK  status: ('A' for Active; 'I' for Inactive)
REMARK    1  A    between atoms: C_1  and  C_2
REMARK    2  A    between atoms: C_9  and  C_12
REMARK    3  A    between atoms: C_13  and  C_18
REMARK    4  A    between atoms: C_18  and  C_19
REMARK    5  A    between atoms: C_24  and  O_26
REMARK    6  A    between atoms: O_26  and  C_27
REMARK    7  A    between atoms: C_27  and  C_29
REMARK    8  A    between atoms: C_30  and  O_39
REMARK    9  A    between atoms: C_32  and  O_35
REMARK   10  A    between atoms: O_35  and  C_36
REMARK   11  A    between atoms: C_36  and  C_38
REMARK   12  A    between atoms: O_39  and  C_40
REMARK   13  A    between atoms: C_40  and  C_42
REMARK                            x       y       z     vdW  Elec       q    Type
REMARK                         _______ _______ _______ _____ _____    ______ ____
ROOT
ATOM      1  C   LIG A   1      -2.293  -0.571  -1.820  0.00  0.00    +0.012 C 
ATOM      2  C   LIG A   1      -0.901  -0.656  -1.103  0.00  0.00    -0.019 C 
ATOM      3  C   LIG A   1      -0.114   0.670  -1.438  0.00  0.00    -0.001 C 
ATOM      4  C   LIG A   1      -0.885   1.934  -0.977  0.00  0.00    -0.003 C 
ATOM      5  C   LIG A   1      -0.140   3.259  -1.317  0.00  0.00    +0.006 C 
ATOM      6  C   LIG A   1       1.394   3.282  -1.086  0.00  0.00    -0.019 C 
ATOM      7  C   LIG A   1       2.071   1.940  -1.425  0.00  0.00    +0.008 C 
ATOM      8  C   LIG A   1       1.339   0.697  -0.929  0.00  0.00    +0.005 C 
ATOM      9  C   LIG A   1       2.021   4.350  -2.026  0.00  0.00    +0.012 C 
ATOM     10  C   LIG A   1       1.534   3.692   0.417  0.00  0.00    +0.061 C 
ATOM     11  C   LIG A   1       0.324   4.605   0.588  0.00  0.00    +0.137 C 
ATOM     12  O   LIG A   1       0.125   5.335   1.550  0.00  0.00    -0.297 OA
ATOM     13  C   LIG A   1      -0.654   4.491  -0.559  0.00  0.00    +0.079 C 
ATOM     14  C   LIG A   1      -1.492   1.803   0.432  0.00  0.00    +0.004 C 
ATOM     15  C   LIG A   1      -1.101   0.558   1.195  0.00  0.00    +0.008 C 
ATOM     16  C   LIG A   1      -1.195  -0.773   0.432  0.00  0.00    +0.040 C 
ATOM     17  C   LIG A   1      -0.373  -1.851   1.168  0.00  0.00    +0.224 C 
ATOM     18  C   LIG A   1      -0.489  -3.195   0.427  0.00  0.00    +0.257 C 
ATOM     19  C   LIG A   1       0.317  -3.026  -0.869  0.00  0.00    +0.221 C 
ATOM     20  C   LIG A   1      -0.212  -1.900  -1.769  0.00  0.00    +0.055 C 
ENDROOT
BRANCH  10  21
ATOM     21  C   LIG A   1       2.872   4.348   0.785  0.00  0.00    +0.008 C 
ATOM     22  C   LIG A   1       3.013   4.715   2.257  0.00  0.00    +0.004 C 
ENDBRANCH  10  21
BRANCH  17  23
ATOM     23  O   LIG A   1      -0.826  -1.967   2.537  0.00  0.00    -0.457 OA
BRANCH  23  24
ATOM     24  C   LIG A   1      -0.113  -1.283   3.496  0.00  0.00    +0.304 C 
ATOM     25  O   LIG A   1       0.891  -0.619   3.296  0.00  0.00    -0.251 OA
ATOM     26  C   LIG A   1      -0.809  -1.358   4.823  0.00  0.00    +0.136 C 
ENDBRANCH  23  24
ENDBRANCH  17  23
BRANCH  19  27
ATOM     27  O   LIG A   1       0.259  -4.235  -1.666  0.00  0.00    -0.458 OA
BRANCH  27  28
ATOM     28  C   LIG A   1       1.105  -5.239  -1.324  0.00  0.00    +0.304 C 
ATOM     29  O   LIG A   1       1.926  -5.191  -0.419  0.00  0.00    -0.251 OA
ATOM     30  C   LIG A   1       0.859  -6.439  -2.187  0.00  0.00    +0.136 C 
ENDBRANCH  27  28
ENDBRANCH  19  27
BRANCH  18  31
ATOM     31  O   LIG A   1      -1.850  -3.553   0.042  0.00  0.00    -0.454 OA
BRANCH  31  32
ATOM     32  C   LIG A   1      -2.504  -4.434   0.846  0.00  0.00    +0.304 C 
ATOM     33  O   LIG A   1      -2.180  -4.711   1.993  0.00  0.00    -0.251 OA
ATOM     34  C   LIG A   1      -3.589  -5.154   0.097  0.00  0.00    +0.136 C 
ENDBRANCH  31  32
ENDBRANCH  18  31
TORSDOF 7
