@<TRIPOS>MOLECULE
NuBBE_1329
 48 51 0 0 0
SMALL
GASTEIGER

@<TRIPOS>ATOM
      1 O          -3.8262   -0.3618    0.5274 O.2     1  LIG1       -0.2444
      2 C          -2.6251   -0.2996    0.3237 C.ar    1  LIG1        0.3486
      3 O          -1.8645   -1.4531    0.2086 O.2     1  LIG1       -0.4213
      4 C          -1.9028    0.9881    0.1410 C.ar    1  LIG1        0.1086
      5 C          -2.7171    2.2256    0.0759 C.ar    1  LIG1       -0.0072
      6 C          -2.9781    2.9661    1.2354 C.ar    1  LIG1       -0.0502
      7 C          -3.8028    4.0963    1.1840 C.ar    1  LIG1       -0.0194
      8 C          -4.3942    4.4936   -0.0162 C.ar    1  LIG1        0.1201
      9 O          -5.1686    5.6194    0.0577 O.3     1  LIG1       -0.4951
     10 C          -6.2475    5.6932   -0.8682 C.3     1  LIG1        0.0788
     11 C          -4.1281    3.7714   -1.1789 C.ar    1  LIG1       -0.0194
     12 C          -3.2941    2.6431   -1.1323 C.ar    1  LIG1       -0.0502
     13 C          -0.5583    1.0089    0.0427 C.ar    1  LIG1        0.1456
     14 O           0.1055    2.2042   -0.1781 O.3     1  LIG1       -0.5051
     15 C           0.2577   -0.2333    0.1321 C.ar    1  LIG1        0.1019
     16 C          -0.4610   -1.4262    0.1600 C.ar    1  LIG1        0.1496
     17 C           0.1545   -2.6701    0.1873 C.ar    1  LIG1        0.0241
     18 C           1.5411   -2.7511    0.2277 C.ar    1  LIG1        0.1359
     19 O           2.0133   -4.0354    0.2849 O.3     1  LIG1       -0.4814
     20 C           3.4277   -4.2757    0.2167 C.3     1  LIG1        0.1235
     21 C           3.7214   -4.9255   -1.1392 C.3     1  LIG1       -0.0215
     22 C           3.7468   -5.2679    1.3440 C.3     1  LIG1       -0.0215
     23 C           4.2728   -3.0478    0.4017 C.2     1  LIG1       -0.0408
     24 C           3.7702   -1.8103    0.4540 C.2     1  LIG1       -0.0478
     25 C           2.3341   -1.5882    0.2625 C.ar    1  LIG1        0.0591
     26 C           1.6850   -0.3177    0.1879 C.ar    1  LIG1        0.1449
     27 O           2.3126    0.9088    0.2796 O.3     1  LIG1       -0.4936
     28 C           3.5660    1.1103   -0.3644 C.3     1  LIG1        0.0788
     29 H          -2.5579    2.6633    2.1910 H       1  LIG1        0.0625
     30 H          -4.0022    4.6602    2.0919 H       1  LIG1        0.0654
     31 H          -6.8529    6.5665   -0.6029 H       1  LIG1        0.0660
     32 H          -6.8900    4.8089   -0.7982 H       1  LIG1        0.0660
     33 H          -5.8910    5.8421   -1.8917 H       1  LIG1        0.0660
     34 H          -4.5425    4.0685   -2.1364 H       1  LIG1        0.0654
     35 H          -3.1078    2.0881   -2.0488 H       1  LIG1        0.0625
     36 H           1.0637    2.0292   -0.1371 H       1  LIG1        0.2922
     37 H          -0.4448   -3.5769    0.2053 H       1  LIG1        0.0691
     38 H           3.1289   -5.8388   -1.2708 H       1  LIG1        0.0271
     39 H           4.7803   -5.1852   -1.2485 H       1  LIG1        0.0271
     40 H           3.4441   -4.2573   -1.9630 H       1  LIG1        0.0271
     41 H           3.1351   -6.1733    1.2565 H       1  LIG1        0.0271
     42 H           3.5146   -4.8332    2.3241 H       1  LIG1        0.0271
     43 H           4.8018   -5.5650    1.3434 H       1  LIG1        0.0271
     44 H           5.3432   -3.1930    0.5282 H       1  LIG1        0.0611
     45 H           4.4444   -1.0006    0.6715 H       1  LIG1        0.0624
     46 H           3.6378    2.1723   -0.6204 H       1  LIG1        0.0660
     47 H           3.6705    0.5321   -1.2869 H       1  LIG1        0.0660
     48 H           4.3845    0.9267    0.3353 H       1  LIG1        0.0660
@<TRIPOS>BOND
     1     1     2    2
     2     2     3   ar
     3     2     4   ar
     4     4     5    1
     5     5     6   ar
     6     6     7   ar
     7     7     8   ar
     8     8     9    1
     9     9    10    1
    10     8    11   ar
    11    11    12   ar
    12     5    12   ar
    13     4    13   ar
    14    13    14    1
    15    13    15   ar
    16    15    16   ar
    17     3    16   ar
    18    16    17   ar
    19    17    18   ar
    20    18    19    1
    21    19    20    1
    22    20    21    1
    23    20    22    1
    24    20    23    1
    25    23    24    2
    26    18    25   ar
    27    24    25    1
    28    25    26   ar
    29    15    26   ar
    30    26    27    1
    31    27    28    1
    32     6    29    1
    33     7    30    1
    34    10    31    1
    35    10    32    1
    36    10    33    1
    37    11    34    1
    38    12    35    1
    39    14    36    1
    40    17    37    1
    41    21    38    1
    42    21    39    1
    43    21    40    1
    44    22    41    1
    45    22    42    1
    46    22    43    1
    47    23    44    1
    48    24    45    1
    49    28    46    1
    50    28    47    1
    51    28    48    1
