@<TRIPOS>MOLECULE
NuBBE_734
 27 27 0 0 0
SMALL
GASTEIGER

@<TRIPOS>ATOM
      1 C          -3.6325    2.7192    0.0324 C.2     1  LIG1       -0.1023
      2 C          -3.2803    1.4434    0.2199 C.2     1  LIG1       -0.0868
      3 C          -2.4278    0.9413    1.3569 C.3     1  LIG1       -0.0096
      4 C          -1.1711    0.2371    0.8978 C.ar    1  LIG1       -0.0400
      5 C           0.0403    0.9336    0.7747 C.ar    1  LIG1       -0.0128
      6 C           1.2112    0.2963    0.3302 C.ar    1  LIG1        0.1617
      7 O           2.2964    1.1343    0.2566 O.3     1  LIG1       -0.4914
      8 C           3.3230    0.7707   -0.6597 C.3     1  LIG1        0.0790
      9 C           1.1796   -1.0741    0.0283 C.ar    1  LIG1        0.1615
     10 O           2.3494   -1.7185   -0.2818 O.3     1  LIG1       -0.4915
     11 C           2.2498   -2.6955   -1.3128 C.3     1  LIG1        0.0790
     12 C          -0.0259   -1.7747    0.1577 C.ar    1  LIG1       -0.0160
     13 C          -1.1909   -1.1246    0.5778 C.ar    1  LIG1       -0.0546
     14 H          -4.2737    2.9995   -0.7998 H       1  LIG1        0.0532
     15 H          -3.3019    3.5120    0.6955 H       1  LIG1        0.0532
     16 H          -3.6516    0.6894   -0.4757 H       1  LIG1        0.0570
     17 H          -3.0273    0.2449    1.9578 H       1  LIG1        0.0355
     18 H          -2.1621    1.7608    2.0361 H       1  LIG1        0.0355
     19 H           0.0822    1.9925    1.0231 H       1  LIG1        0.0658
     20 H           2.9196    0.4019   -1.6096 H       1  LIG1        0.0660
     21 H           4.0067    0.0477   -0.2042 H       1  LIG1        0.0660
     22 H           3.9062    1.6687   -0.8854 H       1  LIG1        0.0660
     23 H           3.2674   -2.9487   -1.6271 H       1  LIG1        0.0660
     24 H           1.7167   -2.3046   -2.1863 H       1  LIG1        0.0660
     25 H           1.7833   -3.6128   -0.9431 H       1  LIG1        0.0660
     26 H          -0.0765   -2.8416   -0.0340 H       1  LIG1        0.0655
     27 H          -2.1101   -1.6982    0.6746 H       1  LIG1        0.0622
@<TRIPOS>BOND
     1     1     2    2
     2     2     3    1
     3     3     4    1
     4     4     5   ar
     5     5     6   ar
     6     6     7    1
     7     7     8    1
     8     6     9   ar
     9     9    10    1
    10    10    11    1
    11     9    12   ar
    12    12    13   ar
    13     4    13   ar
    14     1    14    1
    15     1    15    1
    16     2    16    1
    17     3    17    1
    18     3    18    1
    19     5    19    1
    20     8    20    1
    21     8    21    1
    22     8    22    1
    23    11    23    1
    24    11    24    1
    25    11    25    1
    26    12    26    1
    27    13    27    1
