@<TRIPOS>MOLECULE
NuBBE_1456
 52 56 0 0 0
SMALL
GASTEIGER

@<TRIPOS>ATOM
      1 O          -1.5605    0.8180    0.6461 O.2     1  LIG1       -0.2910
      2 C          -0.4425    0.3456    0.4537 C.2     1  LIG1        0.1813
      3 C          -0.2972   -1.1283    0.3797 C.ar    1  LIG1        0.1018
      4 C          -1.3683   -1.9908    0.6556 C.ar    1  LIG1        0.1415
      5 O          -2.6206   -1.5086    0.9557 O.3     1  LIG1       -0.5052
      6 C          -1.1759   -3.3823    0.6368 C.ar    1  LIG1        0.0588
      7 C           0.0964   -3.8905    0.3486 C.ar    1  LIG1        0.1359
      8 O           0.4027   -5.2224    0.3276 O.3     1  LIG1       -0.4814
      9 C          -0.6560   -6.1896    0.4867 C.3     1  LIG1        0.1235
     10 C          -0.2014   -7.1418    1.5992 C.3     1  LIG1       -0.0215
     11 C          -0.7530   -6.9531   -0.8392 C.3     1  LIG1       -0.0215
     12 C          -2.0097   -5.6238    0.8420 C.2     1  LIG1       -0.0408
     13 C          -2.2604   -4.3142    0.9189 C.2     1  LIG1       -0.0478
     14 C           1.1603   -3.0297    0.0658 C.ar    1  LIG1        0.0234
     15 C           0.9594   -1.6527    0.0581 C.ar    1  LIG1        0.1386
     16 O           2.0474   -0.8779   -0.2646 O.3     1  LIG1       -0.4835
     17 C           1.6538    0.4237   -0.7180 C.3     1  LIG1        0.1478
     18 C           0.8489    1.1352    0.3659 C.3     1  LIG1        0.0909
     19 H           1.3479    1.0333    1.3405 H       1  LIG1        0.0469
     20 C           0.7364    2.6105    0.0649 C.ar    1  LIG1        0.0122
     21 C          -0.1270    3.4426    0.7908 C.ar    1  LIG1       -0.0088
     22 C          -0.2336    4.8147    0.5155 C.ar    1  LIG1        0.1620
     23 O          -1.1232    5.4589    1.3365 O.3     1  LIG1       -0.4914
     24 C          -1.7883    6.5936    0.7971 C.3     1  LIG1        0.0790
     25 C           0.5607    5.3849   -0.4900 C.ar    1  LIG1        0.1650
     26 O           0.4861    6.7367   -0.7001 O.3     1  LIG1       -0.4913
     27 C           0.7967    7.1863   -2.0148 C.3     1  LIG1        0.0790
     28 C           1.4658    4.5684   -1.1794 C.ar    1  LIG1        0.0257
     29 C           1.5660    3.2043   -0.8906 C.ar    1  LIG1        0.1283
     30 O           2.5182    2.5200   -1.6025 O.3     1  LIG1       -0.4879
     31 C           2.8836    1.2597   -1.0346 C.3     1  LIG1        0.1273
     32 H          -2.5989   -0.5257    0.9097 H       1  LIG1        0.2922
     33 H           0.7812   -7.5707    1.3696 H       1  LIG1        0.0271
     34 H          -0.9088   -7.9648    1.7502 H       1  LIG1        0.0271
     35 H          -0.0890   -6.6063    2.5497 H       1  LIG1        0.0271
     36 H           0.2168   -7.3860   -1.1117 H       1  LIG1        0.0271
     37 H          -1.0297   -6.2790   -1.6588 H       1  LIG1        0.0271
     38 H          -1.4909   -7.7616   -0.7950 H       1  LIG1        0.0271
     39 H          -2.8157   -6.3267    1.0366 H       1  LIG1        0.0611
     40 H          -3.2429   -3.9307    1.1721 H       1  LIG1        0.0624
     41 H           2.1402   -3.4410   -0.1624 H       1  LIG1        0.0691
     42 H           1.0691    0.3198   -1.6464 H       1  LIG1        0.0778
     43 H          -0.7500    3.0292    1.5831 H       1  LIG1        0.0659
     44 H          -1.1765    7.4923    0.9177 H       1  LIG1        0.0660
     45 H          -2.7038    6.7452    1.3777 H       1  LIG1        0.0660
     46 H          -2.0848    6.4437   -0.2467 H       1  LIG1        0.0660
     47 H           0.4281    8.2121   -2.1106 H       1  LIG1        0.0660
     48 H           0.2967    6.5802   -2.7783 H       1  LIG1        0.0660
     49 H           1.8793    7.2064   -2.1733 H       1  LIG1        0.0660
     50 H           2.1416    4.9793   -1.9226 H       1  LIG1        0.0692
     51 H           3.5131    1.4179   -0.1490 H       1  LIG1        0.0734
     52 H           3.5124    0.7357   -1.7636 H       1  LIG1        0.0734
@<TRIPOS>BOND
     1     1     2    2
     2     2     3    1
     3     3     4   ar
     4     4     5    1
     5     4     6   ar
     6     6     7   ar
     7     7     8    1
     8     8     9    1
     9     9    10    1
    10     9    11    1
    11     9    12    1
    12    12    13    2
    13     6    13    1
    14     7    14   ar
    15    14    15   ar
    16     3    15   ar
    17    15    16    1
    18    16    17    1
    19    17    18    1
    20    18    19    1
    21     2    18    1
    22    18    20    1
    23    20    21   ar
    24    21    22   ar
    25    22    23    1
    26    23    24    1
    27    22    25   ar
    28    25    26    1
    29    26    27    1
    30    25    28   ar
    31    28    29   ar
    32    20    29   ar
    33    29    30    1
    34    30    31    1
    35    17    31    1
    36     5    32    1
    37    10    33    1
    38    10    34    1
    39    10    35    1
    40    11    36    1
    41    11    37    1
    42    11    38    1
    43    12    39    1
    44    13    40    1
    45    14    41    1
    46    17    42    1
    47    21    43    1
    48    24    44    1
    49    24    45    1
    50    24    46    1
    51    27    47    1
    52    27    48    1
    53    27    49    1
    54    28    50    1
    55    31    51    1
    56    31    52    1
