@<TRIPOS>MOLECULE
NuBBE_1460
 50 54 0 0 0
SMALL
GASTEIGER

@<TRIPOS>ATOM
      1 O          -1.9016   -0.2592    0.0891 O.2     1  LIG1       -0.2863
      2 C          -0.7130    0.0439    0.1589 C.ar    1  LIG1        0.2042
      3 C           0.2947   -1.0294    0.1820 C.ar    1  LIG1        0.1067
      4 C          -0.0646   -2.3864    0.1332 C.ar    1  LIG1        0.1418
      5 O          -1.3812   -2.7806    0.0720 O.3     1  LIG1       -0.5052
      6 C           0.9266   -3.3818    0.1410 C.ar    1  LIG1        0.0588
      7 C           2.2715   -3.0002    0.1994 C.ar    1  LIG1        0.1359
      8 O           3.3160   -3.8815    0.2234 O.3     1  LIG1       -0.4814
      9 C           3.0541   -5.2744   -0.0489 C.3     1  LIG1        0.1235
     10 C           3.6177   -5.5715   -1.4436 C.3     1  LIG1       -0.0215
     11 C           3.8412   -6.0627    1.0046 C.3     1  LIG1       -0.0215
     12 C           1.6011   -5.6813    0.0074 C.2     1  LIG1       -0.0408
     13 C           0.5995   -4.8020    0.1002 C.2     1  LIG1       -0.0478
     14 C           2.6249   -1.6513    0.2609 C.ar    1  LIG1        0.0240
     15 C           1.6360   -0.6702    0.2465 C.ar    1  LIG1        0.1460
     16 O           2.0589    0.6309    0.2933 O.2     1  LIG1       -0.4552
     17 C           1.1103    1.6347    0.2534 C.ar    1  LIG1        0.1543
     18 C          -0.2198    1.4452    0.2022 C.ar    1  LIG1        0.0746
     19 C          -1.0643    2.6533    0.1772 C.ar    1  LIG1        0.0345
     20 C          -2.4417    2.6431    0.4355 C.ar    1  LIG1       -0.0049
     21 C          -3.2057    3.8158    0.3401 C.ar    1  LIG1        0.1623
     22 O          -4.5543    3.8628    0.5970 O.3     1  LIG1       -0.4914
     23 C          -5.2820    2.6690    0.3328 C.3     1  LIG1        0.0790
     24 C          -2.5879    5.0294   -0.0050 C.ar    1  LIG1        0.1650
     25 O          -3.3927    6.1394   -0.0593 O.3     1  LIG1       -0.4913
     26 C          -2.9601    7.1856   -0.9200 C.3     1  LIG1        0.0790
     27 C          -1.2129    5.0555   -0.2375 C.ar    1  LIG1        0.0260
     28 C          -0.4635    3.8818   -0.1308 C.ar    1  LIG1        0.1327
     29 O           0.8787    4.0063   -0.3819 O.3     1  LIG1       -0.4836
     30 C           1.6945    3.0186    0.2596 C.3     1  LIG1        0.1477
     31 H          -1.9467   -1.9759    0.0560 H       1  LIG1        0.2922
     32 H           3.0978   -4.9836   -2.2096 H       1  LIG1        0.0271
     33 H           3.5278   -6.6315   -1.7051 H       1  LIG1        0.0271
     34 H           4.6753   -5.2891   -1.5052 H       1  LIG1        0.0271
     35 H           4.9019   -5.7852    0.9878 H       1  LIG1        0.0271
     36 H           3.7668   -7.1446    0.8492 H       1  LIG1        0.0271
     37 H           3.4792   -5.8339    2.0143 H       1  LIG1        0.0271
     38 H           1.3691   -6.7416   -0.0493 H       1  LIG1        0.0611
     39 H          -0.4393   -5.1127    0.1274 H       1  LIG1        0.0624
     40 H           3.6738   -1.3713    0.3131 H       1  LIG1        0.0691
     41 H          -2.9235    1.7187    0.7329 H       1  LIG1        0.0663
     42 H          -6.3476    2.9173    0.3527 H       1  LIG1        0.0660
     43 H          -5.1035    1.9206    1.1110 H       1  LIG1        0.0660
     44 H          -5.0506    2.2690   -0.6605 H       1  LIG1        0.0660
     45 H          -3.7845    7.8984   -1.0188 H       1  LIG1        0.0660
     46 H          -2.7233    6.8077   -1.9207 H       1  LIG1        0.0660
     47 H          -2.1091    7.7225   -0.4899 H       1  LIG1        0.0660
     48 H          -0.6942    5.9769   -0.4779 H       1  LIG1        0.0692
     49 H           1.9006    3.3399    1.2877 H       1  LIG1        0.0779
     50 H           2.6496    3.0157   -0.2777 H       1  LIG1        0.0779
@<TRIPOS>BOND
     1     1     2    2
     2     2     3   ar
     3     3     4   ar
     4     4     5    1
     5     4     6   ar
     6     6     7   ar
     7     7     8    1
     8     8     9    1
     9     9    10    1
    10     9    11    1
    11     9    12    1
    12    12    13    2
    13     6    13    1
    14     7    14   ar
    15    14    15   ar
    16     3    15   ar
    17    15    16   ar
    18    16    17   ar
    19    17    18   ar
    20     2    18   ar
    21    18    19    1
    22    19    20   ar
    23    20    21   ar
    24    21    22    1
    25    22    23    1
    26    21    24   ar
    27    24    25    1
    28    25    26    1
    29    24    27   ar
    30    27    28   ar
    31    19    28   ar
    32    28    29    1
    33    29    30    1
    34    17    30    1
    35     5    31    1
    36    10    32    1
    37    10    33    1
    38    10    34    1
    39    11    35    1
    40    11    36    1
    41    11    37    1
    42    12    38    1
    43    13    39    1
    44    14    40    1
    45    20    41    1
    46    23    42    1
    47    23    43    1
    48    23    44    1
    49    26    45    1
    50    26    46    1
    51    26    47    1
    52    27    48    1
    53    30    49    1
    54    30    50    1
