REMARK  Name = NuBBE_1049
REMARK  13 active torsions:
REMARK  status: ('A' for Active; 'I' for Inactive)
REMARK    1  A    between atoms: C_1  and  C_2
REMARK    2  A    between atoms: C_6  and  C_29
REMARK    3  A    between atoms: C_7  and  C_8
REMARK    4  A    between atoms: C_9  and  C_11
REMARK    5  A    between atoms: C_11  and  C_13
REMARK    6  A    between atoms: C_11  and  C_14
REMARK    7  A    between atoms: C_15  and  O_17
REMARK    8  A    between atoms: C_18  and  O_20
REMARK    9  A    between atoms: C_21  and  C_22
REMARK   10  A    between atoms: C_21  and  C_23
REMARK   11  A    between atoms: C_34  and  C_35
REMARK   12  A    between atoms: C_34  and  C_41
REMARK   13  A    between atoms: C_36  and  O_40
REMARK                            x       y       z     vdW  Elec       q    Type
REMARK                         _______ _______ _______ _____ _____    ______ ____
ROOT
ATOM      1  C   LIG A   1      -4.661  -0.771   1.609  0.00  0.00    +0.012 C 
ATOM      2  C   LIG A   1      -3.271  -0.608   2.319  0.00  0.00    -0.022 C 
ATOM      3  C   LIG A   1      -2.317   0.083   1.232  0.00  0.00    +0.021 C 
ATOM      4  C   LIG A   1      -1.421  -0.859   0.411  0.00  0.00    -0.063 C 
ATOM      5  C   LIG A   1      -0.565  -0.183  -0.711  0.00  0.00    -0.005 C 
ATOM      6  C   LIG A   1       0.202   1.125  -0.197  0.00  0.00    -0.020 C 
ATOM      7  C   LIG A   1      -0.212   2.427  -0.913  0.00  0.00    +0.012 C 
ATOM      8  C   LIG A   1       1.756   0.791  -0.277  0.00  0.00    +0.001 C 
ATOM      9  C   LIG A   1       1.806  -0.728  -0.447  0.00  0.00    +0.005 C 
ATOM     10  C   LIG A   1       0.589  -1.055  -1.279  0.00  0.00    +0.012 C 
ATOM     11  C   LIG A   1      -0.091   1.356   1.315  0.00  0.00    +0.008 C 
ATOM     12  C   LIG A   1      -1.571   1.361   1.665  0.00  0.00    +0.009 C 
ATOM     13  C   LIG A   1      -1.534   0.060  -1.894  0.00  0.00    +0.016 C 
ATOM     14  C   LIG A   1      -1.492  -2.188   0.585  0.00  0.00    -0.026 C 
ATOM     15  C   LIG A   1      -2.406  -2.886   1.539  0.00  0.00    +0.031 C 
ATOM     16  C   LIG A   1      -2.800  -2.047   2.762  0.00  0.00    +0.007 C 
ATOM     17  C   LIG A   1      -1.795  -2.107   3.994  0.00  0.00    -0.005 C 
ATOM     18  C   LIG A   1      -0.536  -2.976   3.753  0.00  0.00    +0.014 C 
ATOM     19  C   LIG A   1      -1.329  -0.692   4.400  0.00  0.00    +0.120 C 
ATOM     20  C   LIG A   1      -2.484   0.266   4.658  0.00  0.00    +0.032 C 
ATOM     21  C   LIG A   1      -3.572   0.238   3.586  0.00  0.00    +0.010 C 
ATOM     22  C   LIG A   1      -2.538  -2.772   5.188  0.00  0.00    +0.014 C 
ENDROOT
BRANCH   8  23
ATOM     23  C   LIG A   1       2.712   1.614  -1.207  0.00  0.00    +0.021 C 
ATOM     24  C   LIG A   1       4.176   1.244  -0.881  0.00  0.00    +0.010 C 
BRANCH  23  25
ATOM     25  C   LIG A   1       2.459   1.553  -2.725  0.00  0.00    +0.153 C 
ATOM     26  C   LIG A   1       3.312   2.501  -3.564  0.00  0.00    +0.175 C 
ATOM     27  C   LIG A   1       2.992   1.990  -4.963  0.00  0.00    +0.177 C 
ATOM     28  C   LIG A   1       2.867   0.463  -4.742  0.00  0.00    +0.093 C 
ATOM     29  C   LIG A   1       4.086  -0.344  -5.176  0.00  0.00    +0.044 C 
ATOM     30  C   LIG A   1       1.606  -0.076  -5.423  0.00  0.00    +0.044 C 
ATOM     31  O   LIG A   1       2.720   0.267  -3.309  0.00  0.00    -0.365 OA
BRANCH  26  32
ATOM     32  O   LIG A   1       2.969   3.868  -3.399  0.00  0.00    -0.387 OA
ATOM     33  H   LIG A   1       3.373   4.347  -4.147  0.00  0.00    +0.210 HD
ENDBRANCH  26  32
BRANCH  27  34
ATOM     34  O   LIG A   1       3.969   2.408  -5.911  0.00  0.00    -0.386 OA
ATOM     35  H   LIG A   1       4.842   2.090  -5.620  0.00  0.00    +0.210 HD
ENDBRANCH  27  34
ENDBRANCH  23  25
ENDBRANCH   8  23
BRANCH  19  36
ATOM     36  O   LIG A   1      -0.513  -0.732   5.573  0.00  0.00    -0.391 OA
ATOM     37  H   LIG A   1      -0.143   0.158   5.699  0.00  0.00    +0.210 HD
ENDBRANCH  19  36
TORSDOF 5
