REMARK  Name = NuBBE_1395
REMARK  4 active torsions:
REMARK  status: ('A' for Active; 'I' for Inactive)
REMARK    1  A    between atoms: C_1  and  O_3
REMARK    2  A    between atoms: C_1  and  C_4
REMARK    3  A    between atoms: C_7  and  O_12
REMARK    4  A    between atoms: N_10  and  C_11
REMARK                            x       y       z     vdW  Elec       q    Type
REMARK                         _______ _______ _______ _____ _____    ______ ____
ROOT
ATOM      1  C   LIG A   1      -0.753   0.321  -0.333  0.00  0.00    +0.168 C 
ATOM      2  C   LIG A   1      -0.181   1.543   0.394  0.00  0.00    +0.063 C 
ATOM      3  C   LIG A   1       0.966   1.000   1.246  0.00  0.00    +0.131 C 
ATOM      4  C   LIG A   1       1.201  -0.423   0.745  0.00  0.00    +0.116 C 
ATOM      5  N   LIG A   1      -0.164  -0.834   0.384  0.00  0.00    -0.290 NA
ATOM      6  C   LIG A   1      -0.197  -2.098  -0.336  0.00  0.00    +0.105 C 
ENDROOT
BRANCH   1   7
ATOM      7  C   LIG A   1      -0.389   0.401  -1.826  0.00  0.00    +0.322 C 
ATOM      8  O   LIG A   1       0.749   0.356  -2.274  0.00  0.00    -0.249 OA
BRANCH   7   9
ATOM      9  O   LIG A   1      -1.462   0.562  -2.637  0.00  0.00    -0.479 OA
ATOM     10  H   LIG A   1      -2.323   0.586  -2.179  0.00  0.00    +0.295 HD
ENDBRANCH   7   9
ENDBRANCH   1   7
BRANCH   3  11
ATOM     11  O   LIG A   1       0.546   0.973   2.614  0.00  0.00    -0.391 OA
ATOM     12  H   LIG A   1      -0.103   0.247   2.679  0.00  0.00    +0.210 HD
ENDBRANCH   3  11
TORSDOF 3
