REMARK  Name = NuBBE_443
REMARK  12 active torsions:
REMARK  status: ('A' for Active; 'I' for Inactive)
REMARK    1  A    between atoms: C_4  and  O_15
REMARK    2  A    between atoms: C_7  and  O_14
REMARK    3  A    between atoms: C_9  and  C_11
REMARK    4  A    between atoms: C_11  and  O_12
REMARK    5  A    between atoms: O_15  and  C_16
REMARK    6  A    between atoms: C_19  and  C_27
REMARK    7  A    between atoms: C_21  and  O_26
REMARK    8  A    between atoms: C_23  and  O_25
REMARK    9  A    between atoms: C_27  and  O_28
REMARK   10  A    between atoms: C_29  and  O_31
REMARK   11  A    between atoms: C_35  and  C_37
REMARK   12  A    between atoms: C_37  and  O_38
REMARK                            x       y       z     vdW  Elec       q    Type
REMARK                         _______ _______ _______ _____ _____    ______ ____
ROOT
ATOM      1  C   LIG A   1      -0.125   2.037  -2.598  0.00  0.00    +0.038 C 
ATOM      2  C   LIG A   1      -0.628   0.728  -1.943  0.00  0.00    +0.062 C 
ATOM      3  C   LIG A   1      -0.392   0.719  -0.410  0.00  0.00    +0.261 C 
ATOM      4  O   LIG A   1      -0.873   1.919   0.181  0.00  0.00    -0.322 OA
ATOM      5  C   LIG A   1      -0.145   3.054  -0.275  0.00  0.00    +0.264 C 
ATOM      6  C   LIG A   1      -0.440   3.272  -1.749  0.00  0.00    +0.161 C 
ATOM      7  C   LIG A   1       1.313   1.673  -2.878  0.00  0.00    -0.026 C 
ATOM      8  C   LIG A   1       1.481   0.345  -2.925  0.00  0.00    -0.025 C 
ATOM      9  C   LIG A   1       0.205  -0.393  -2.620  0.00  0.00    +0.045 C 
ENDROOT
BRANCH   6  10
ATOM     10  C   LIG A   1       0.275   4.499  -2.251  0.00  0.00    +0.313 C 
ATOM     11  O   LIG A   1       1.474   4.694  -2.258  0.00  0.00    -0.251 OA
BRANCH  10  12
ATOM     12  O   LIG A   1      -0.569   5.419  -2.766  0.00  0.00    -0.480 OA
ATOM     13  H   LIG A   1       0.009   6.161  -3.038  0.00  0.00    +0.295 HD
ENDBRANCH  10  12
ENDBRANCH   6  10
BRANCH   5  14
ATOM     14  O   LIG A   1      -0.622   4.162   0.474  0.00  0.00    -0.366 OA
ATOM     15  H   LIG A   1      -0.432   3.941   1.401  0.00  0.00    +0.212 HD
ENDBRANCH   5  14
BRANCH   3  16
ATOM     16  O   LIG A   1      -1.079  -0.420   0.116  0.00  0.00    -0.320 OA
BRANCH  16  17
ATOM     17  C   LIG A   1      -0.961  -0.559   1.538  0.00  0.00    +0.285 C 
ATOM     18  O   LIG A   1       0.435  -0.716   1.853  0.00  0.00    -0.340 OA
ATOM     19  C   LIG A   1       0.669  -1.523   3.007  0.00  0.00    +0.178 C 
ATOM     20  C   LIG A   1       0.272  -2.991   2.734  0.00  0.00    +0.177 C 
ATOM     21  C   LIG A   1      -0.951  -3.068   1.801  0.00  0.00    +0.179 C 
ATOM     22  C   LIG A   1      -1.813  -1.799   1.947  0.00  0.00    +0.201 C 
BRANCH  21  23
ATOM     23  O   LIG A   1      -0.526  -3.257   0.442  0.00  0.00    -0.386 OA
ATOM     24  H   LIG A   1      -0.160  -2.406   0.131  0.00  0.00    +0.210 HD
ENDBRANCH  21  23
BRANCH  20  25
ATOM     25  O   LIG A   1      -0.027  -3.651   3.972  0.00  0.00    -0.387 OA
ATOM     26  H   LIG A   1       0.779  -3.557   4.524  0.00  0.00    +0.210 HD
ENDBRANCH  20  25
BRANCH  22  27
ATOM     27  O   LIG A   1      -2.285  -1.655   3.297  0.00  0.00    -0.384 OA
ATOM     28  H   LIG A   1      -2.425  -2.548   3.667  0.00  0.00    +0.210 HD
ENDBRANCH  22  27
BRANCH  19  29
ATOM     29  C   LIG A   1       2.152  -1.424   3.382  0.00  0.00    +0.190 C 
BRANCH  29  30
ATOM     30  O   LIG A   1       2.445  -2.246   4.508  0.00  0.00    -0.392 OA
ATOM     31  H   LIG A   1       3.376  -2.074   4.742  0.00  0.00    +0.209 HD
ENDBRANCH  29  30
ENDBRANCH  19  29
ENDBRANCH  16  17
ENDBRANCH   3  16
BRANCH   9  32
ATOM     32  C   LIG A   1      -0.434  -0.955  -3.896  0.00  0.00    +0.164 C 
BRANCH  32  33
ATOM     33  O   LIG A   1      -1.644  -1.644  -3.603  0.00  0.00    -0.394 OA
ATOM     34  H   LIG A   1      -1.413  -2.486  -3.172  0.00  0.00    +0.209 HD
ENDBRANCH  32  33
ENDBRANCH   9  32
TORSDOF 12
