REMARK  Name = NuBBE_135
REMARK  6 active torsions:
REMARK  status: ('A' for Active; 'I' for Inactive)
REMARK    1  A    between atoms: O_1  and  C_2
REMARK    2  A    between atoms: C_2  and  C_3
REMARK    3  A    between atoms: C_4  and  C_5
REMARK    4  A    between atoms: C_7  and  O_8
REMARK    5  A    between atoms: O_8  and  C_9
REMARK    6  A    between atoms: C_10  and  O_13
REMARK                            x       y       z     vdW  Elec       q    Type
REMARK                         _______ _______ _______ _____ _____    ______ ____
ROOT
ATOM      1  C   LIG A   1       0.131  -0.455   0.241  0.00  0.00    -0.021 A 
ATOM      2  C   LIG A   1       0.117   0.874  -0.222  0.00  0.00    +0.057 A 
ATOM      3  C   LIG A   1       0.627   1.192  -1.483  0.00  0.00    +0.162 A 
ATOM      4  C   LIG A   1       1.166   0.170  -2.271  0.00  0.00    +0.159 A 
ATOM      5  C   LIG A   1       1.211  -1.143  -1.825  0.00  0.00    +0.050 A 
ATOM      6  C   LIG A   1       0.699  -1.453  -0.566  0.00  0.00    +0.012 A 
ENDROOT
BRANCH   1   8
ATOM      7  C   LIG A   1      -0.965  -1.923   1.916  0.00  0.00    +0.092 C 
ATOM      8  C   LIG A   1      -0.408  -0.750   1.578  0.00  0.00    +0.015 C 
BRANCH   7   9
ATOM      9  C   LIG A   1      -1.477  -2.133   3.275  0.00  0.00    +0.330 C 
ATOM     10  O   LIG A   1      -1.488  -1.341   4.195  0.00  0.00    -0.246 OA
BRANCH   9  11
ATOM     11  O   LIG A   1      -1.957  -3.382   3.393  0.00  0.00    -0.477 OA
ATOM     12  H   LIG A   1      -2.267  -3.430   4.321  0.00  0.00    +0.295 HD
ENDBRANCH   9  11
ENDBRANCH   7   9
ENDBRANCH   1   8
BRANCH   3  13
ATOM     13  O   LIG A   1       0.657   2.437  -2.058  0.00  0.00    -0.491 OA
ATOM     14  C   LIG A   1       0.116   3.508  -1.292  0.00  0.00    +0.277 C 
ENDBRANCH   3  13
BRANCH   4  15
ATOM     15  O   LIG A   1       1.674   0.446  -3.511  0.00  0.00    -0.503 OA
ATOM     16  H   LIG A   1       1.551   1.409  -3.623  0.00  0.00    +0.292 HD
ENDBRANCH   4  15
TORSDOF 5
