REMARK  Name = NuBBE_2283
REMARK  6 active torsions:
REMARK  status: ('A' for Active; 'I' for Inactive)
REMARK    1  A    between atoms: C_1  and  C_2
REMARK    2  A    between atoms: C_1  and  C_4
REMARK    3  A    between atoms: C_9  and  O_12
REMARK    4  A    between atoms: O_12  and  C_13
REMARK    5  A    between atoms: C_15  and  C_20
REMARK    6  A    between atoms: C_17  and  C_19
REMARK                            x       y       z     vdW  Elec       q    Type
REMARK                         _______ _______ _______ _____ _____    ______ ____
ROOT
ATOM      1  C   LIG A   1      -1.049   0.976   0.420  0.00  0.00    +0.041 C 
ATOM      2  C   LIG A   1       0.388   1.286   0.683  0.00  0.00    +0.109 C 
ATOM      3  C   LIG A   1       1.002   2.431   0.360  0.00  0.00    +0.090 C 
ATOM      4  C   LIG A   1       0.244   3.515  -0.302  0.00  0.00    +0.188 C 
ATOM      5  O   LIG A   1       0.763   4.641  -0.344  0.00  0.00    -0.290 OA
ATOM      6  C   LIG A   1      -1.156   3.220  -0.890  0.00  0.00    +0.189 C 
ATOM      7  C   LIG A   1      -1.494   1.721  -0.856  0.00  0.00    +0.055 C 
ATOM      8  O   LIG A   1       1.095   0.224   1.198  0.00  0.00    -0.487 OA
ATOM      9  C   LIG A   1       0.320  -0.971   0.919  0.00  0.00    +0.207 C 
ATOM     10  C   LIG A   1      -0.925  -0.533   0.128  0.00  0.00    +0.045 C 
ATOM     11  C   LIG A   1      -2.171  -1.385   0.356  0.00  0.00    +0.012 C 
ENDROOT
BRANCH   9  12
ATOM     12  C   LIG A   1       1.203  -1.940   0.140  0.00  0.00    -0.003 A 
ATOM     13  C   LIG A   1       1.012  -3.327   0.260  0.00  0.00    +0.056 A 
ATOM     14  C   LIG A   1       1.839  -4.167  -0.464  0.00  0.00    +0.167 A 
ATOM     15  C   LIG A   1       2.825  -3.685  -1.293  0.00  0.00    +0.166 A 
ATOM     16  C   LIG A   1       3.041  -2.337  -1.449  0.00  0.00    +0.050 A 
ATOM     17  C   LIG A   1       2.219  -1.463  -0.731  0.00  0.00    +0.011 A 
ATOM     18  O   LIG A   1       3.526  -4.676  -1.904  0.00  0.00    -0.453 OA
ATOM     19  C   LIG A   1       2.871  -5.841  -1.365  0.00  0.00    +0.466 C 
ATOM     20  O   LIG A   1       1.798  -5.527  -0.452  0.00  0.00    -0.453 OA
ENDBRANCH   9  12
BRANCH   6  21
ATOM     21  O   LIG A   1      -1.346   3.591  -2.261  0.00  0.00    -0.372 OA
ATOM     22  C   LIG A   1      -1.163   4.969  -2.544  0.00  0.00    +0.195 C 
ENDBRANCH   6  21
BRANCH   1  23
ATOM     23  C   LIG A   1      -1.919   1.401   1.650  0.00  0.00    +0.041 C 
BRANCH  23  24
ATOM     24  C   LIG A   1      -1.631   0.758   2.987  0.00  0.00    -0.034 C 
ATOM     25  C   LIG A   1      -0.872   1.291   3.954  0.00  0.00    +0.004 C 
ENDBRANCH  23  24
ENDBRANCH   1  23
TORSDOF 4
