REMARK  Name = NuBBE_411
REMARK  3 active torsions:
REMARK  status: ('A' for Active; 'I' for Inactive)
REMARK    1  A    between atoms: C_1  and  C_2
REMARK    2  A    between atoms: C_4  and  O_5
REMARK    3  A    between atoms: C_15  and  O_16
REMARK                            x       y       z     vdW  Elec       q    Type
REMARK                         _______ _______ _______ _____ _____    ______ ____
ROOT
ATOM      1  C   LIG A   1      -4.499   1.240   0.006  0.00  0.00    +0.044 C 
ATOM      2  C   LIG A   1      -2.999   1.234   0.004  0.00  0.00    -0.046 A 
ATOM      3  C   LIG A   1      -2.264   2.422   0.002  0.00  0.00    +0.049 A 
ATOM      4  C   LIG A   1      -0.863   2.390  -0.000  0.00  0.00    +0.129 A 
ATOM      5  C   LIG A   1      -2.313   0.017   0.004  0.00  0.00    +0.016 A 
ATOM      6  C   LIG A   1      -0.909  -0.014   0.002  0.00  0.00    +0.037 A 
ATOM      7  C   LIG A   1      -0.167   1.170   0.000  0.00  0.00    +0.074 A 
ATOM      8  C   LIG A   1       1.321   1.095  -0.001  0.00  0.00    +0.198 C 
ATOM      9  C   LIG A   1       1.979  -0.231  -0.002  0.00  0.00    +0.033 A 
ATOM     10  C   LIG A   1       1.224  -1.400  -0.001  0.00  0.00    +0.036 A 
ATOM     11  C   LIG A   1      -0.244  -1.331   0.002  0.00  0.00    +0.195 C 
ATOM     12  O   LIG A   1      -0.906  -2.364   0.004  0.00  0.00    -0.287 OA
ATOM     13  C   LIG A   1       1.851  -2.654  -0.002  0.00  0.00    +0.057 A 
ATOM     14  C   LIG A   1       3.239  -2.721  -0.004  0.00  0.00    +0.118 A 
ATOM     15  C   LIG A   1       4.007  -1.562  -0.005  0.00  0.00    +0.046 A 
ATOM     16  C   LIG A   1       3.379  -0.315  -0.004  0.00  0.00    +0.016 A 
ATOM     17  O   LIG A   1       2.034   2.091  -0.002  0.00  0.00    -0.286 OA
ENDROOT
BRANCH   4  18
ATOM     18  O   LIG A   1      -0.192   3.580  -0.003  0.00  0.00    -0.506 OA
ATOM     19  H   LIG A   1      -0.813   4.325  -0.007  0.00  0.00    +0.292 HD
ENDBRANCH   4  18
BRANCH  14  20
ATOM     20  O   LIG A   1       3.891  -3.917  -0.005  0.00  0.00    -0.507 OA
ATOM     21  H   LIG A   1       3.236  -4.636  -0.004  0.00  0.00    +0.292 HD
ENDBRANCH  14  20
TORSDOF 2
