@<TRIPOS>MOLECULE
NuBBE_511
 46 47 0 0 0
SMALL
GASTEIGER

@<TRIPOS>ATOM
      1 O          -0.4299    2.4290    2.6190 O.2     1  LIG1       -0.2456
      2 C           0.1422    2.4260    1.5320 C.2     1  LIG1        0.3323
      3 C           1.4034    3.1679    1.2764 C.2     1  LIG1        0.0231
      4 C           2.2212    3.1947    0.2127 C.2     1  LIG1       -0.0477
      5 C           2.1431    2.5137   -1.0960 C.ar    1  LIG1       -0.0211
      6 C           2.7468    1.2610   -1.2965 C.ar    1  LIG1       -0.0094
      7 C           2.7421    0.6835   -2.5706 C.ar    1  LIG1        0.1588
      8 O           3.3139   -0.5355   -2.8192 O.3     1  LIG1       -0.5033
      9 C           2.1534    1.3428   -3.6460 C.ar    1  LIG1        0.1582
     10 O           2.1634    0.7877   -4.8943 O.3     1  LIG1       -0.5033
     11 C           1.5532    2.5775   -3.4645 C.ar    1  LIG1       -0.0160
     12 C           1.5505    3.1635   -2.1914 C.ar    1  LIG1       -0.0509
     13 O          -0.1829    1.6924    0.4547 O.3     1  LIG1       -0.4555
     14 C          -1.1941    0.6731    0.5951 C.3     1  LIG1        0.1346
     15 H          -2.0516    1.0700    1.1534 H       1  LIG1        0.0762
     16 C          -0.5597   -0.5258    1.3134 C.3     1  LIG1        0.0264
     17 C          -1.4527   -1.7692    1.2943 C.3     1  LIG1        0.1678
     18 O          -2.6447   -1.4746    2.0377 O.3     1  LIG1       -0.3772
     19 C          -0.6630   -2.9524    1.8911 C.2     1  LIG1        0.3391
     20 O          -0.8814   -3.0118    3.2386 O.3     1  LIG1       -0.4659
     21 C          -0.1086   -4.0083    3.9107 C.3     1  LIG1        0.0818
     22 O           0.0778   -3.7001    1.2628 O.2     1  LIG1       -0.2476
     23 C          -1.8977   -2.1258   -0.1307 C.3     1  LIG1        0.0153
     24 C          -2.5445   -0.9424   -0.8444 C.3     1  LIG1        0.0877
     25 H          -2.7743   -1.2145   -1.8805 H       1  LIG1        0.0621
     26 O          -3.8008   -0.5926   -0.2458 O.3     1  LIG1       -0.3890
     27 C          -1.6294    0.2880   -0.8329 C.3     1  LIG1        0.1180
     28 H          -0.7406    0.0952   -1.4458 H       1  LIG1        0.0656
     29 O          -2.3274    1.3821   -1.4422 O.3     1  LIG1       -0.3856
     30 H           1.6896    3.7524    2.1505 H       1  LIG1        0.0689
     31 H           3.1112    3.8203    0.2961 H       1  LIG1        0.0626
     32 H           3.2340    0.7575   -0.4678 H       1  LIG1        0.0661
     33 H           3.6597   -0.8884   -1.9821 H       1  LIG1        0.2923
     34 H           2.6348   -0.0620   -4.7934 H       1  LIG1        0.2923
     35 H           1.0928    3.0836   -4.3081 H       1  LIG1        0.0655
     36 H           1.0908    4.1418   -2.0748 H       1  LIG1        0.0625
     37 H          -0.3425   -0.2383    2.3513 H       1  LIG1        0.0335
     38 H           0.4214   -0.7411    0.8658 H       1  LIG1        0.0335
     39 H          -2.5253   -1.8753    2.9243 H       1  LIG1        0.2109
     40 H          -0.4547   -5.0081    3.6333 H       1  LIG1        0.0661
     41 H          -0.2503   -3.8741    4.9865 H       1  LIG1        0.0661
     42 H           0.9572   -3.8894    3.6887 H       1  LIG1        0.0661
     43 H          -2.6214   -2.9492   -0.0807 H       1  LIG1        0.0324
     44 H          -1.0414   -2.4710   -0.7232 H       1  LIG1        0.0324
     45 H          -3.7191   -0.7309    0.7231 H       1  LIG1        0.2099
     46 H          -3.2642    1.2769   -1.1805 H       1  LIG1        0.2100
@<TRIPOS>BOND
     1     1     2    2
     2     2     3    1
     3     3     4    2
     4     4     5    1
     5     5     6   ar
     6     6     7   ar
     7     7     8    1
     8     7     9   ar
     9     9    10    1
    10     9    11   ar
    11    11    12   ar
    12     5    12   ar
    13     2    13    1
    14    14    16    1
    15    16    17    1
    16    17    18    1
    17    17    19    1
    18    19    20    1
    19    20    21    1
    20    19    22    2
    21    17    23    1
    22    23    24    1
    23    24    27    1
    24    14    27    1
    25    14    15    1
    26    14    13    1
    27    24    26    1
    28    24    25    1
    29    27    29    1
    30    27    28    1
    31     3    30    1
    32     4    31    1
    33     6    32    1
    34     8    33    1
    35    10    34    1
    36    11    35    1
    37    12    36    1
    38    16    37    1
    39    16    38    1
    40    18    39    1
    41    21    40    1
    42    21    41    1
    43    21    42    1
    44    23    43    1
    45    23    44    1
    46    26    45    1
    47    29    46    1
