@<TRIPOS>MOLECULE
NuBBE_968
 43 43 0 0 0
SMALL
GASTEIGER

@<TRIPOS>ATOM
      1 C           1.3039    3.6485    0.3317 C.3     1  LIG1       -0.0361
      2 C           0.8847    2.3897    1.1046 C.3     1  LIG1        0.0633
      3 C           0.8308    1.1182    0.1871 C.3     1  LIG1       -0.0121
      4 H           1.8583    0.9408   -0.1637 H       1  LIG1        0.0328
      5 C           0.3961   -0.1529    0.9662 C.3     1  LIG1       -0.0402
      6 C          -0.4569   -1.1890    0.1857 C.3     1  LIG1       -0.0089
      7 H          -0.2055   -2.1721    0.6081 H       1  LIG1        0.0355
      8 C          -1.9482   -1.0124    0.5607 C.2     1  LIG1       -0.0757
      9 C          -2.3717   -1.7629    1.8049 C.3     1  LIG1       -0.0437
     10 C          -2.8724   -0.2931   -0.0879 C.2     1  LIG1       -0.0994
     11 C          -0.0280   -1.2471   -1.3233 C.3     1  LIG1        0.0181
     12 C          -0.1972    0.1421   -1.9922 C.3     1  LIG1       -0.0409
     13 C          -0.0178    1.3525   -1.0719 C.3     1  LIG1       -0.0467
     14 C          -0.8742   -2.2776   -2.1269 C.3     1  LIG1        0.0538
     15 O          -0.7891   -3.5892   -1.5737 O.3     1  LIG1       -0.3941
     16 C           1.4600   -1.6490   -1.5109 C.2     1  LIG1       -0.0822
     17 C           2.2408   -2.3681   -0.6916 C.2     1  LIG1       -0.1020
     18 C           1.8503    2.2084    2.2850 C.3     1  LIG1       -0.0361
     19 O          -0.4183    2.6737    1.6267 O.3     1  LIG1       -0.3888
     20 H           2.2680    3.5141   -0.1681 H       1  LIG1        0.0257
     21 H           1.3810    4.5092    1.0069 H       1  LIG1        0.0257
     22 H           0.5526    3.9354   -0.4119 H       1  LIG1        0.0257
     23 H          -0.1097    0.1018    1.9022 H       1  LIG1        0.0275
     24 H           1.3188   -0.6474    1.3015 H       1  LIG1        0.0275
     25 H          -3.4439   -1.6519    2.0091 H       1  LIG1        0.0274
     26 H          -1.8323   -1.3939    2.6830 H       1  LIG1        0.0274
     27 H          -2.1742   -2.8335    1.6934 H       1  LIG1        0.0274
     28 H          -3.8971   -0.2317    0.2739 H       1  LIG1        0.0534
     29 H          -2.6777    0.2822   -0.9824 H       1  LIG1        0.0534
     30 H          -1.1803    0.2248   -2.4721 H       1  LIG1        0.0275
     31 H           0.4967    0.2472   -2.8379 H       1  LIG1        0.0275
     32 H          -1.0007    1.7361   -0.7798 H       1  LIG1        0.0269
     33 H           0.4316    2.1447   -1.6824 H       1  LIG1        0.0269
     34 H          -0.5331   -2.3255   -3.1687 H       1  LIG1        0.0566
     35 H          -1.9331   -1.9997   -2.1498 H       1  LIG1        0.0566
     36 H          -1.0371   -4.2092   -2.2804 H       1  LIG1        0.2094
     37 H           1.9266   -1.3180   -2.4393 H       1  LIG1        0.0573
     38 H           1.8817   -2.7953    0.2383 H       1  LIG1        0.0532
     39 H           3.2764   -2.5671   -0.9508 H       1  LIG1        0.0532
     40 H           2.8783    2.0561    1.9406 H       1  LIG1        0.0257
     41 H           1.5681    1.3636    2.9209 H       1  LIG1        0.0257
     42 H           1.8313    3.0903    2.9366 H       1  LIG1        0.0257
     43 H          -0.6377    2.0070    2.2984 H       1  LIG1        0.2101
@<TRIPOS>BOND
     1     1     2    1
     2     2     3    1
     3     3     4    1
     4     3     5    1
     5     5     6    1
     6     8     9    1
     7     8    10    2
     8     6    11    1
     9    11    12    1
    10    12    13    1
    11     3    13    1
    12    11    14    1
    13    14    15    1
    14    11    16    1
    15    16    17    2
    16     2    18    1
    17     2    19    1
    18     6     8    1
    19     6     7    1
    20     1    20    1
    21     1    21    1
    22     1    22    1
    23     5    23    1
    24     5    24    1
    25     9    25    1
    26     9    26    1
    27     9    27    1
    28    10    28    1
    29    10    29    1
    30    12    30    1
    31    12    31    1
    32    13    32    1
    33    13    33    1
    34    14    34    1
    35    14    35    1
    36    15    36    1
    37    16    37    1
    38    17    38    1
    39    17    39    1
    40    18    40    1
    41    18    41    1
    42    18    42    1
    43    19    43    1
