REMARK  Name = NuBBE_1897
REMARK  10 active torsions:
REMARK  status: ('A' for Active; 'I' for Inactive)
REMARK    1  A    between atoms: C_1  and  C_2
REMARK    2  A    between atoms: C_2  and  O_3
REMARK    3  A    between atoms: C_2  and  C_4
REMARK    4  A    between atoms: C_2  and  C_23
REMARK    5  A    between atoms: C_6  and  O_22
REMARK    6  A    between atoms: C_11  and  C_12
REMARK    7  A    between atoms: C_12  and  O_13
REMARK    8  A    between atoms: C_16  and  C_17
REMARK    9  A    between atoms: C_17  and  O_18
REMARK   10  A    between atoms: O_18  and  C_19
REMARK                            x       y       z     vdW  Elec       q    Type
REMARK                         _______ _______ _______ _____ _____    ______ ____
ROOT
ATOM      1  C   LIG A   1       0.196   1.218  -1.469  0.00  0.00    +0.061 C 
ATOM      2  C   LIG A   1      -0.481  -0.138  -1.693  0.00  0.00    +0.191 C 
ATOM      3  C   LIG A   1       0.247  -1.194  -0.880  0.00  0.00    +0.192 C 
ATOM      4  C   LIG A   1       0.349  -0.959   0.576  0.00  0.00    +0.029 A 
ATOM      5  C   LIG A   1       0.341   0.386   1.020  0.00  0.00    -0.031 A 
ATOM      6  C   LIG A   1       0.453   0.649   2.407  0.00  0.00    -0.018 A 
ATOM      7  C   LIG A   1       0.575  -0.428   3.298  0.00  0.00    +0.006 A 
ATOM      8  C   LIG A   1       0.581  -1.744   2.843  0.00  0.00    +0.007 A 
ATOM      9  C   LIG A   1       0.435  -2.039   1.482  0.00  0.00    -0.011 A 
ATOM     10  C   LIG A   1       0.165   1.537   0.048  0.00  0.00    +0.045 C 
ATOM     11  O   LIG A   1       0.724  -2.198  -1.418  0.00  0.00    -0.289 OA
ENDROOT
BRANCH   1  13
ATOM     12  C   LIG A   1      -0.362   2.188  -3.825  0.00  0.00    +0.041 C 
ATOM     13  C   LIG A   1      -0.425   2.392  -2.303  0.00  0.00    +0.066 C 
ATOM     14  C   LIG A   1       0.264   3.735  -2.000  0.00  0.00    +0.041 C 
BRANCH  13  15
ATOM     15  O   LIG A   1      -1.798   2.550  -1.921  0.00  0.00    -0.389 OA
ATOM     16  H   LIG A   1      -2.333   1.945  -2.466  0.00  0.00    +0.210 HD
ENDBRANCH  13  15
ENDBRANCH   1  13
BRANCH   2  17
ATOM     17  O   LIG A   1      -0.415  -0.532  -3.063  0.00  0.00    -0.384 OA
ATOM     18  H   LIG A   1      -0.026  -1.434  -3.079  0.00  0.00    +0.210 HD
ENDBRANCH   2  17
BRANCH   6  19
ATOM     19  C   LIG A   1       0.414   2.039   2.999  0.00  0.00    +0.191 C 
BRANCH  19  20
ATOM     20  O   LIG A   1      -0.924   2.419   3.277  0.00  0.00    -0.390 OA
ATOM     21  H   LIG A   1      -1.386   2.504   2.427  0.00  0.00    +0.210 HD
ENDBRANCH  19  20
ENDBRANCH   6  19
BRANCH   9  22
ATOM     22  C   LIG A   1       0.387  -3.489   1.040  0.00  0.00    +0.195 C 
BRANCH  22  23
ATOM     23  O   LIG A   1      -0.169  -4.301   2.083  0.00  0.00    -0.378 OA
ATOM     24  C   LIG A   1      -0.276  -5.661   1.689  0.00  0.00    +0.194 C 
ENDBRANCH  22  23
ENDBRANCH   9  22
TORSDOF 7
