REMARK  Name = NuBBE_1229
REMARK  15 active torsions:
REMARK  status: ('A' for Active; 'I' for Inactive)
REMARK    1  A    between atoms: C_1  and  C_2
REMARK    2  A    between atoms: C_9  and  O_11
REMARK    3  A    between atoms: C_12  and  O_14
REMARK    4  A    between atoms: C_16  and  C_17
REMARK    5  A    between atoms: C_24  and  C_26
REMARK    6  A    between atoms: C_26  and  O_27
REMARK    7  A    between atoms: C_26  and  C_28
REMARK    8  A    between atoms: C_26  and  C_29
REMARK    9  A    between atoms: C_29  and  O_31
REMARK   10  A    between atoms: C_29  and  C_32
REMARK   11  A    between atoms: C_32  and  C_33
REMARK   12  A    between atoms: C_33  and  C_34
REMARK   13  A    between atoms: C_34  and  C_35
REMARK   14  A    between atoms: C_34  and  O_36
REMARK   15  A    between atoms: C_34  and  C_37
REMARK                            x       y       z     vdW  Elec       q    Type
REMARK                         _______ _______ _______ _____ _____    ______ ____
ROOT
ATOM      1  C   LIG A   1      -1.761  -1.605  -2.533  0.00  0.00    +0.016 C 
ATOM      2  C   LIG A   1      -1.025  -0.778  -1.428  0.00  0.00    -0.001 C 
ATOM      3  C   LIG A   1      -1.957  -0.586  -0.243  0.00  0.00    -0.041 C 
ATOM      4  C   LIG A   1      -2.592   0.685   0.079  0.00  0.00    -0.037 C 
ATOM      5  C   LIG A   1      -3.529   0.776   1.042  0.00  0.00    +0.050 C 
ATOM      6  C   LIG A   1      -4.044   2.083   1.517  0.00  0.00    +0.160 C 
ATOM      7  C   LIG A   1      -3.558   3.347   0.834  0.00  0.00    +0.069 C 
ATOM      8  C   LIG A   1      -3.756   4.593   1.706  0.00  0.00    +0.045 C 
ATOM      9  C   LIG A   1      -3.385   5.864   0.944  0.00  0.00    +0.144 C 
ATOM     10  C   LIG A   1      -1.994   5.800   0.296  0.00  0.00    +0.144 C 
ATOM     11  C   LIG A   1      -1.749   4.497  -0.470  0.00  0.00    +0.042 C 
ATOM     12  C   LIG A   1      -2.100   3.202   0.327  0.00  0.00    -0.013 C 
ATOM     13  C   LIG A   1      -1.088   3.021   1.495  0.00  0.00    +0.012 C 
ATOM     14  C   LIG A   1      -2.059   1.942  -0.621  0.00  0.00    +0.026 C 
ATOM     15  C   LIG A   1      -0.661   1.746  -1.232  0.00  0.00    +0.009 C 
ATOM     16  C   LIG A   1      -0.596   0.518  -2.123  0.00  0.00    +0.012 C 
ATOM     17  O   LIG A   1      -4.894   2.093   2.414  0.00  0.00    -0.292 OA
ATOM     18  C   LIG A   1      -1.889  -1.663   0.561  0.00  0.00    -0.022 C 
ATOM     19  C   LIG A   1      -0.811  -2.609   0.126  0.00  0.00    +0.034 C 
ATOM     20  C   LIG A   1       0.085  -1.696  -0.768  0.00  0.00    +0.037 C 
ENDROOT
BRANCH   9  21
ATOM     21  O   LIG A   1      -3.405   6.984   1.837  0.00  0.00    -0.389 OA
ATOM     22  H   LIG A   1      -4.251   6.959   2.319  0.00  0.00    +0.210 HD
ENDBRANCH   9  21
BRANCH  10  23
ATOM     23  O   LIG A   1      -0.987   5.967   1.297  0.00  0.00    -0.389 OA
ATOM     24  H   LIG A   1      -1.336   6.669   1.884  0.00  0.00    +0.210 HD
ENDBRANCH  10  23
BRANCH  20  25
ATOM     25  C   LIG A   1       1.287  -1.061   0.064  0.00  0.00    +0.093 C 
ATOM     26  C   LIG A   1       2.213  -0.176  -0.795  0.00  0.00    +0.044 C 
BRANCH  25  27
ATOM     27  O   LIG A   1       0.815  -0.205   1.122  0.00  0.00    -0.386 OA
ATOM     28  H   LIG A   1       0.182  -0.706   1.667  0.00  0.00    +0.210 HD
ENDBRANCH  25  27
BRANCH  25  29
ATOM     29  C   LIG A   1       2.184  -2.151   0.778  0.00  0.00    +0.146 C 
BRANCH  29  30
ATOM     30  O   LIG A   1       3.226  -1.502   1.527  0.00  0.00    -0.389 OA
ATOM     31  H   LIG A   1       2.841  -0.661   1.848  0.00  0.00    +0.210 HD
ENDBRANCH  29  30
BRANCH  29  32
ATOM     32  C   LIG A   1       2.829  -3.154  -0.185  0.00  0.00    +0.037 C 
BRANCH  32  33
ATOM     33  C   LIG A   1       3.665  -4.229   0.528  0.00  0.00    +0.036 C 
BRANCH  33  34
ATOM     34  C   LIG A   1       4.306  -5.246  -0.442  0.00  0.00    +0.061 C 
ATOM     35  C   LIG A   1       5.118  -6.288   0.334  0.00  0.00    +0.041 C 
ATOM     36  C   LIG A   1       5.202  -4.575  -1.486  0.00  0.00    +0.041 C 
BRANCH  34  37
ATOM     37  O   LIG A   1       3.266  -5.930  -1.149  0.00  0.00    -0.389 OA
ATOM     38  H   LIG A   1       2.784  -6.481  -0.508  0.00  0.00    +0.210 HD
ENDBRANCH  34  37
ENDBRANCH  33  34
ENDBRANCH  32  33
ENDBRANCH  29  32
ENDBRANCH  25  29
ENDBRANCH  20  25
TORSDOF 10
