@<TRIPOS>MOLECULE
NuBBE_1869
 43 45 0 0 0
SMALL
GASTEIGER

@<TRIPOS>ATOM
      1 C           0.5899    3.9171   -1.2654 C.3     1  LIG1        0.0791
      2 O          -0.0844    2.9431   -0.4747 O.3     1  LIG1       -0.4883
      3 C           0.4863    1.6830   -0.4332 C.ar    1  LIG1        0.2108
      4 C          -0.2728    0.5719   -0.2457 C.ar    1  LIG1        0.1844
      5 C          -1.7557    0.5844   -0.1176 C.ar    1  LIG1        0.0663
      6 C          -2.3525    0.6856    1.1526 C.ar    1  LIG1       -0.0437
      7 C          -3.7456    0.5405    1.3300 C.ar    1  LIG1       -0.0154
      8 C          -4.5700    0.2713    0.2403 C.ar    1  LIG1        0.1650
      9 O          -5.9256    0.0682    0.2686 O.3     1  LIG1       -0.4913
     10 C          -6.5490    0.0508    1.5499 C.3     1  LIG1        0.0790
     11 C          -3.9810    0.1961   -1.0234 C.ar    1  LIG1        0.2015
     12 O          -4.7479   -0.0853   -2.1308 O.3     1  LIG1       -0.5009
     13 C          -2.6020    0.3683   -1.2079 C.ar    1  LIG1        0.1730
     14 O          -2.1123    0.2943   -2.4858 O.3     1  LIG1       -0.5027
     15 O           0.2278   -0.7314   -0.1352 O.2     1  LIG1       -0.4505
     16 C           1.5852   -0.9195   -0.0910 C.ar    1  LIG1        0.1468
     17 C           2.4795    0.1243   -0.2454 C.ar    1  LIG1        0.1128
     18 C           3.8501   -0.1046   -0.1610 C.ar    1  LIG1        0.1767
     19 O           4.8187    0.8575   -0.2885 O.3     1  LIG1       -0.5027
     20 C           4.3285   -1.3972    0.0867 C.ar    1  LIG1        0.2018
     21 O           5.6900   -1.5329    0.1330 O.3     1  LIG1       -0.5009
     22 C           3.4477   -2.4651    0.2544 C.ar    1  LIG1        0.1685
     23 O           3.8119   -3.7649    0.5063 O.3     1  LIG1       -0.4912
     24 C           5.0559   -3.9311    1.1928 C.3     1  LIG1        0.0790
     25 C           2.0644   -2.2198    0.1364 C.ar    1  LIG1        0.0270
     26 C           1.9701    1.4819   -0.4948 C.ar    1  LIG1        0.2382
     27 O           2.7809    2.3637   -0.7034 O.2     1  LIG1       -0.2830
     28 H           0.7055    3.5780   -2.3007 H       1  LIG1        0.0660
     29 H           1.5519    4.2083   -0.8342 H       1  LIG1        0.0660
     30 H          -0.0182    4.8262   -1.2692 H       1  LIG1        0.0660
     31 H          -1.7346    0.8554    2.0321 H       1  LIG1        0.0627
     32 H          -4.1438    0.6280    2.3359 H       1  LIG1        0.0655
     33 H          -7.6287   -0.0525    1.3982 H       1  LIG1        0.0660
     34 H          -6.3839    0.9885    2.0897 H       1  LIG1        0.0660
     35 H          -6.2101   -0.8096    2.1363 H       1  LIG1        0.0660
     36 H          -5.6458   -0.2487   -1.7759 H       1  LIG1        0.2924
     37 H          -2.9109    0.1762   -3.0413 H       1  LIG1        0.2923
     38 H           4.3572    1.7060   -0.4922 H       1  LIG1        0.2923
     39 H           6.0484   -0.6312    0.0074 H       1  LIG1        0.2924
     40 H           5.2369   -4.9990    1.3396 H       1  LIG1        0.0660
     41 H           5.0180   -3.4458    2.1750 H       1  LIG1        0.0660
     42 H           5.9160   -3.5921    0.6120 H       1  LIG1        0.0660
     43 H           1.3542   -3.0377    0.2404 H       1  LIG1        0.0692
@<TRIPOS>BOND
     1     1     2    1
     2     2     3    1
     3     3     4   ar
     4     4     5    1
     5     5     6   ar
     6     6     7   ar
     7     7     8   ar
     8     8     9    1
     9     9    10    1
    10     8    11   ar
    11    11    12    1
    12    11    13   ar
    13     5    13   ar
    14    13    14    1
    15     4    15   ar
    16    15    16   ar
    17    16    17   ar
    18    17    18   ar
    19    18    19    1
    20    18    20   ar
    21    20    21    1
    22    20    22   ar
    23    22    23    1
    24    23    24    1
    25    22    25   ar
    26    16    25   ar
    27    17    26   ar
    28     3    26   ar
    29    26    27    2
    30     1    28    1
    31     1    29    1
    32     1    30    1
    33     6    31    1
    34     7    32    1
    35    10    33    1
    36    10    34    1
    37    10    35    1
    38    12    36    1
    39    14    37    1
    40    19    38    1
    41    21    39    1
    42    24    40    1
    43    24    41    1
    44    24    42    1
    45    25    43    1
