@<TRIPOS>MOLECULE
NuBBE_1714
 26 29 0 0 0
SMALL
GASTEIGER

@<TRIPOS>ATOM
      1 O          -2.2778   -0.5468    0.2044 O.2     1  LIG1       -0.2863
      2 C          -1.0517   -0.5201    0.1660 C.ar    1  LIG1        0.2038
      3 C          -0.2828    0.7280    0.1389 C.ar    1  LIG1        0.1099
      4 C           1.1109    0.6597    0.0558 C.ar    1  LIG1        0.1430
      5 O           1.8168   -0.5218    0.0715 O.2     1  LIG1       -0.4545
      6 C           1.1074   -1.6990    0.0699 C.ar    1  LIG1        0.1393
      7 C           1.8482   -2.8810    0.0193 C.ar    1  LIG1       -0.0186
      8 C           1.1945   -4.1171   -0.0093 C.ar    1  LIG1       -0.0582
      9 C          -0.1996   -4.1763    0.0095 C.ar    1  LIG1       -0.0609
     10 C          -0.9425   -2.9995    0.0675 C.ar    1  LIG1       -0.0474
     11 C          -0.2832   -1.7671    0.1044 C.ar    1  LIG1        0.0647
     12 C           1.8717    1.8375   -0.0697 C.ar    1  LIG1       -0.0149
     13 C           1.2416    3.0848   -0.1303 C.ar    1  LIG1       -0.0126
     14 C          -0.1351    3.1158   -0.0360 C.ar    1  LIG1        0.1672
     15 C          -0.8847    1.9712    0.1145 C.ar    1  LIG1        0.1806
     16 O          -2.2137    2.2490    0.2004 O.3     1  LIG1       -0.4518
     17 C          -2.2265    3.6561   -0.0825 C.3     1  LIG1        0.2333
     18 O          -0.9057    4.2360   -0.1052 O.3     1  LIG1       -0.4526
     19 H           2.9343   -2.8448   -0.0029 H       1  LIG1        0.0654
     20 H           1.7729   -5.0371   -0.0502 H       1  LIG1        0.0619
     21 H          -0.7093   -5.1362   -0.0209 H       1  LIG1        0.0618
     22 H          -2.0300   -3.0392    0.0793 H       1  LIG1        0.0626
     23 H           2.9554    1.7782   -0.1436 H       1  LIG1        0.0656
     24 H           1.8116    3.9986   -0.2605 H       1  LIG1        0.0656
     25 H          -2.6937    3.8008   -1.0641 H       1  LIG1        0.1166
     26 H          -2.8289    4.1704    0.6739 H       1  LIG1        0.1166
@<TRIPOS>BOND
     1     1     2    2
     2     2     3   ar
     3     3     4   ar
     4     4     5   ar
     5     5     6   ar
     6     6     7   ar
     7     7     8   ar
     8     8     9   ar
     9     9    10   ar
    10    10    11   ar
    11     6    11   ar
    12     2    11   ar
    13     4    12   ar
    14    12    13   ar
    15    13    14   ar
    16    14    15   ar
    17     3    15   ar
    18    15    16    1
    19    16    17    1
    20    17    18    1
    21    14    18    1
    22     7    19    1
    23     8    20    1
    24     9    21    1
    25    10    22    1
    26    12    23    1
    27    13    24    1
    28    17    25    1
    29    17    26    1
