REMARK  Name = NuBBE_1166
REMARK  17 active torsions:
REMARK  status: ('A' for Active; 'I' for Inactive)
REMARK    1  A    between atoms: O_1  and  C_2
REMARK    2  A    between atoms: C_4  and  O_54
REMARK    3  A    between atoms: C_6  and  C_37
REMARK    4  A    between atoms: C_9  and  O_11
REMARK    5  A    between atoms: O_11  and  C_12
REMARK    6  A    between atoms: C_14  and  O_15
REMARK    7  A    between atoms: C_19  and  C_21
REMARK    8  A    between atoms: C_23  and  O_24
REMARK    9  A    between atoms: C_25  and  O_28
REMARK   10  A    between atoms: O_28  and  C_29
REMARK   11  A    between atoms: C_34  and  O_36
REMARK   12  A    between atoms: C_37  and  O_38
REMARK   13  A    between atoms: O_38  and  C_39
REMARK   14  A    between atoms: C_42  and  C_44
REMARK   15  A    between atoms: C_45  and  O_47
REMARK   16  A    between atoms: C_48  and  O_50
REMARK   17  A    between atoms: C_51  and  O_53
REMARK                            x       y       z     vdW  Elec       q    Type
REMARK                         _______ _______ _______ _____ _____    ______ ____
ROOT
ATOM      1  C   LIG A   1       1.474  -5.054  -1.686  0.00  0.00    +0.180 C 
ATOM      2  C   LIG A   1       1.769  -3.557  -1.545  0.00  0.00    +0.177 C 
ATOM      3  C   LIG A   1       2.279  -3.261  -0.125  0.00  0.00    +0.179 C 
ATOM      4  O   LIG A   1       1.346  -3.631   0.900  0.00  0.00    -0.331 OA
ATOM      5  C   LIG A   1       0.275  -4.512   0.527  0.00  0.00    +0.339 C 
ATOM      6  C   LIG A   1       0.752  -5.614  -0.449  0.00  0.00    +0.214 C 
ENDROOT
BRANCH   1   7
ATOM      7  O   LIG A   1       0.701  -5.231  -2.886  0.00  0.00    -0.386 OA
ATOM      8  H   LIG A   1       0.571  -6.189  -3.013  0.00  0.00    +0.210 HD
ENDBRANCH   1   7
BRANCH   6   9
ATOM      9  O   LIG A   1       1.665  -6.498   0.238  0.00  0.00    -0.383 OA
ATOM     10  H   LIG A   1       2.271  -5.946   0.771  0.00  0.00    +0.210 HD
ENDBRANCH   6   9
BRANCH   2  11
ATOM     11  O   LIG A   1       2.719  -3.175  -2.545  0.00  0.00    -0.387 OA
ATOM     12  H   LIG A   1       2.321  -3.446  -3.398  0.00  0.00    +0.210 HD
ENDBRANCH   2  11
BRANCH   5  13
ATOM     13  O   LIG A   1      -0.868  -3.819   0.002  0.00  0.00    -0.461 OA
BRANCH  13  14
ATOM     14  C   LIG A   1      -1.496  -2.923   0.835  0.00  0.00    +0.131 A 
ATOM     15  C   LIG A   1      -1.204  -2.734   2.189  0.00  0.00    +0.092 A 
ATOM     16  C   LIG A   1      -1.822  -1.704   2.910  0.00  0.00    +0.134 A 
ATOM     17  C   LIG A   1      -2.710  -0.853   2.278  0.00  0.00    +0.101 A 
ATOM     18  C   LIG A   1      -3.041  -1.052   0.939  0.00  0.00    +0.139 A 
ATOM     19  O   LIG A   1      -3.872  -0.236   0.224  0.00  0.00    -0.483 OA
ATOM     20  C   LIG A   1      -4.246   1.043   0.783  0.00  0.00    +0.211 C 
ATOM     21  C   LIG A   1      -3.359   1.504   1.932  0.00  0.00    +0.129 C 
ATOM     22  C   LIG A   1      -3.231   0.366   2.906  0.00  0.00    +0.174 C 
ATOM     23  O   LIG A   1      -3.484   0.479   4.080  0.00  0.00    -0.292 OA
ATOM     24  C   LIG A   1      -2.468  -2.116   0.232  0.00  0.00    +0.092 A 
BRANCH  20  25
ATOM     25  C   LIG A   1      -4.243   2.049  -0.370  0.00  0.00    -0.003 A 
ATOM     26  C   LIG A   1      -3.931   3.405  -0.174  0.00  0.00    +0.056 A 
ATOM     27  C   LIG A   1      -3.903   4.306  -1.243  0.00  0.00    +0.159 A 
ATOM     28  C   LIG A   1      -4.231   3.883  -2.534  0.00  0.00    +0.161 A 
ATOM     29  C   LIG A   1      -4.542   2.537  -2.741  0.00  0.00    +0.050 A 
ATOM     30  C   LIG A   1      -4.561   1.634  -1.674  0.00  0.00    +0.011 A 
BRANCH  27  31
ATOM     31  O   LIG A   1      -3.516   5.592  -0.988  0.00  0.00    -0.503 OA
ATOM     32  H   LIG A   1      -3.231   5.671  -0.064  0.00  0.00    +0.292 HD
ENDBRANCH  27  31
BRANCH  28  33
ATOM     33  O   LIG A   1      -4.246   4.646  -3.670  0.00  0.00    -0.491 OA
ATOM     34  C   LIG A   1      -4.576   6.018  -3.484  0.00  0.00    +0.277 C 
ENDBRANCH  28  33
ENDBRANCH  20  25
BRANCH  16  35
ATOM     35  O   LIG A   1      -1.472  -1.501   4.212  0.00  0.00    -0.506 OA
ATOM     36  H   LIG A   1      -0.985  -2.270   4.549  0.00  0.00    +0.292 HD
ENDBRANCH  16  35
ENDBRANCH  13  14
ENDBRANCH   5  13
BRANCH   3  37
ATOM     37  C   LIG A   1       2.681  -1.776   0.010  0.00  0.00    +0.197 C 
BRANCH  37  38
ATOM     38  O   LIG A   1       3.118  -1.446   1.338  0.00  0.00    -0.346 OA
BRANCH  38  39
ATOM     39  C   LIG A   1       3.494  -0.059   1.515  0.00  0.00    +0.282 C 
ATOM     40  O   LIG A   1       2.383   0.794   1.190  0.00  0.00    -0.343 OA
ATOM     41  C   LIG A   1       2.674   2.173   0.925  0.00  0.00    +0.149 C 
ATOM     42  C   LIG A   1       2.983   2.944   2.207  0.00  0.00    +0.040 C 
ATOM     43  C   LIG A   1       3.763   2.370  -0.151  0.00  0.00    +0.174 C 
ATOM     44  C   LIG A   1       4.410   1.040  -0.525  0.00  0.00    +0.179 C 
ATOM     45  C   LIG A   1       4.794   0.273   0.735  0.00  0.00    +0.201 C 
BRANCH  43  46
ATOM     46  O   LIG A   1       3.222   2.903  -1.375  0.00  0.00    -0.387 OA
ATOM     47  H   LIG A   1       2.729   3.713  -1.157  0.00  0.00    +0.210 HD
ENDBRANCH  43  46
BRANCH  44  48
ATOM     48  O   LIG A   1       5.554   1.297  -1.350  0.00  0.00    -0.386 OA
ATOM     49  H   LIG A   1       5.190   1.824  -2.093  0.00  0.00    +0.210 HD
ENDBRANCH  44  48
BRANCH  45  50
ATOM     50  O   LIG A   1       5.676   1.095   1.528  0.00  0.00    -0.384 OA
ATOM     51  H   LIG A   1       6.438   1.292   0.948  0.00  0.00    +0.210 HD
ENDBRANCH  45  50
ENDBRANCH  38  39
ENDBRANCH  37  38
ENDBRANCH   3  37
TORSDOF 15
