@<TRIPOS>MOLECULE
NuBBE_1775
 30 29 0 0 0
SMALL
GASTEIGER

@<TRIPOS>ATOM
      1 C          -0.2071   -1.9583   -0.0941 C.3     1  LIG1       -0.0245
      2 C          -0.4669   -0.6398   -0.8459 C.3     1  LIG1        0.0555
      3 H           0.3468   -0.4567   -1.5604 H       1  LIG1        0.0593
      4 C          -0.6311    0.5716    0.0823 C.3     1  LIG1       -0.0269
      5 C          -0.8225    1.8946   -0.6787 C.3     1  LIG1       -0.0510
      6 C          -0.9264    3.0712    0.2975 C.3     1  LIG1       -0.0558
      7 C          -1.1112    4.3987   -0.4210 C.3     1  LIG1       -0.0653
      8 O          -1.6560   -0.8005   -1.6204 O.3     1  LIG1       -0.3918
      9 C           1.0991   -2.0677    0.7228 C.3     1  LIG1       -0.0444
     10 C           1.1818   -3.4558    1.3710 C.3     1  LIG1       -0.0626
     11 C           2.3622   -1.8318   -0.1074 C.3     1  LIG1       -0.0626
     12 H          -1.0563   -2.1463    0.5778 H       1  LIG1        0.0293
     13 H          -0.2432   -2.7781   -0.8248 H       1  LIG1        0.0293
     14 H           0.2423    0.6641    0.7324 H       1  LIG1        0.0290
     15 H          -1.5103    0.4195    0.7214 H       1  LIG1        0.0290
     16 H          -1.7309    1.8505   -1.2916 H       1  LIG1        0.0266
     17 H           0.0209    2.0565   -1.3609 H       1  LIG1        0.0266
     18 H          -0.0221    3.1240    0.9154 H       1  LIG1        0.0263
     19 H          -1.7723    2.9128    0.9765 H       1  LIG1        0.0263
     20 H          -0.2347    4.6402   -1.0305 H       1  LIG1        0.0230
     21 H          -1.2493    5.2059    0.3061 H       1  LIG1        0.0230
     22 H          -1.9901    4.3767   -1.0727 H       1  LIG1        0.0230
     23 H          -2.3987   -0.9775   -1.0065 H       1  LIG1        0.2098
     24 H           1.0823   -1.3293    1.5331 H       1  LIG1        0.0296
     25 H           1.1198   -4.2498    0.6185 H       1  LIG1        0.0232
     26 H           0.3664   -3.5996    2.0872 H       1  LIG1        0.0232
     27 H           2.1252   -3.5821    1.9136 H       1  LIG1        0.0232
     28 H           2.3539   -2.4226   -1.0289 H       1  LIG1        0.0232
     29 H           3.2575   -2.1147    0.4599 H       1  LIG1        0.0232
     30 H           2.4710   -0.7757   -0.3716 H       1  LIG1        0.0232
@<TRIPOS>BOND
     1     2     4    1
     2     4     5    1
     3     5     6    1
     4     6     7    1
     5     2     8    1
     6     1     9    1
     7     9    10    1
     8     9    11    1
     9     2     3    1
    10     2     1    1
    11     1    12    1
    12     1    13    1
    13     4    14    1
    14     4    15    1
    15     5    16    1
    16     5    17    1
    17     6    18    1
    18     6    19    1
    19     7    20    1
    20     7    21    1
    21     7    22    1
    22     8    23    1
    23     9    24    1
    24    10    25    1
    25    10    26    1
    26    10    27    1
    27    11    28    1
    28    11    29    1
    29    11    30    1
