@<TRIPOS>MOLECULE
NuBBE_109
 60 61 0 0 0
SMALL
GASTEIGER

@<TRIPOS>ATOM
      1 H          -0.7955   -1.0774    0.5332 H       1  LIG1        0.0363
      2 C          -0.6084   -1.3127   -0.5338 C.3     1  LIG1        0.0157
      3 C           0.0222    0.0450   -1.0065 C.3     1  LIG1        0.0659
      4 C           0.3332    0.3320   -2.5173 C.3     1  LIG1        0.1093
      5 O           1.3801   -0.5346   -3.0192 O.3     1  LIG1       -0.4613
      6 C           0.9839   -1.7338   -3.4950 C.2     1  LIG1        0.3042
      7 C           2.0952   -2.5488   -4.0664 C.3     1  LIG1        0.0332
      8 O          -0.1690   -2.1495   -3.4347 O.2     1  LIG1       -0.2512
      9 C          -0.8141    0.4930   -3.5333 C.3     1  LIG1       -0.0272
     10 C          -0.9332    1.1664   -0.4706 C.3     1  LIG1        0.2102
     11 H          -0.6172    2.1344   -0.8691 H       1  LIG1        0.1060
     12 O          -2.2732    1.0193   -0.9770 O.2     1  LIG1       -0.4701
     13 C          -2.7464   -0.2581   -1.1449 C.2     1  LIG1        0.0981
     14 C          -2.0476   -1.3961   -0.9790 C.2     1  LIG1        0.0749
     15 C          -2.7833   -2.6259   -1.3223 C.2     1  LIG1        0.3381
     16 O          -1.8781   -3.6207   -1.5164 O.3     1  LIG1       -0.4646
     17 C          -2.2705   -4.6912   -2.3820 C.3     1  LIG1        0.0820
     18 O          -3.9719   -2.7073   -1.5207 O.2     1  LIG1       -0.2452
     19 O          -1.0128    1.2643    0.9565 O.3     1  LIG1       -0.3094
     20 C           0.2044    1.5030    1.6671 C.3     1  LIG1        0.1918
     21 H           0.8670    0.6473    1.5199 H       1  LIG1        0.0939
     22 O          -0.1208    1.4939    3.0804 O.3     1  LIG1       -0.3404
     23 C           0.8942    2.1135    3.8866 C.3     1  LIG1        0.1130
     24 H           1.8715    1.6675    3.6569 H       1  LIG1        0.0647
     25 C           0.9169    3.6391    3.6371 C.3     1  LIG1        0.1119
     26 H           0.2332    4.1503    4.3262 H       1  LIG1        0.0647
     27 C           0.4842    3.9577    2.2042 C.3     1  LIG1        0.1141
     28 H           0.9620    4.8875    1.8780 H       1  LIG1        0.0648
     29 O          -0.9305    4.1797    2.1472 O.3     1  LIG1       -0.3864
     30 O           2.2246    4.1757    3.8626 O.3     1  LIG1       -0.3865
     31 C           0.6051    1.8419    5.3690 C.3     1  LIG1        0.0730
     32 O           1.5495    2.5245    6.1917 O.3     1  LIG1       -0.3924
     33 C           0.8987    2.8282    1.2508 C.3     1  LIG1        0.1342
     34 H           0.6473    3.1256    0.2349 H       1  LIG1        0.0671
     35 O           2.3196    2.6131    1.2443 O.3     1  LIG1       -0.3841
     36 H           0.9947    0.1314   -0.5017 H       1  LIG1        0.0403
     37 C           0.3008   -2.5380   -0.2091 C.3     1  LIG1        0.0525
     38 C           0.9854   -3.6397   -1.0045 C.2     1  LIG1        0.3053
     39 O           0.4815   -4.0627   -2.1600 O.3     1  LIG1       -0.4806
     40 O           1.9648   -4.2214   -0.5361 O.2     1  LIG1       -0.2510
     41 H           0.8147    1.3208   -2.5282 H       1  LIG1        0.0736
     42 H           3.0240   -2.3961   -3.5143 H       1  LIG1        0.0342
     43 H           2.1909   -2.3167   -5.1241 H       1  LIG1        0.0342
     44 H           1.8430   -3.6104   -3.9784 H       1  LIG1        0.0342
     45 H          -1.5065   -0.3523   -3.5426 H       1  LIG1        0.0265
     46 H          -0.4123    0.5612   -4.5513 H       1  LIG1        0.0265
     47 H          -1.4090    1.3905   -3.3496 H       1  LIG1        0.0265
     48 H          -3.7706   -0.2157   -1.4993 H       1  LIG1        0.1029
     49 H          -1.7144   -5.5754   -2.0695 H       1  LIG1        0.0661
     50 H          -1.9230   -4.4148   -3.3869 H       1  LIG1        0.0661
     51 H          -3.3305   -4.8853   -2.3849 H       1  LIG1        0.0661
     52 H          -1.3728    3.4497    2.6267 H       1  LIG1        0.2100
     53 H           2.3755    4.1082    4.8276 H       1  LIG1        0.2100
     54 H          -0.4013    2.1867    5.6317 H       1  LIG1        0.0584
     55 H           0.6489    0.7682    5.5815 H       1  LIG1        0.0584
     56 H           1.2751    2.3779    7.1153 H       1  LIG1        0.2095
     57 H           2.7580    3.4792    1.3514 H       1  LIG1        0.2101
     58 H          -0.2649   -3.1221    0.5324 H       1  LIG1        0.0384
     59 H           1.1496   -2.1017    0.3375 H       1  LIG1        0.0384
     60 H          -0.2220   -3.4684   -2.5221 H       1  LIG1        0.2951
@<TRIPOS>BOND
     1     1     2    1
     2     2     3    1
     3     3     4    1
     4     4     5    1
     5     5     6    1
     6     6     7    1
     7     6     8    2
     8     4     9    1
     9     3    10    1
    10    10    12    1
    11    12    13    1
    12    13    14    2
    13    14    15    1
    14    15    16    1
    15    16    17    1
    16    15    18    2
    17    19    20    1
    18    20    21    1
    19    20    22    1
    20    22    23    1
    21    23    25    1
    22    25    26    1
    23    25    27    1
    24    25    30    1
    25    31    32    1
    26    20    33    1
    27    27    33    1
    28     3    36    1
    29    14     2    1
    30     2    37    1
    31    37    38    1
    32    38    39    1
    33    38    40    2
    34    10    19    1
    35    10    11    1
    36    33    35    1
    37    33    34    1
    38    23    31    1
    39    23    24    1
    40    27    29    1
    41    27    28    1
    42     4    41    1
    43     7    42    1
    44     7    43    1
    45     7    44    1
    46     9    45    1
    47     9    46    1
    48     9    47    1
    49    13    48    1
    50    17    49    1
    51    17    50    1
    52    17    51    1
    53    29    52    1
    54    30    53    1
    55    31    54    1
    56    31    55    1
    57    32    56    1
    58    35    57    1
    59    37    58    1
    60    37    59    1
    61    39    60    1
