@<TRIPOS>MOLECULE
NuBBE_997
 74 77 0 0 0
SMALL
GASTEIGER

@<TRIPOS>ATOM
      1 C          -2.6754    4.3113    0.0424 C.3     1  LIG1       -0.0586
      2 C          -1.4564    3.6410   -0.6314 C.3     1  LIG1       -0.0191
      3 C          -0.4643    3.2090    0.4947 C.3     1  LIG1       -0.0252
      4 C           0.3464    4.4765    0.8024 C.3     1  LIG1        0.0097
      5 C           0.3699    5.1937   -0.5162 C.2     1  LIG1        0.1372
      6 C          -0.6151    4.6141   -1.5186 C.3     1  LIG1        0.0229
      7 H          -0.0006    4.0408   -2.2257 H       1  LIG1        0.0383
      8 C          -1.3398    5.7358   -2.2707 C.3     1  LIG1       -0.0459
      9 C          -2.3401    5.2733   -3.3182 C.3     1  LIG1       -0.0646
     10 O           1.1096    6.1442   -0.7432 O.2     1  LIG1       -0.2971
     11 C           0.3952    1.9670    0.1268 C.3     1  LIG1       -0.0340
     12 C           1.4351    1.6831    1.2560 C.3     1  LIG1       -0.0493
     13 C           1.9339    0.2495    1.4440 C.3     1  LIG1       -0.0459
     14 C           1.2356   -0.7206    0.5127 C.3     1  LIG1        0.0056
     15 C           1.7464   -2.1660    0.6360 C.3     1  LIG1        0.1465
     16 H           2.7562   -2.1982    1.0572 H       1  LIG1        0.0776
     17 O           1.7853   -2.7504   -0.6930 O.3     1  LIG1       -0.4574
     18 C           2.8813   -2.4885   -1.4450 C.2     1  LIG1        0.3043
     19 C           2.6667   -2.9710   -2.8389 C.3     1  LIG1        0.0332
     20 O           3.8767   -1.8629   -1.0677 O.2     1  LIG1       -0.2512
     21 C           0.7983   -3.0174    1.4623 C.3     1  LIG1        0.1765
     22 H           0.6903   -2.5719    2.4575 H       1  LIG1        0.0809
     23 O           1.3423   -4.3407    1.6435 O.3     1  LIG1       -0.4540
     24 C           2.2276   -4.5155    2.6435 C.2     1  LIG1        0.3044
     25 C           2.0912   -5.8869    3.2258 C.3     1  LIG1        0.0332
     26 O           2.9820   -3.6460    3.0720 O.2     1  LIG1       -0.2512
     27 C          -0.6220   -3.0915    0.8116 C.3     1  LIG1        0.1438
     28 H          -1.3741   -3.2245    1.6022 H       1  LIG1        0.0773
     29 O          -0.7552   -4.1999   -0.1158 O.3     1  LIG1       -0.4576
     30 C          -0.7275   -5.4625    0.3961 C.2     1  LIG1        0.3043
     31 C          -0.7585   -6.4646   -0.7083 C.3     1  LIG1        0.0332
     32 O          -0.6967   -5.7698    1.5816 O.2     1  LIG1       -0.2512
     33 C          -0.9816   -1.8018    0.0053 C.3     1  LIG1       -0.0060
     34 C          -0.3164   -0.5203    0.5682 C.3     1  LIG1       -0.0192
     35 C          -0.9406   -0.2648    1.9672 C.3     1  LIG1       -0.0588
     36 C          -0.5095    0.7499   -0.3219 C.3     1  LIG1       -0.0320
     37 C          -1.9593    1.1513   -0.6221 C.3     1  LIG1       -0.0489
     38 C          -1.9565    2.4320   -1.4534 C.3     1  LIG1       -0.0464
     39 H          -2.4003    5.2186    0.5881 H       1  LIG1        0.0235
     40 H          -3.1421    3.6258    0.7603 H       1  LIG1        0.0235
     41 H          -3.4489    4.5793   -0.6825 H       1  LIG1        0.0235
     42 H          -1.0194    2.9418    1.4046 H       1  LIG1        0.0313
     43 H           1.3616    4.2927    1.1552 H       1  LIG1        0.0345
     44 H          -0.1776    5.1076    1.5274 H       1  LIG1        0.0345
     45 H          -0.5916    6.3569   -2.7822 H       1  LIG1        0.0269
     46 H          -1.8376    6.4076   -1.5621 H       1  LIG1        0.0269
     47 H          -1.8377    4.7794   -4.1555 H       1  LIG1        0.0230
     48 H          -2.8827    6.1379   -3.7157 H       1  LIG1        0.0230
     49 H          -3.0851    4.5883   -2.9120 H       1  LIG1        0.0230
     50 H           0.9909    2.2324   -0.7595 H       1  LIG1        0.0307
     51 H           2.3164    2.3135    1.0791 H       1  LIG1        0.0268
     52 H           1.0405    2.0267    2.2210 H       1  LIG1        0.0268
     53 H           1.8019   -0.0549    2.4900 H       1  LIG1        0.0269
     54 H           3.0149    0.2174    1.2601 H       1  LIG1        0.0269
     55 H           1.5620   -0.4177   -0.4931 H       1  LIG1        0.0343
     56 H           3.6164   -2.9702   -3.3809 H       1  LIG1        0.0342
     57 H           1.9620   -2.3030   -3.3420 H       1  LIG1        0.0342
     58 H           2.2776   -3.9929   -2.8270 H       1  LIG1        0.0342
     59 H           2.6660   -5.9392    4.1537 H       1  LIG1        0.0342
     60 H           2.4491   -6.6454    2.5275 H       1  LIG1        0.0342
     61 H           1.0439   -6.0719    3.4861 H       1  LIG1        0.0342
     62 H          -1.7090   -6.3695   -1.2359 H       1  LIG1        0.0342
     63 H          -0.6902   -7.4674   -0.2763 H       1  LIG1        0.0342
     64 H           0.0876   -6.3196   -1.3850 H       1  LIG1        0.0342
     65 H          -2.0754   -1.6990   -0.0207 H       1  LIG1        0.0307
     66 H          -0.6961   -1.9319   -1.0476 H       1  LIG1        0.0307
     67 H          -0.6128   -0.9831    2.7198 H       1  LIG1        0.0235
     68 H          -2.0348   -0.3347    1.9217 H       1  LIG1        0.0235
     69 H          -0.7246    0.7274    2.3666 H       1  LIG1        0.0235
     70 H          -0.1204    0.4701   -1.3159 H       1  LIG1        0.0309
     71 H          -2.5433    1.2937    0.2923 H       1  LIG1        0.0268
     72 H          -2.4531    0.3605   -1.1984 H       1  LIG1        0.0268
     73 H          -2.9648    2.6109   -1.8423 H       1  LIG1        0.0271
     74 H          -1.3239    2.2753   -2.3377 H       1  LIG1        0.0271
@<TRIPOS>BOND
     1     1     2    1
     2     2     3    1
     3     3     4    1
     4     4     5    1
     5     5     6    1
     6     6     7    1
     7     2     6    1
     8     6     8    1
     9     8     9    1
    10     5    10    2
    11     3    11    1
    12    11    12    1
    13    12    13    1
    14    13    14    1
    15    14    15    1
    16    17    18    1
    17    18    19    1
    18    18    20    2
    19    15    21    1
    20    21    22    1
    21    21    23    1
    22    23    24    1
    23    24    25    1
    24    24    26    2
    25    21    27    1
    26    27    28    1
    27    27    29    1
    28    29    30    1
    29    30    31    1
    30    30    32    2
    31    27    33    1
    32    33    34    1
    33    34    35    1
    34    14    34    1
    35    34    36    1
    36    11    36    1
    37    36    37    1
    38    37    38    1
    39     2    38    1
    40    15    17    1
    41    15    16    1
    42     1    39    1
    43     1    40    1
    44     1    41    1
    45     3    42    1
    46     4    43    1
    47     4    44    1
    48     8    45    1
    49     8    46    1
    50     9    47    1
    51     9    48    1
    52     9    49    1
    53    11    50    1
    54    12    51    1
    55    12    52    1
    56    13    53    1
    57    13    54    1
    58    14    55    1
    59    19    56    1
    60    19    57    1
    61    19    58    1
    62    25    59    1
    63    25    60    1
    64    25    61    1
    65    31    62    1
    66    31    63    1
    67    31    64    1
    68    33    65    1
    69    33    66    1
    70    35    67    1
    71    35    68    1
    72    35    69    1
    73    36    70    1
    74    37    71    1
    75    37    72    1
    76    38    73    1
    77    38    74    1
