@<TRIPOS>MOLECULE
NuBBE_1938
 39 41 0 0 0
SMALL
GASTEIGER

@<TRIPOS>ATOM
      1 C          -0.1323    0.4615    2.1101 C.3     1  LIG1       -0.0585
      2 C           0.0815   -0.2431    0.7703 C.3     1  LIG1       -0.0199
      3 C           1.2633    0.1356   -0.1486 C.3     1  LIG1       -0.0054
      4 C           2.6783    0.0122    0.4753 C.3     1  LIG1       -0.0553
      5 C           1.0050   -1.0292   -1.3288 C.2     1  LIG1       -0.0671
      6 C           1.7904   -1.3079   -2.3501 C.2     1  LIG1       -0.0986
      7 C          -0.3654   -1.9468   -1.1286 C.3     1  LIG1       -0.0193
      8 H          -0.5187   -2.6333   -1.9681 H       1  LIG1        0.0346
      9 C          -0.2299   -2.7315    0.1671 C.3     1  LIG1       -0.0460
     10 C           0.3290   -1.7626    1.1778 C.3     1  LIG1       -0.0460
     11 C          -1.6658   -1.0954   -0.9131 C.3     1  LIG1       -0.0429
     12 C          -1.0781    0.1287   -0.2938 C.3     1  LIG1       -0.0317
     13 H          -0.5846    0.3480   -1.2590 H       1  LIG1        0.0309
     14 C          -1.5864    1.5475   -0.3506 C.3     1  LIG1       -0.0405
     15 H          -2.1494    1.6708   -1.2906 H       1  LIG1        0.0301
     16 C          -0.3089    2.4340   -0.5059 C.3     1  LIG1       -0.0494
     17 C           1.1008    1.7196   -0.4175 C.3     1  LIG1       -0.0432
     18 C          -2.5611    1.9320    0.7466 C.3     1  LIG1       -0.0621
     19 H           0.6198    0.1707    2.8507 H       1  LIG1        0.0235
     20 H          -1.1020    0.1367    2.5148 H       1  LIG1        0.0235
     21 H          -0.1403    1.5486    2.0590 H       1  LIG1        0.0235
     22 H           3.0976   -0.9958    0.4320 H       1  LIG1        0.0238
     23 H           2.6677    0.3333    1.5243 H       1  LIG1        0.0238
     24 H           3.3939    0.6646   -0.0416 H       1  LIG1        0.0238
     25 H           2.7260   -0.7841   -2.5598 H       1  LIG1        0.0535
     26 H           1.5266   -2.1163   -3.0458 H       1  LIG1        0.0535
     27 H           0.4100   -3.6117    0.0508 H       1  LIG1        0.0271
     28 H          -1.1970   -3.1017    0.5315 H       1  LIG1        0.0271
     29 H           1.4066   -1.9680    1.2256 H       1  LIG1        0.0271
     30 H          -0.0091   -2.0076    2.1888 H       1  LIG1        0.0271
     31 H          -2.4161   -1.5482   -0.2593 H       1  LIG1        0.0274
     32 H          -2.1521   -0.8787   -1.8720 H       1  LIG1        0.0274
     33 H          -0.3343    3.2802    0.1930 H       1  LIG1        0.0268
     34 H          -0.3477    2.9014   -1.5008 H       1  LIG1        0.0268
     35 H           1.5738    2.2220    0.4443 H       1  LIG1        0.0274
     36 H           1.7155    2.0164   -1.2760 H       1  LIG1        0.0274
     37 H          -2.8744    1.0604    1.3280 H       1  LIG1        0.0233
     38 H          -3.4714    2.3466    0.2971 H       1  LIG1        0.0233
     39 H          -2.1609    2.6910    1.4228 H       1  LIG1        0.0233
@<TRIPOS>BOND
     1     2     3    1
     2     3     5    1
     3     5     7    1
     4     7     9    1
     5     9    10    1
     6     2    10    1
     7     7    11    1
     8    11    12    1
     9     2    12    1
    10    12    14    1
    11    14    16    1
    12    16    17    1
    13     3    17    1
    14     1     2    1
    15     3     4    1
    16     5     6    2
    17     7     8    1
    18    12    13    1
    19    14    15    1
    20    14    18    1
    21     1    19    1
    22     1    20    1
    23     1    21    1
    24     4    22    1
    25     4    23    1
    26     4    24    1
    27     6    25    1
    28     6    26    1
    29     9    27    1
    30     9    28    1
    31    10    29    1
    32    10    30    1
    33    11    31    1
    34    11    32    1
    35    16    33    1
    36    16    34    1
    37    17    35    1
    38    17    36    1
    39    18    37    1
    40    18    38    1
    41    18    39    1
