@<TRIPOS>MOLECULE
NuBBE_1594
 51 50 0 0 0
SMALL
GASTEIGER

@<TRIPOS>ATOM
      1 C           0.6884    3.3689   -3.2776 C.2     1  LIG1        0.2369
      2 O           0.6824    4.5965   -3.2342 O.2     1  LIG1       -0.2708
      3 C          -0.2134    2.5334   -2.4430 C.2     1  LIG1        0.0001
      4 C          -1.0832    3.0796   -1.5770 C.2     1  LIG1       -0.0571
      5 C          -2.0318    2.2806   -0.8316 C.2     1  LIG1       -0.0655
      6 C          -1.6685    1.2889   -0.0042 C.2     1  LIG1       -0.0837
      7 C          -2.6417    0.4300    0.7609 C.3     1  LIG1       -0.0310
      8 C          -2.1264   -0.9888    1.0566 C.3     1  LIG1       -0.0313
      9 C          -0.8616   -1.0026    1.8757 C.2     1  LIG1       -0.0876
     10 C          -0.7504   -1.1133    3.2091 C.2     1  LIG1       -0.0879
     11 C          -1.8648   -1.2224    4.2107 C.3     1  LIG1       -0.0348
     12 C          -2.2124   -2.6677    4.5733 C.3     1  LIG1       -0.0496
     13 C          -1.0694   -3.4536    5.2260 C.3     1  LIG1       -0.0530
     14 C          -1.4737   -4.8913    5.5727 C.3     1  LIG1       -0.0559
     15 C          -1.8879   -5.7023    4.3527 C.3     1  LIG1       -0.0653
     16 N           1.4888    2.6148   -4.1012 N.am    1  LIG1       -0.3116
     17 C           2.4062    3.1854   -5.0735 C.3     1  LIG1        0.0142
     18 C           3.8778    2.8526   -4.7737 C.3     1  LIG1       -0.0311
     19 C           4.1590    1.3489   -4.8438 C.3     1  LIG1       -0.0612
     20 C           4.7783    3.5948   -5.7647 C.3     1  LIG1       -0.0612
     21 H          -0.1805    1.4603   -2.5772 H       1  LIG1        0.0669
     22 H          -1.1453    4.1594   -1.4518 H       1  LIG1        0.0619
     23 H          -3.0814    2.5394   -0.9574 H       1  LIG1        0.0614
     24 H          -0.6091    1.1010    0.1529 H       1  LIG1        0.0572
     25 H          -3.5777    0.3411    0.1940 H       1  LIG1        0.0310
     26 H          -2.8821    0.9278    1.7074 H       1  LIG1        0.0310
     27 H          -1.9346   -1.5200    0.1148 H       1  LIG1        0.0310
     28 H          -2.9146   -1.5577    1.5640 H       1  LIG1        0.0310
     29 H           0.0609   -0.9191    1.3018 H       1  LIG1        0.0569
     30 H           0.2530   -1.0950    3.6332 H       1  LIG1        0.0569
     31 H          -2.7672   -0.7293    3.8305 H       1  LIG1        0.0307
     32 H          -1.5792   -0.6704    5.1142 H       1  LIG1        0.0307
     33 H          -2.5422   -3.1773    3.6618 H       1  LIG1        0.0268
     34 H          -3.0694   -2.6586    5.2581 H       1  LIG1        0.0268
     35 H          -0.7522   -2.9448    6.1451 H       1  LIG1        0.0265
     36 H          -0.1969   -3.4826    4.5631 H       1  LIG1        0.0265
     37 H          -2.2948   -4.8830    6.2991 H       1  LIG1        0.0263
     38 H          -0.6264   -5.3916    6.0568 H       1  LIG1        0.0263
     39 H          -2.8237   -5.3299    3.9249 H       1  LIG1        0.0230
     40 H          -2.0512   -6.7483    4.6276 H       1  LIG1        0.0230
     41 H          -1.1158   -5.6665    3.5776 H       1  LIG1        0.0230
     42 H           1.3838    1.6093   -4.0993 H       1  LIG1        0.1490
     43 H           2.2745    4.2724   -5.1125 H       1  LIG1        0.0465
     44 H           2.1202    2.7851   -6.0534 H       1  LIG1        0.0465
     45 H           4.1240    3.1969   -3.7612 H       1  LIG1        0.0311
     46 H           3.8232    0.9235   -5.7956 H       1  LIG1        0.0233
     47 H           3.6509    0.8153   -4.0342 H       1  LIG1        0.0233
     48 H           5.2316    1.1463   -4.7456 H       1  LIG1        0.0233
     49 H           4.5697    3.2881   -6.7956 H       1  LIG1        0.0233
     50 H           5.8364    3.3995   -5.5606 H       1  LIG1        0.0233
     51 H           4.6204    4.6763   -5.6955 H       1  LIG1        0.0233
@<TRIPOS>BOND
     1     1     2    2
     2     1     3    1
     3     3     4    2
     4     4     5    1
     5     5     6    2
     6     6     7    1
     7     7     8    1
     8     8     9    1
     9     9    10    2
    10    10    11    1
    11    11    12    1
    12    12    13    1
    13    13    14    1
    14    14    15    1
    15     1    16   am
    16    16    17    1
    17    17    18    1
    18    18    19    1
    19    18    20    1
    20     3    21    1
    21     4    22    1
    22     5    23    1
    23     6    24    1
    24     7    25    1
    25     7    26    1
    26     8    27    1
    27     8    28    1
    28     9    29    1
    29    10    30    1
    30    11    31    1
    31    11    32    1
    32    12    33    1
    33    12    34    1
    34    13    35    1
    35    13    36    1
    36    14    37    1
    37    14    38    1
    38    15    39    1
    39    15    40    1
    40    15    41    1
    41    16    42    1
    42    17    43    1
    43    17    44    1
    44    18    45    1
    45    19    46    1
    46    19    47    1
    47    19    48    1
    48    20    49    1
    49    20    50    1
    50    20    51    1
