REMARK  Name = NuBBE_2364
REMARK  8 active torsions:
REMARK  status: ('A' for Active; 'I' for Inactive)
REMARK    1  A    between atoms: C_1  and  C_2
REMARK    2  A    between atoms: C_2  and  C_3
REMARK    3  A    between atoms: C_3  and  O_4
REMARK    4  A    between atoms: C_9  and  C_10
REMARK    5  A    between atoms: C_18  and  O_19
REMARK    6  A    between atoms: C_20  and  C_21
REMARK    7  A    between atoms: C_21  and  C_22
REMARK    8  A    between atoms: C_21  and  C_23
REMARK                            x       y       z     vdW  Elec       q    Type
REMARK                         _______ _______ _______ _____ _____    ______ ____
ROOT
ATOM      1  C   LIG A   1      -1.721  -3.101   1.668  0.00  0.00    +0.023 C 
ATOM      2  C   LIG A   1      -2.170  -1.657   1.989  0.00  0.00    +0.068 C 
ATOM      3  C   LIG A   1      -1.703  -1.277   3.404  0.00  0.00    +0.018 C 
ATOM      4  C   LIG A   1      -0.193  -1.132   3.532  0.00  0.00    +0.002 C 
ATOM      5  C   LIG A   1       0.525  -0.714   2.249  0.00  0.00    +0.012 C 
ATOM      6  C   LIG A   1      -0.312   0.160   1.283  0.00  0.00    -0.003 C 
ATOM      7  C   LIG A   1      -0.654   1.511   1.976  0.00  0.00    +0.016 C 
ATOM      8  C   LIG A   1      -1.670  -0.584   0.934  0.00  0.00    +0.016 C 
ATOM      9  C   LIG A   1      -1.675  -1.166  -0.494  0.00  0.00    +0.010 C 
ATOM     10  C   LIG A   1      -1.357  -0.086  -1.513  0.00  0.00    +0.036 C 
ATOM     11  C   LIG A   1       0.025   0.446  -1.266  0.00  0.00    -0.043 A 
ATOM     12  C   LIG A   1       0.535   0.543   0.040  0.00  0.00    -0.035 A 
ATOM     13  C   LIG A   1       1.838   1.060   0.186  0.00  0.00    +0.050 A 
ATOM     14  C   LIG A   1       2.600   1.454  -0.921  0.00  0.00    +0.121 A 
ATOM     15  C   LIG A   1       2.093   1.379  -2.218  0.00  0.00    -0.003 A 
ATOM     16  C   LIG A   1       0.792   0.874  -2.370  0.00  0.00    +0.011 A 
ENDROOT
BRANCH  15  17
ATOM     17  C   LIG A   1       2.912   1.829  -3.419  0.00  0.00    +0.016 C 
ATOM     18  C   LIG A   1       2.245   2.992  -4.161  0.00  0.00    +0.012 C 
ATOM     19  C   LIG A   1       3.202   0.673  -4.381  0.00  0.00    +0.012 C 
ENDBRANCH  15  17
BRANCH   2  20
ATOM     20  C   LIG A   1      -3.707  -1.659   2.008  0.00  0.00    +0.311 C 
ATOM     21  O   LIG A   1      -4.457  -0.971   1.333  0.00  0.00    -0.250 OA
BRANCH  20  22
ATOM     22  O   LIG A   1      -4.233  -2.531   2.893  0.00  0.00    -0.480 OA
ATOM     23  H   LIG A   1      -5.201  -2.407   2.796  0.00  0.00    +0.295 HD
ENDBRANCH  20  22
ENDBRANCH   2  20
BRANCH  14  24
ATOM     24  O   LIG A   1       3.868   1.931  -0.726  0.00  0.00    -0.506 OA
ATOM     25  H   LIG A   1       4.079   1.882   0.219  0.00  0.00    +0.292 HD
ENDBRANCH  14  24
TORSDOF 4
