@<TRIPOS>MOLECULE
NuBBE_931
 36 37 0 0 0
SMALL
GASTEIGER

@<TRIPOS>ATOM
      1 C           1.0340   -0.3634    0.0044 C.3     1  LIG1        0.1166
      2 H           1.8052    0.3179   -0.3736 H       1  LIG1        0.0675
      3 C           0.9725   -0.2347    1.5645 C.3     1  LIG1        0.1059
      4 H           0.5879    0.7610    1.8196 H       1  LIG1        0.0670
      5 C           2.3029   -0.4492    2.2908 C.2     1  LIG1       -0.0488
      6 C           3.1352    0.5715    2.5679 C.2     1  LIG1       -0.0972
      7 C           2.6663   -1.8467    2.7329 C.3     1  LIG1       -0.0415
      8 O           0.0325   -1.1794    2.0933 O.3     1  LIG1       -0.3846
      9 O           1.4882   -1.6711   -0.3702 O.3     1  LIG1       -0.3840
     10 C          -0.2906   -0.0159   -0.6916 C.ar    1  LIG1        0.0681
     11 C          -0.5781    1.3250   -1.0344 C.ar    1  LIG1        0.1483
     12 C          -1.7776    1.7148   -1.6458 C.ar    1  LIG1        0.0182
     13 C          -2.7312    0.7505   -1.9472 C.ar    1  LIG1       -0.0476
     14 C          -2.4868   -0.5810   -1.6193 C.ar    1  LIG1       -0.0188
     15 C          -1.2824   -0.9729   -1.0044 C.ar    1  LIG1        0.1294
     16 O          -1.0573   -2.2817   -0.6510 O.3     1  LIG1       -0.4946
     17 C          -1.6752   -3.2553   -1.4916 C.3     1  LIG1        0.0788
     18 C          -2.0357    3.1172   -1.9278 C.ar    1  LIG1       -0.0443
     19 C          -1.1200    4.0257   -1.5970 C.ar    1  LIG1        0.0236
     20 C           0.1541    3.6684   -0.9679 C.ar    1  LIG1        0.3372
     21 O           0.9698    4.5359   -0.6598 O.2     1  LIG1       -0.2452
     22 O           0.3868    2.3220   -0.7334 O.2     1  LIG1       -0.4217
     23 H           2.9278    1.5889    2.2512 H       1  LIG1        0.0535
     24 H           4.0693    0.4126    3.1031 H       1  LIG1        0.0535
     25 H           2.8518   -2.4908    1.8695 H       1  LIG1        0.0275
     26 H           1.8712   -2.2907    3.3407 H       1  LIG1        0.0275
     27 H           3.5695   -1.8591    3.3553 H       1  LIG1        0.0275
     28 H          -0.0722   -0.9634    3.0353 H       1  LIG1        0.2103
     29 H           0.9662   -2.2701    0.2000 H       1  LIG1        0.2104
     30 H          -3.6731    1.0171   -2.4199 H       1  LIG1        0.0626
     31 H          -3.2691   -1.3014   -1.8404 H       1  LIG1        0.0654
     32 H          -1.1737   -4.2129   -1.3274 H       1  LIG1        0.0660
     33 H          -1.5704   -3.0027   -2.5534 H       1  LIG1        0.0660
     34 H          -2.7302   -3.3826   -1.2254 H       1  LIG1        0.0660
     35 H          -2.9767    3.4052   -2.3822 H       1  LIG1        0.0627
     36 H          -1.2907    5.0913   -1.7647 H       1  LIG1        0.0689
@<TRIPOS>BOND
     1     1     2    1
     2     3     5    1
     3     5     6    2
     4     5     7    1
     5     3     8    1
     6     1     9    1
     7     1    10    1
     8    10    11   ar
     9    11    12   ar
    10    12    13   ar
    11    13    14   ar
    12    14    15   ar
    13    10    15   ar
    14    15    16    1
    15    16    17    1
    16    12    18   ar
    17    18    19   ar
    18    19    20   ar
    19    20    21    2
    20    20    22   ar
    21    11    22   ar
    22     3     4    1
    23     3     1    1
    24     6    23    1
    25     6    24    1
    26     7    25    1
    27     7    26    1
    28     7    27    1
    29     8    28    1
    30     9    29    1
    31    13    30    1
    32    14    31    1
    33    17    32    1
    34    17    33    1
    35    17    34    1
    36    18    35    1
    37    19    36    1
