REMARK  Name = NuBBE_1073
REMARK  7 active torsions:
REMARK  status: ('A' for Active; 'I' for Inactive)
REMARK    1  A    between atoms: C_1  and  C_2
REMARK    2  A    between atoms: C_1  and  C_13
REMARK    3  A    between atoms: C_2  and  C_3
REMARK    4  A    between atoms: C_3  and  C_4
REMARK    5  A    between atoms: C_5  and  O_6
REMARK    6  A    between atoms: C_8  and  O_11
REMARK    7  A    between atoms: O_11  and  C_12
REMARK                            x       y       z     vdW  Elec       q    Type
REMARK                         _______ _______ _______ _____ _____    ______ ____
ROOT
ATOM      1  C   LIG A   1      -0.329   0.427   0.654  0.00  0.00    +0.009 C 
ENDROOT
BRANCH   1   2
ATOM      2  C   LIG A   1       0.148   0.636   2.092  0.00  0.00    +0.035 C 
BRANCH   2   3
ATOM      3  C   LIG A   1       1.330  -0.238   2.487  0.00  0.00    -0.044 A 
ATOM      4  C   LIG A   1       1.950  -0.008   3.727  0.00  0.00    +0.053 A 
ATOM      5  C   LIG A   1       3.051  -0.771   4.066  0.00  0.00    +0.167 A 
ATOM      6  C   LIG A   1       3.542  -1.748   3.233  0.00  0.00    +0.166 A 
ATOM      7  C   LIG A   1       2.958  -2.023   2.021  0.00  0.00    +0.050 A 
ATOM      8  C   LIG A   1       1.847  -1.262   1.650  0.00  0.00    +0.007 A 
ATOM      9  O   LIG A   1       4.638  -2.369   3.745  0.00  0.00    -0.453 OA
ATOM     10  C   LIG A   1       4.815  -1.628   4.970  0.00  0.00    +0.466 C 
ATOM     11  O   LIG A   1       3.776  -0.656   5.211  0.00  0.00    -0.453 OA
ENDBRANCH   2   3
ENDBRANCH   1   2
BRANCH   1  12
ATOM     12  C   LIG A   1      -1.437   1.381   0.203  0.00  0.00    +0.039 C 
BRANCH  12  13
ATOM     13  C   LIG A   1      -1.968   1.128  -1.203  0.00  0.00    -0.006 A 
ATOM     14  C   LIG A   1      -1.183   0.710  -2.286  0.00  0.00    +0.123 A 
ATOM     15  C   LIG A   1      -1.733   0.481  -3.551  0.00  0.00    +0.091 A 
ATOM     16  C   LIG A   1      -3.088   0.704  -3.777  0.00  0.00    +0.124 A 
ATOM     17  C   LIG A   1      -3.877   1.171  -2.728  0.00  0.00    +0.046 A 
ATOM     18  C   LIG A   1      -3.326   1.382  -1.457  0.00  0.00    +0.011 A 
BRANCH  14  19
ATOM     19  O   LIG A   1       0.163   0.527  -2.135  0.00  0.00    -0.506 OA
ATOM     20  H   LIG A   1       0.548   0.208  -2.967  0.00  0.00    +0.292 HD
ENDBRANCH  14  19
BRANCH  16  21
ATOM     21  O   LIG A   1      -3.736   0.518  -4.966  0.00  0.00    -0.495 OA
ATOM     22  C   LIG A   1      -2.974  -0.057  -6.023  0.00  0.00    +0.277 C 
ENDBRANCH  16  21
ENDBRANCH  12  13
ENDBRANCH   1  12
TORSDOF 6
