@<TRIPOS>MOLECULE
NuBBE_1421
 54 57 0 0 0
SMALL
GASTEIGER

@<TRIPOS>ATOM
      1 O           1.8859   -0.7231   -5.1889 O.3     1  LIG1       -0.4914
      2 C           1.6912    0.6825   -5.3386 C.3     1  LIG1        0.0790
      3 C           1.3993   -1.2886   -4.0301 C.ar    1  LIG1        0.1618
      4 C           0.7357   -0.5360   -3.0541 C.ar    1  LIG1       -0.0107
      5 C           0.2716   -1.1187   -1.8655 C.ar    1  LIG1       -0.0149
      6 C           0.4456   -2.4810   -1.6718 C.ar    1  LIG1       -0.0524
      7 C           1.0951   -3.2521   -2.6380 C.ar    1  LIG1       -0.0160
      8 C           1.5776   -2.6643   -3.8224 C.ar    1  LIG1        0.1615
      9 O           2.2269   -3.3846   -4.8008 O.3     1  LIG1       -0.4915
     10 C           2.3248   -4.7896   -4.5926 C.3     1  LIG1        0.0790
     11 C          -0.4074   -0.2650   -0.8222 C.3     1  LIG1        0.0891
     12 H          -0.1483   -0.6723    0.1584 H       1  LIG1        0.0650
     13 C          -1.9147   -0.1559   -1.0471 C.3     1  LIG1        0.0205
     14 H          -2.1771   -0.3677   -2.0919 H       1  LIG1        0.0356
     15 C          -2.2154    1.2701   -0.6726 C.3     1  LIG1        0.0205
     16 H          -3.0744    1.6458   -1.2427 H       1  LIG1        0.0356
     17 C          -0.9546    1.9947   -1.0595 C.3     1  LIG1        0.0544
     18 O           0.1225    1.0785   -0.8540 O.3     1  LIG1       -0.3712
     19 C          -2.6146    1.1824    0.8037 C.3     1  LIG1        0.0891
     20 H          -3.4331    1.8922    0.9799 H       1  LIG1        0.0650
     21 O          -3.1960   -0.1291    0.9617 O.3     1  LIG1       -0.3712
     22 C          -2.7558   -0.9821   -0.1034 C.3     1  LIG1        0.0544
     23 C          -1.5937    1.4255    1.9003 C.ar    1  LIG1       -0.0149
     24 C          -0.8931    0.3831    2.5322 C.ar    1  LIG1       -0.0107
     25 C           0.0195    0.6172    3.5751 C.ar    1  LIG1        0.1618
     26 O           0.6540   -0.5265    3.9931 O.3     1  LIG1       -0.4914
     27 C           1.0818   -0.5802    5.3463 C.3     1  LIG1        0.0790
     28 C           0.2205    1.9242    4.0335 C.ar    1  LIG1        0.1615
     29 C          -0.4746    2.9718    3.4100 C.ar    1  LIG1       -0.0160
     30 C          -1.3592    2.7250    2.3533 C.ar    1  LIG1       -0.0524
     31 O           1.1423    2.1501    5.0209 O.3     1  LIG1       -0.4915
     32 C           0.9359    3.2965    5.8376 C.3     1  LIG1        0.0790
     33 H           0.6230    0.9354   -5.3503 H       1  LIG1        0.0660
     34 H           2.1087    0.9973   -6.2978 H       1  LIG1        0.0660
     35 H           2.2127    1.2440   -4.5519 H       1  LIG1        0.0660
     36 H           0.5769    0.5249   -3.1803 H       1  LIG1        0.0659
     37 H           0.0965   -2.9663   -0.7615 H       1  LIG1        0.0622
     38 H           1.2162   -4.3050   -2.4274 H       1  LIG1        0.0655
     39 H           1.3296   -5.2489   -4.5422 H       1  LIG1        0.0660
     40 H           2.9049   -5.0170   -3.6898 H       1  LIG1        0.0660
     41 H           2.8520   -5.2343   -5.4399 H       1  LIG1        0.0660
     42 H          -0.7709    2.9240   -0.5170 H       1  LIG1        0.0564
     43 H          -0.9718    2.2354   -2.1305 H       1  LIG1        0.0564
     44 H          -3.6499   -1.3676   -0.6032 H       1  LIG1        0.0564
     45 H          -2.2170   -1.8350    0.3207 H       1  LIG1        0.0564
     46 H          -1.0608   -0.6470    2.2323 H       1  LIG1        0.0659
     47 H           0.2574   -0.3610    6.0324 H       1  LIG1        0.0660
     48 H           1.9469    0.0605    5.5294 H       1  LIG1        0.0660
     49 H           1.4150   -1.6053    5.5434 H       1  LIG1        0.0660
     50 H          -0.3296    4.0032    3.7123 H       1  LIG1        0.0655
     51 H          -1.8713    3.5702    1.8951 H       1  LIG1        0.0622
     52 H           1.6218    3.2283    6.6875 H       1  LIG1        0.0660
     53 H          -0.0854    3.3249    6.2328 H       1  LIG1        0.0660
     54 H           1.1769    4.2166    5.2964 H       1  LIG1        0.0660
@<TRIPOS>BOND
     1     1     2    1
     2     1     3    1
     3     3     4   ar
     4     4     5   ar
     5     5     6   ar
     6     6     7   ar
     7     7     8   ar
     8     3     8   ar
     9     8     9    1
    10     9    10    1
    11    11    13    1
    12    13    14    1
    13    13    15    1
    14    15    16    1
    15    15    17    1
    16    17    18    1
    17    11    18    1
    18    15    19    1
    19    19    21    1
    20    21    22    1
    21    13    22    1
    22    23    24   ar
    23    24    25   ar
    24    25    26    1
    25    26    27    1
    26    25    28   ar
    27    28    29   ar
    28    29    30   ar
    29    23    30   ar
    30    28    31    1
    31    31    32    1
    32    11    12    1
    33    11     5    1
    34    19    23    1
    35    19    20    1
    36     2    33    1
    37     2    34    1
    38     2    35    1
    39     4    36    1
    40     6    37    1
    41     7    38    1
    42    10    39    1
    43    10    40    1
    44    10    41    1
    45    17    42    1
    46    17    43    1
    47    22    44    1
    48    22    45    1
    49    24    46    1
    50    27    47    1
    51    27    48    1
    52    27    49    1
    53    29    50    1
    54    30    51    1
    55    32    52    1
    56    32    53    1
    57    32    54    1
