@<TRIPOS>MOLECULE
NuBBE_2270
 37 38 0 0 0
SMALL
GASTEIGER

@<TRIPOS>ATOM
      1 C           2.5036   -0.8197   -0.1690 C.ar    1  LIG1        0.0000
      2 C           1.2580   -0.1360   -0.1173 C.ar    1  LIG1        0.0000
      3 C           1.2363    1.2913   -0.0308 C.ar    1  LIG1        0.0000
      4 C           2.4775    2.0044    0.0471 C.ar    1  LIG1        0.0000
      5 C           3.6793    1.2865    0.0236 C.ar    1  LIG1        0.0000
      6 C           3.6924   -0.0946   -0.0904 C.ar    1  LIG1        0.0000
      7 C           2.6165    3.5103    0.1160 C.3     1  LIG1        0.0000
      8 C          -0.1021    1.9617   -0.0410 C.2     1  LIG1        0.0000
      9 O          -0.2610    3.0954    0.3775 O.2     1  LIG1        0.0000
     10 C          -1.2987    1.1948   -0.5203 C.3     1  LIG1        0.0000
     11 C          -1.3249   -0.1422    0.2178 C.3     1  LIG1        0.0000
     12 H          -1.2757    0.0993    1.3064 H       1  LIG1        0.0000
     13 C          -0.0428   -0.9390   -0.1495 C.3     1  LIG1        0.0000
     14 C          -2.6636   -0.9346   -0.0042 C.3     1  LIG1        0.0000
     15 C          -2.6918   -2.2852    0.7406 C.3     1  LIG1        0.0000
     16 C          -3.8754   -0.0884    0.4285 C.3     1  LIG1        0.0000
     17 O          -2.7870   -1.1877   -1.3776 O.3     1  LIG1        0.0000
     18 AC         -4.8921   -2.4259   -1.6677 Ac      1  LIG1        0.0000
     19 C           2.6185   -2.3217   -0.2967 C.3     1  LIG1        0.0000
     20 H           4.6257    1.8125    0.0752 H       1  LIG1        0.0000
     21 H           4.6453   -0.6100   -0.1201 H       1  LIG1        0.0000
     22 H           1.6959    4.1043    0.0695 H       1  LIG1        0.0000
     23 H           3.2314    3.8516   -0.7440 H       1  LIG1        0.0000
     24 H           3.1437    3.7864    1.0537 H       1  LIG1        0.0000
     25 H          -1.2080    1.0205   -1.6137 H       1  LIG1        0.0000
     26 H          -2.2185    1.7909   -0.3315 H       1  LIG1        0.0000
     27 H          -0.1109   -1.3775   -1.1651 H       1  LIG1        0.0000
     28 H           0.0251   -1.7516    0.6022 H       1  LIG1        0.0000
     29 H          -2.6279   -2.1520    1.8389 H       1  LIG1        0.0000
     30 H          -1.8641   -2.9441    0.4078 H       1  LIG1        0.0000
     31 H          -3.6412   -2.8210    0.5313 H       1  LIG1        0.0000
     32 H          -3.8652    0.1102    1.5202 H       1  LIG1        0.0000
     33 H          -4.8233   -0.6199    0.2014 H       1  LIG1        0.0000
     34 H          -3.8859    0.8805   -0.1149 H       1  LIG1        0.0000
     35 H           1.6545   -2.8560   -0.3789 H       1  LIG1        0.0000
     36 H           3.1568   -2.7271    0.5860 H       1  LIG1        0.0000
     37 H           3.1996   -2.5663   -1.2109 H       1  LIG1        0.0000
@<TRIPOS>BOND
     1     1     2   ar
     2     2     3   ar
     3     3     4   ar
     4     4     5   ar
     5     5     6   ar
     6     1     6   ar
     7     4     7    1
     8     3     8    1
     9     8     9    2
    10     8    10    1
    11    10    11    1
    12    11    12    1
    13    11    13    1
    14     2    13    1
    15    11    14    1
    16    14    15    1
    17    14    16    1
    18    14    17    1
    19    17    18    1
    20     1    19    1
    21     5    20    1
    22     6    21    1
    23     7    22    1
    24     7    23    1
    25     7    24    1
    26    10    25    1
    27    10    26    1
    28    13    27    1
    29    13    28    1
    30    15    29    1
    31    15    30    1
    32    15    31    1
    33    16    32    1
    34    16    33    1
    35    16    34    1
    36    19    35    1
    37    19    36    1
    38    19    37    1
