REMARK  Name = NuBBE_1524
REMARK  14 active torsions:
REMARK  status: ('A' for Active; 'I' for Inactive)
REMARK    1  A    between atoms: C_1  and  C_2
REMARK    2  A    between atoms: C_7  and  C_23
REMARK    3  A    between atoms: C_8  and  C_9
REMARK    4  A    between atoms: C_9  and  C_11
REMARK    5  A    between atoms: C_9  and  C_14
REMARK    6  A    between atoms: C_11  and  O_12
REMARK    7  A    between atoms: C_14  and  C_15
REMARK    8  A    between atoms: C_15  and  C_16
REMARK    9  A    between atoms: C_17  and  C_18
REMARK   10  A    between atoms: C_17  and  C_19
REMARK   11  A    between atoms: C_24  and  C_37
REMARK   12  A    between atoms: C_26  and  C_27
REMARK   13  A    between atoms: C_26  and  C_33
REMARK   14  A    between atoms: C_28  and  O_30
REMARK                            x       y       z     vdW  Elec       q    Type
REMARK                         _______ _______ _______ _____ _____    ______ ____
ROOT
ATOM      1  C   LIG A   1      -1.697   0.393  -0.892  0.00  0.00    +0.016 C 
ATOM      2  C   LIG A   1      -0.148   0.264  -0.782  0.00  0.00    -0.005 C 
ATOM      3  C   LIG A   1       0.270  -1.164  -1.224  0.00  0.00    -0.063 C 
ATOM      4  C   LIG A   1       1.087  -1.960  -0.484  0.00  0.00    -0.064 C 
ATOM      5  C   LIG A   1       1.836  -1.431   0.724  0.00  0.00    +0.032 C 
ATOM      6  C   LIG A   1       1.783   0.079   0.870  0.00  0.00    +0.012 C 
ATOM      7  C   LIG A   1       0.357   0.654   0.667  0.00  0.00    -0.019 C 
ATOM      8  C   LIG A   1       0.522   2.234   0.652  0.00  0.00    +0.009 C 
ATOM      9  C   LIG A   1       0.263   2.645  -0.813  0.00  0.00    +0.006 C 
ATOM     10  C   LIG A   1       0.479   1.378  -1.643  0.00  0.00    +0.012 C 
ATOM     11  C   LIG A   1      -0.563   0.066   1.760  0.00  0.00    +0.012 C 
ATOM     12  C   LIG A   1       1.323  -3.466  -0.810  0.00  0.00    -0.007 C 
ATOM     13  C   LIG A   1       0.155  -3.972  -1.732  0.00  0.00    +0.007 C 
ATOM     14  C   LIG A   1       0.086  -5.515  -2.019  0.00  0.00    -0.005 C 
ATOM     15  C   LIG A   1      -1.275  -5.852  -2.690  0.00  0.00    +0.014 C 
ATOM     16  C   LIG A   1       0.178  -6.301  -0.676  0.00  0.00    +0.121 C 
ATOM     17  C   LIG A   1       1.312  -5.832   0.235  0.00  0.00    +0.032 C 
ATOM     18  C   LIG A   1       1.292  -4.322   0.486  0.00  0.00    +0.013 C 
ATOM     19  C   LIG A   1       1.176  -6.019  -2.987  0.00  0.00    +0.014 C 
ATOM     20  C   LIG A   1       0.056  -3.065  -2.965  0.00  0.00    +0.009 C 
ATOM     21  C   LIG A   1      -0.354  -1.659  -2.523  0.00  0.00    +0.031 C 
ATOM     22  C   LIG A   1       2.730  -3.553  -1.447  0.00  0.00    +0.016 C 
ENDROOT
BRANCH  16  23
ATOM     23  O   LIG A   1      -1.048  -6.227   0.059  0.00  0.00    -0.391 OA
ATOM     24  H   LIG A   1      -1.237  -5.296   0.264  0.00  0.00    +0.210 HD
ENDBRANCH  16  23
BRANCH   8  25
ATOM     25  C   LIG A   1      -0.243   3.074   1.720  0.00  0.00    +0.102 C 
BRANCH  25  26
ATOM     26  C   LIG A   1       0.283   2.788   3.112  0.00  0.00    +0.308 C 
ATOM     27  O   LIG A   1      -0.401   2.478   4.085  0.00  0.00    -0.251 OA
BRANCH  26  28
ATOM     28  O   LIG A   1       1.610   2.946   3.248  0.00  0.00    -0.480 OA
ATOM     29  H   LIG A   1       1.781   2.736   4.194  0.00  0.00    +0.295 HD
ENDBRANCH  26  28
ENDBRANCH  25  26
BRANCH  25  30
ATOM     30  C   LIG A   1      -0.162   4.603   1.469  0.00  0.00    +0.019 C 
BRANCH  30  31
ATOM     31  C   LIG A   1      -0.915   5.444   2.517  0.00  0.00    +0.028 C 
BRANCH  31  32
ATOM     32  C   LIG A   1      -0.869   6.916   2.183  0.00  0.00    -0.028 C 
ATOM     33  C   LIG A   1      -1.913   7.743   1.978  0.00  0.00    -0.080 C 
ATOM     34  C   LIG A   1      -3.360   7.342   2.073  0.00  0.00    +0.038 C 
ATOM     35  C   LIG A   1      -1.702   9.194   1.623  0.00  0.00    +0.038 C 
ENDBRANCH  31  32
ENDBRANCH  30  31
ENDBRANCH  25  30
ENDBRANCH   8  25
TORSDOF 7
