REMARK  Name = NuBBE_1077
REMARK  9 active torsions:
REMARK  status: ('A' for Active; 'I' for Inactive)
REMARK    1  A    between atoms: C_1  and  N_2
REMARK    2  A    between atoms: C_7  and  O_8
REMARK    3  A    between atoms: C_9  and  O_10
REMARK    4  A    between atoms: O_10  and  C_11
REMARK    5  A    between atoms: C_12  and  O_13
REMARK    6  A    between atoms: O_13  and  C_14
REMARK    7  A    between atoms: C_15  and  O_16
REMARK    8  A    between atoms: O_16  and  C_17
REMARK    9  A    between atoms: C_23  and  O_24
REMARK                            x       y       z     vdW  Elec       q    Type
REMARK                         _______ _______ _______ _____ _____    ______ ____
ROOT
ATOM      1  C   LIG A   1      -2.247   1.383   1.108  0.00  0.00    +0.149 C 
ATOM      2  N   LIG A   1      -1.163   1.432   0.094  0.00  0.00    -0.337 N 
ATOM      3  C   LIG A   1      -0.407   0.208   0.032  0.00  0.00    +0.103 A 
ATOM      4  C   LIG A   1       0.991   0.264   0.175  0.00  0.00    +0.095 A 
ATOM      5  C   LIG A   1       1.661   1.582   0.274  0.00  0.00    +0.201 A 
ATOM      6  O   LIG A   1       2.873   1.643   0.409  0.00  0.00    -0.286 OA
ATOM      7  C   LIG A   1       1.768  -0.905   0.257  0.00  0.00    +0.175 A 
ATOM      8  C   LIG A   1       1.174  -2.161   0.089  0.00  0.00    +0.208 A 
ATOM      9  C   LIG A   1      -0.193  -2.240  -0.236  0.00  0.00    +0.209 A 
ATOM     10  C   LIG A   1      -1.002  -1.070  -0.196  0.00  0.00    +0.190 A 
ATOM     11  C   LIG A   1      -0.525   2.711   0.064  0.00  0.00    +0.095 A 
ATOM     12  C   LIG A   1       0.865   2.813   0.170  0.00  0.00    +0.050 A 
ATOM     13  C   LIG A   1       1.525   4.053   0.187  0.00  0.00    +0.014 A 
ATOM     14  C   LIG A   1       0.790   5.231   0.092  0.00  0.00    +0.004 A 
ATOM     15  C   LIG A   1      -0.592   5.163  -0.054  0.00  0.00    +0.047 A 
ATOM     16  C   LIG A   1      -1.228   3.919  -0.095  0.00  0.00    +0.141 A 
ENDROOT
BRANCH   7  17
ATOM     17  O   LIG A   1       3.115  -0.841   0.525  0.00  0.00    -0.503 OA
ATOM     18  H   LIG A   1       3.389   0.105   0.532  0.00  0.00    +0.292 HD
ENDBRANCH   7  17
BRANCH   8  19
ATOM     19  O   LIG A   1       1.826  -3.342   0.342  0.00  0.00    -0.488 OA
ATOM     20  C   LIG A   1       3.169  -3.447  -0.116  0.00  0.00    +0.277 C 
ENDBRANCH   8  19
BRANCH   9  21
ATOM     21  O   LIG A   1      -0.824  -3.398  -0.622  0.00  0.00    -0.488 OA
ATOM     22  C   LIG A   1      -0.073  -4.521  -1.055  0.00  0.00    +0.277 C 
ENDBRANCH   9  21
BRANCH  10  23
ATOM     23  O   LIG A   1      -2.365  -1.066  -0.432  0.00  0.00    -0.489 OA
ATOM     24  C   LIG A   1      -3.109  -2.261  -0.180  0.00  0.00    +0.277 C 
ENDBRANCH  10  23
BRANCH  16  25
ATOM     25  O   LIG A   1      -2.568   3.928  -0.374  0.00  0.00    -0.505 OA
ATOM     26  H   LIG A   1      -2.745   3.072  -0.808  0.00  0.00    +0.292 HD
ENDBRANCH  16  25
TORSDOF 5
