REMARK  Name = NuBBE_2431
REMARK  4 active torsions:
REMARK  status: ('A' for Active; 'I' for Inactive)
REMARK    1  A    between atoms: C_6  and  C_9
REMARK    2  A    between atoms: C_16  and  O_20
REMARK    3  A    between atoms: C_18  and  O_19
REMARK    4  A    between atoms: O_20  and  C_21
REMARK                            x       y       z     vdW  Elec       q    Type
REMARK                         _______ _______ _______ _____ _____    ______ ____
ROOT
ATOM      1  O   LIG A   1      -3.646   0.104   0.703  0.00  0.00    -0.292 OA
ATOM      2  C   LIG A   1      -2.429   0.064   0.590  0.00  0.00    +0.174 C 
ATOM      3  C   LIG A   1      -1.673  -1.188   0.310  0.00  0.00    +0.101 A 
ATOM      4  C   LIG A   1      -0.310  -1.067   0.031  0.00  0.00    +0.139 A 
ATOM      5  O   LIG A   1       0.365   0.119  -0.033  0.00  0.00    -0.483 OA
ATOM      6  C   LIG A   1      -0.472   1.261  -0.249  0.00  0.00    +0.211 C 
ATOM      7  C   LIG A   1      -1.590   1.305   0.775  0.00  0.00    +0.129 C 
ATOM      8  C   LIG A   1       0.488  -2.192  -0.176  0.00  0.00    +0.092 A 
ATOM      9  C   LIG A   1      -0.072  -3.464  -0.135  0.00  0.00    +0.127 A 
ATOM     10  C   LIG A   1      -1.439  -3.598   0.125  0.00  0.00    +0.092 A 
ATOM     11  C   LIG A   1      -2.236  -2.468   0.352  0.00  0.00    +0.134 A 
ENDROOT
BRANCH   6  12
ATOM     12  C   LIG A   1       0.414   2.492  -0.185  0.00  0.00    -0.007 A 
ATOM     13  C   LIG A   1       0.090   3.630  -0.937  0.00  0.00    +0.007 A 
ATOM     14  C   LIG A   1       0.918   4.755  -0.913  0.00  0.00    +0.000 A 
ATOM     15  C   LIG A   1       2.075   4.758  -0.137  0.00  0.00    +0.000 A 
ATOM     16  C   LIG A   1       2.405   3.639   0.623  0.00  0.00    +0.000 A 
ATOM     17  C   LIG A   1       1.577   2.517   0.605  0.00  0.00    +0.007 A 
ENDBRANCH   6  12
BRANCH  11  18
ATOM     18  O   LIG A   1      -3.559  -2.643   0.637  0.00  0.00    -0.506 OA
ATOM     19  H   LIG A   1      -3.783  -3.587   0.635  0.00  0.00    +0.292 HD
ENDBRANCH  11  18
BRANCH   9  20
ATOM     20  O   LIG A   1       0.611  -4.634  -0.328  0.00  0.00    -0.495 OA
ATOM     21  C   LIG A   1       2.010  -4.514  -0.570  0.00  0.00    +0.277 C 
ENDBRANCH   9  20
TORSDOF 3
