@<TRIPOS>MOLECULE
NuBBE_1945
 39 41 0 0 0
SMALL
GASTEIGER

@<TRIPOS>ATOM
      1 C          -2.7158   -0.7452   -0.4493 C.3     1  LIG1       -0.0587
      2 C          -1.2006   -0.6901   -0.1517 C.3     1  LIG1       -0.0222
      3 C          -0.7667    0.6990    0.5193 C.3     1  LIG1       -0.0109
      4 C           0.6544    0.4621   -0.1154 C.3     1  LIG1       -0.0255
      5 H           1.1077    1.3982   -0.4829 H       1  LIG1        0.0315
      6 C          -0.1755   -0.2600   -1.2794 C.3     1  LIG1       -0.0309
      7 C          -0.7714    0.7246   -2.3030 C.3     1  LIG1       -0.0457
      8 C          -1.0964    2.0710   -1.6337 C.3     1  LIG1       -0.0314
      9 C          -1.4084    1.9058   -0.1567 C.2     1  LIG1       -0.0727
     10 C          -2.2282    2.7165    0.5155 C.2     1  LIG1       -0.0992
     11 C           1.8014   -0.1857    0.6947 C.3     1  LIG1       -0.0312
     12 C           1.4135   -1.4909    1.4022 C.3     1  LIG1       -0.0476
     13 C           0.6037   -2.4505    0.5590 C.3     1  LIG1       -0.0520
     14 C          -0.8630   -2.0488    0.5130 C.3     1  LIG1       -0.0468
     15 C           2.2696    0.7949    1.7942 C.3     1  LIG1       -0.0595
     16 C           2.9808   -0.4062   -0.2734 C.3     1  LIG1       -0.0595
     17 H          -3.1051    0.1374   -0.9608 H       1  LIG1        0.0235
     18 H          -3.2771   -0.8435    0.4883 H       1  LIG1        0.0235
     19 H          -2.9604   -1.6075   -1.0789 H       1  LIG1        0.0235
     20 H          -0.8123    0.7335    1.6139 H       1  LIG1        0.0354
     21 H           0.3279   -1.0757   -1.8051 H       1  LIG1        0.0309
     22 H          -1.6737    0.2932   -2.7527 H       1  LIG1        0.0271
     23 H          -0.0686    0.8852   -3.1281 H       1  LIG1        0.0271
     24 H          -1.9093    2.5684   -2.1743 H       1  LIG1        0.0310
     25 H          -0.2179    2.7238   -1.7261 H       1  LIG1        0.0310
     26 H          -2.6983    3.5646    0.0216 H       1  LIG1        0.0534
     27 H          -2.4571    2.5675    1.5658 H       1  LIG1        0.0534
     28 H           0.8507   -1.2777    2.3207 H       1  LIG1        0.0271
     29 H           2.3272   -2.0032    1.7328 H       1  LIG1        0.0271
     30 H           0.6613   -3.4460    1.0177 H       1  LIG1        0.0266
     31 H           1.0317   -2.5679   -0.4412 H       1  LIG1        0.0266
     32 H          -1.2834   -2.0689    1.5265 H       1  LIG1        0.0271
     33 H          -1.3715   -2.8498   -0.0413 H       1  LIG1        0.0271
     34 H           1.4848    0.9630    2.5408 H       1  LIG1        0.0235
     35 H           2.5409    1.7724    1.3826 H       1  LIG1        0.0235
     36 H           3.1453    0.3982    2.3228 H       1  LIG1        0.0235
     37 H           2.6888   -1.0060   -1.1406 H       1  LIG1        0.0235
     38 H           3.8193   -0.9078    0.2212 H       1  LIG1        0.0235
     39 H           3.3518    0.5520   -0.6580 H       1  LIG1        0.0235
@<TRIPOS>BOND
     1     1     2    1
     2     2     3    1
     3     3     4    1
     4     4     5    1
     5     4     6    1
     6     2     6    1
     7     6     7    1
     8     7     8    1
     9     8     9    1
    10     3     9    1
    11     9    10    2
    12     4    11    1
    13    11    12    1
    14    12    13    1
    15    13    14    1
    16     2    14    1
    17    11    15    1
    18    11    16    1
    19     1    17    1
    20     1    18    1
    21     1    19    1
    22     3    20    1
    23     6    21    1
    24     7    22    1
    25     7    23    1
    26     8    24    1
    27     8    25    1
    28    10    26    1
    29    10    27    1
    30    12    28    1
    31    12    29    1
    32    13    30    1
    33    13    31    1
    34    14    32    1
    35    14    33    1
    36    15    34    1
    37    15    35    1
    38    15    36    1
    39    16    37    1
    40    16    38    1
    41    16    39    1
