REMARK  Name = NuBBE_2406
REMARK  7 active torsions:
REMARK  status: ('A' for Active; 'I' for Inactive)
REMARK    1  A    between atoms: C_1  and  C_2
REMARK    2  A    between atoms: C_2  and  C_3
REMARK    3  A    between atoms: C_18  and  O_19
REMARK    4  A    between atoms: O_19  and  C_20
REMARK    5  A    between atoms: C_24  and  C_25
REMARK    6  A    between atoms: C_25  and  O_27
REMARK    7  A    between atoms: O_27  and  C_28
REMARK                            x       y       z     vdW  Elec       q    Type
REMARK                         _______ _______ _______ _____ _____    ______ ____
ROOT
ATOM      1  C   LIG A   1      -2.612   1.025  -0.269  0.00  0.00    +0.008 C 
ATOM      2  C   LIG A   1      -2.832   2.278  -1.123  0.00  0.00    +0.010 C 
ATOM      3  C   LIG A   1      -1.578   2.408  -1.987  0.00  0.00    +0.005 C 
ATOM      4  C   LIG A   1      -1.614   1.114  -2.972  0.00  0.00    +0.088 C 
ATOM      5  N   LIG A   1      -1.643  -0.172  -2.205  0.00  0.00    -0.297 NA
ATOM      6  C   LIG A   1      -0.684  -1.275  -2.527  0.00  0.00    +0.089 C 
ATOM      7  C   LIG A   1       0.263  -1.999  -1.404  0.00  0.00    +0.053 C 
ATOM      8  C   LIG A   1       0.842  -1.253  -0.155  0.00  0.00    -0.017 A 
ATOM      9  C   LIG A   1       0.726   0.113   0.111  0.00  0.00    +0.039 A 
ATOM     10  N   LIG A   1       1.278   0.419   1.308  0.00  0.00    -0.357 N 
ATOM     11  H   LIG A   1       1.342   1.339   1.724  0.00  0.00    +0.166 HD
ATOM     12  C   LIG A   1       1.696  -0.749   1.906  0.00  0.00    +0.050 A 
ATOM     13  C   LIG A   1       2.247  -0.939   3.181  0.00  0.00    +0.072 A 
ATOM     14  C   LIG A   1       2.549  -2.246   3.573  0.00  0.00    +0.122 A 
ATOM     15  C   LIG A   1       2.303  -3.315   2.712  0.00  0.00    +0.046 A 
ATOM     16  C   LIG A   1       1.771  -3.111   1.431  0.00  0.00    +0.014 A 
ATOM     17  C   LIG A   1       1.450  -1.805   1.017  0.00  0.00    +0.003 A 
ATOM     18  C   LIG A   1       0.047   0.980  -0.865  0.00  0.00    +0.123 C 
ATOM     19  C   LIG A   1      -0.367   2.425  -0.950  0.00  0.00    +0.030 C 
ATOM     20  C   LIG A   1      -1.389   0.214  -0.850  0.00  0.00    +0.082 C 
ENDROOT
BRANCH   1  22
ATOM     21  C   LIG A   1      -5.056   0.850   0.492  0.00  0.00    +0.004 C 
ATOM     22  C   LIG A   1      -3.883   0.151  -0.179  0.00  0.00    +0.002 C 
ENDBRANCH   1  22
BRANCH  14  23
ATOM     23  O   LIG A   1       3.041  -2.590   4.805  0.00  0.00    -0.495 OA
ATOM     24  C   LIG A   1       3.807  -1.585   5.462  0.00  0.00    +0.277 C 
ENDBRANCH  14  23
BRANCH  18  25
ATOM     25  C   LIG A   1       1.238   1.000  -1.962  0.00  0.00    +0.321 C 
ATOM     26  O   LIG A   1       1.240   0.632  -3.141  0.00  0.00    -0.250 OA
BRANCH  25  27
ATOM     27  O   LIG A   1       2.385   1.561  -1.401  0.00  0.00    -0.467 OA
ATOM     28  C   LIG A   1       3.549   1.416  -2.225  0.00  0.00    +0.280 C 
ENDBRANCH  25  27
ENDBRANCH  18  25
TORSDOF 4
