@<TRIPOS>MOLECULE
NuBBE_1273
 31 32 0 0 0
SMALL
GASTEIGER

@<TRIPOS>ATOM
      1 O          -5.7553    2.5754    0.6343 O.2     1  LIG1       -0.2452
      2 C          -4.5586    2.3056    0.6633 C.ar    1  LIG1        0.3372
      3 C          -3.5493    3.3790    0.6713 C.ar    1  LIG1        0.0236
      4 C          -2.2365    3.1293    0.6935 C.ar    1  LIG1       -0.0443
      5 C          -1.7720    1.7524    0.7173 C.ar    1  LIG1        0.0181
      6 C          -0.4124    1.4295    0.7456 C.ar    1  LIG1       -0.0441
      7 C           0.0116    0.0852    0.7795 C.ar    1  LIG1       -0.0014
      8 C          -0.9653   -0.9224    0.7580 C.ar    1  LIG1        0.1238
      9 O          -0.6537   -2.2520    0.7485 O.3     1  LIG1       -0.5064
     10 C          -2.3227   -0.6119    0.7420 C.ar    1  LIG1        0.0231
     11 C           1.4953   -0.2114    0.8159 C.3     1  LIG1       -0.0058
     12 C           2.0641   -0.3626   -0.5686 C.2     1  LIG1       -0.0809
     13 C           2.6808   -1.4271   -1.1186 C.2     1  LIG1       -0.0793
     14 C           2.9639   -2.7326   -0.4297 C.3     1  LIG1       -0.0440
     15 C           3.1506   -1.3743   -2.5512 C.3     1  LIG1       -0.0440
     16 C          -2.7091    0.7235    0.7189 C.ar    1  LIG1        0.1425
     17 O          -4.0902    0.9999    0.6901 O.2     1  LIG1       -0.4220
     18 H          -3.9382    4.3898    0.6581 H       1  LIG1        0.0689
     19 H          -1.5114    3.9352    0.6991 H       1  LIG1        0.0627
     20 H           0.3309    2.2247    0.7428 H       1  LIG1        0.0629
     21 H           0.2535   -2.3557    0.4183 H       1  LIG1        0.2921
     22 H          -3.0670   -1.4022    0.7359 H       1  LIG1        0.0691
     23 H           1.6772   -1.0818    1.4528 H       1  LIG1        0.0357
     24 H           2.0177    0.6141    1.3168 H       1  LIG1        0.0357
     25 H           1.9461    0.5296   -1.1859 H       1  LIG1        0.0575
     26 H           2.6819   -2.7385    0.6248 H       1  LIG1        0.0274
     27 H           4.0341   -2.9601   -0.4793 H       1  LIG1        0.0274
     28 H           2.4163   -3.5420   -0.9237 H       1  LIG1        0.0274
     29 H           2.8728   -0.4378   -3.0466 H       1  LIG1        0.0274
     30 H           2.7047   -2.1935   -3.1250 H       1  LIG1        0.0274
     31 H           4.2403   -1.4673   -2.5983 H       1  LIG1        0.0274
@<TRIPOS>BOND
     1     1     2    2
     2     2     3   ar
     3     3     4   ar
     4     4     5   ar
     5     5     6   ar
     6     6     7   ar
     7     7     8   ar
     8     8     9    1
     9     8    10   ar
    10     7    11    1
    11    11    12    1
    12    12    13    2
    13    13    14    1
    14    13    15    1
    15     5    16   ar
    16    10    16   ar
    17    16    17   ar
    18     2    17   ar
    19     3    18    1
    20     4    19    1
    21     6    20    1
    22     9    21    1
    23    10    22    1
    24    11    23    1
    25    11    24    1
    26    12    25    1
    27    14    26    1
    28    14    27    1
    29    14    28    1
    30    15    29    1
    31    15    30    1
    32    15    31    1
