REMARK  Name = NuBBE_276
REMARK  5 active torsions:
REMARK  status: ('A' for Active; 'I' for Inactive)
REMARK    1  A    between atoms: O_1  and  C_2
REMARK    2  A    between atoms: C_5  and  C_6
REMARK    3  A    between atoms: C_12  and  C_13
REMARK    4  A    between atoms: C_15  and  O_16
REMARK    5  A    between atoms: C_17  and  C_18
REMARK                            x       y       z     vdW  Elec       q    Type
REMARK                         _______ _______ _______ _____ _____    ______ ____
ROOT
ATOM      1  C   LIG A   1      -1.771  -0.949  -0.040  0.00  0.00    +0.138 A 
ATOM      2  C   LIG A   1      -1.063   0.269  -0.023  0.00  0.00    +0.106 A 
ATOM      3  C   LIG A   1       0.347   0.278  -0.026  0.00  0.00    -0.006 A 
ATOM      4  C   LIG A   1       1.049   1.617   0.025  0.00  0.00    +0.083 C 
ATOM      5  C   LIG A   1       1.372   2.010   1.470  0.00  0.00    +0.021 C 
ATOM      6  C   LIG A   1       0.208   2.679  -0.632  0.00  0.00    +0.109 C 
ATOM      7  O   LIG A   1      -1.166   2.692  -0.316  0.00  0.00    -0.427 OA
ATOM      8  C   LIG A   1      -1.825   1.547   0.020  0.00  0.00    +0.348 C 
ATOM      9  O   LIG A   1      -3.019   1.544   0.305  0.00  0.00    -0.244 OA
ATOM     10  C   LIG A   1       0.678   3.596  -1.488  0.00  0.00    +0.054 C 
ATOM     11  C   LIG A   1       1.031  -0.959  -0.037  0.00  0.00    +0.061 A 
ATOM     12  C   LIG A   1       0.304  -2.167  -0.078  0.00  0.00    +0.134 A 
ATOM     13  C   LIG A   1      -1.097  -2.176  -0.099  0.00  0.00    +0.034 A 
ATOM     14  C   LIG A   1      -1.861  -3.474  -0.103  0.00  0.00    +0.051 C 
ENDROOT
BRANCH   1  15
ATOM     15  O   LIG A   1      -3.143  -0.998   0.002  0.00  0.00    -0.506 OA
ATOM     16  H   LIG A   1      -3.503  -0.095   0.153  0.00  0.00    +0.292 HD
ENDBRANCH   1  15
BRANCH  11  17
ATOM     17  C   LIG A   1       2.515  -1.020   0.012  0.00  0.00    +0.262 C 
ATOM     18  O   LIG A   1       3.111  -2.091  -0.068  0.00  0.00    -0.296 OA
ENDBRANCH  11  17
BRANCH  12  19
ATOM     19  O   LIG A   1       0.929  -3.391  -0.084  0.00  0.00    -0.506 OA
ATOM     20  H   LIG A   1       1.903  -3.259  -0.096  0.00  0.00    +0.292 HD
ENDBRANCH  12  19
TORSDOF 3
