@<TRIPOS>MOLECULE
NuBBE_389
 88 88 0 0 0
SMALL
GASTEIGER

@<TRIPOS>ATOM
      1 C           0.7304   -5.9251   -0.7345 C.3     1  LIG1       -0.0653
      2 C           1.0845   -5.4148   -2.1399 C.3     1  LIG1       -0.0558
      3 C          -0.1423   -5.1567   -3.0197 C.3     1  LIG1       -0.0502
      4 C           0.0987   -4.7162   -4.4855 C.3     1  LIG1       -0.0186
      5 C           0.7329   -3.3446   -4.8555 C.3     1  LIG1        0.0896
      6 O           2.1211   -3.1915   -4.5122 O.3     1  LIG1       -0.4920
      7 C           2.5442   -2.2960   -3.5594 C.ar    1  LIG1        0.1205
      8 C           3.8853   -2.4153   -3.1462 C.ar    1  LIG1       -0.0197
      9 C           4.4279   -1.5956   -2.1400 C.ar    1  LIG1       -0.0550
     10 C           3.6464   -0.6051   -1.5527 C.ar    1  LIG1       -0.0439
     11 C           4.2166    0.3261   -0.5294 C.3     1  LIG1        0.0067
     12 C           4.7581    1.6830   -0.9673 C.3     1  LIG1        0.0964
     13 O           5.1215    2.4231    0.2263 O.3     1  LIG1       -0.4643
     14 C           6.2386    2.0395    0.8675 C.2     1  LIG1        0.3071
     15 C           6.0293    2.1677    2.3525 C.3     1  LIG1        0.0449
     16 C           5.4653    0.8960    3.0246 C.3     1  LIG1       -0.0430
     17 C           4.0227    0.4098    2.6857 C.3     1  LIG1       -0.0526
     18 C           2.8628    1.4572    2.7575 C.3     1  LIG1       -0.0530
     19 C           1.4017    1.0044    2.3570 C.3     1  LIG1       -0.0531
     20 C           0.2839    2.0915    2.5438 C.3     1  LIG1       -0.0531
     21 C          -1.1715    1.6939    2.0916 C.3     1  LIG1       -0.0531
     22 C          -1.7816    0.5481    2.9250 C.3     1  LIG1       -0.0531
     23 C          -3.2462    0.1214    2.6582 C.3     1  LIG1       -0.0531
     24 C          -3.5410   -0.5464    1.3042 C.3     1  LIG1       -0.0531
     25 C          -5.0267   -0.9139    1.0985 C.3     1  LIG1       -0.0531
     26 C          -6.0723    0.2006    1.2882 C.3     1  LIG1       -0.0531
     27 C          -5.9836    1.4284    0.3545 C.3     1  LIG1       -0.0531
     28 C          -4.7031    2.2535    0.4937 C.3     1  LIG1       -0.0531
     29 C          -4.5312    3.4767   -0.3903 C.3     1  LIG1       -0.0533
     30 C          -5.5152    4.5930   -0.1076 C.3     1  LIG1       -0.0559
     31 C          -5.2518    5.7938   -1.0054 C.3     1  LIG1       -0.0653
     32 O           7.2864    1.5588    0.3092 O.2     1  LIG1       -0.2509
     33 C           2.3000   -0.5171   -1.9174 C.ar    1  LIG1       -0.0550
     34 C           1.7680   -1.3213   -2.9400 C.ar    1  LIG1       -0.0197
     35 H           1.5299   -6.5688   -0.3462 H       1  LIG1        0.0230
     36 H          -0.1989   -6.5044   -0.7075 H       1  LIG1        0.0230
     37 H           0.6290   -5.0909   -0.0311 H       1  LIG1        0.0230
     38 H           1.7314   -6.1574   -2.6205 H       1  LIG1        0.0263
     39 H           1.6595   -4.4943   -2.0286 H       1  LIG1        0.0263
     40 H          -0.8193   -4.4517   -2.5258 H       1  LIG1        0.0266
     41 H          -0.6993   -6.1072   -3.0700 H       1  LIG1        0.0266
     42 H          -0.9025   -4.7115   -4.9454 H       1  LIG1        0.0298
     43 H           0.6432   -5.5159   -5.0041 H       1  LIG1        0.0298
     44 H           0.0919   -2.5080   -4.5652 H       1  LIG1        0.0696
     45 H           0.7015   -3.3122   -5.9596 H       1  LIG1        0.0696
     46 H           4.5349   -3.1613   -3.5977 H       1  LIG1        0.0654
     47 H           5.4543   -1.7452   -1.8044 H       1  LIG1        0.0621
     48 H           5.0076   -0.1964    0.0251 H       1  LIG1        0.0346
     49 H           3.3968    0.5519    0.1574 H       1  LIG1        0.0346
     50 H           3.9624    2.2537   -1.4511 H       1  LIG1        0.0701
     51 H           5.6030    1.5918   -1.6564 H       1  LIG1        0.0701
     52 H           5.3896    3.0345    2.5637 H       1  LIG1        0.0377
     53 H           7.0049    2.4090    2.8050 H       1  LIG1        0.0377
     54 H           5.5181    1.0339    4.1088 H       1  LIG1        0.0270
     55 H           6.1609    0.0723    2.7939 H       1  LIG1        0.0270
     56 H           3.7875   -0.4521    3.3227 H       1  LIG1        0.0265
     57 H           4.0901   -0.0705    1.7274 H       1  LIG1        0.0265
     58 H           3.1280    2.3283    2.1493 H       1  LIG1        0.0265
     59 H           2.8250    1.7795    3.8016 H       1  LIG1        0.0265
     60 H           1.1312    0.1497    2.9831 H       1  LIG1        0.0265
     61 H           1.3767    0.6700    1.3132 H       1  LIG1        0.0265
     62 H           0.5626    3.0076    2.0026 H       1  LIG1        0.0265
     63 H           0.2391    2.3700    3.6046 H       1  LIG1        0.0265
     64 H          -1.1758    1.4380    1.0265 H       1  LIG1        0.0265
     65 H          -1.8138    2.5840    2.1930 H       1  LIG1        0.0265
     66 H          -1.7409    0.8603    3.9771 H       1  LIG1        0.0265
     67 H          -1.1477   -0.3350    2.8263 H       1  LIG1        0.0265
     68 H          -3.8992    0.9802    2.8326 H       1  LIG1        0.0265
     69 H          -3.5241   -0.6046    3.4353 H       1  LIG1        0.0265
     70 H          -2.9390   -1.4553    1.1924 H       1  LIG1        0.0265
     71 H          -3.1964    0.0614    0.4737 H       1  LIG1        0.0265
     72 H          -5.2765   -1.7269    1.7963 H       1  LIG1        0.0265
     73 H          -5.1557   -1.3437    0.0961 H       1  LIG1        0.0265
     74 H          -6.0775    0.5258    2.3350 H       1  LIG1        0.0265
     75 H          -7.0612   -0.2584    1.1297 H       1  LIG1        0.0265
     76 H          -6.8456    2.0678    0.5803 H       1  LIG1        0.0265
     77 H          -6.1003    1.0953   -0.6829 H       1  LIG1        0.0265
     78 H          -3.8674    1.6557    0.1642 H       1  LIG1        0.0265
     79 H          -4.5380    2.5248    1.5405 H       1  LIG1        0.0265
     80 H          -4.5668    3.1735   -1.4424 H       1  LIG1        0.0265
     81 H          -3.5114    3.8504   -0.2114 H       1  LIG1        0.0265
     82 H          -5.4240    4.8949    0.9419 H       1  LIG1        0.0263
     83 H          -6.5400    4.2423   -0.2616 H       1  LIG1        0.0263
     84 H          -4.2217    5.8238   -1.3781 H       1  LIG1        0.0230
     85 H          -5.4391    6.7205   -0.4558 H       1  LIG1        0.0230
     86 H          -5.9221    5.7747   -1.8704 H       1  LIG1        0.0230
     87 H           1.6452    0.1781   -1.3940 H       1  LIG1        0.0621
     88 H           0.7405   -1.1391   -3.2240 H       1  LIG1        0.0654
@<TRIPOS>BOND
     1     1     2    1
     2     2     3    1
     3     3     4    1
     4     4     5    1
     5     5     6    1
     6     6     7    1
     7     7     8   ar
     8     8     9   ar
     9     9    10   ar
    10    10    11    1
    11    11    12    1
    12    12    13    1
    13    13    14    1
    14    14    15    1
    15    15    16    1
    16    16    17    1
    17    17    18    1
    18    18    19    1
    19    19    20    1
    20    20    21    1
    21    21    22    1
    22    22    23    1
    23    23    24    1
    24    24    25    1
    25    25    26    1
    26    26    27    1
    27    27    28    1
    28    28    29    1
    29    29    30    1
    30    30    31    1
    31    14    32    2
    32    10    33   ar
    33    33    34   ar
    34     7    34   ar
    35     1    35    1
    36     1    36    1
    37     1    37    1
    38     2    38    1
    39     2    39    1
    40     3    40    1
    41     3    41    1
    42     4    42    1
    43     4    43    1
    44     5    44    1
    45     5    45    1
    46     8    46    1
    47     9    47    1
    48    11    48    1
    49    11    49    1
    50    12    50    1
    51    12    51    1
    52    15    52    1
    53    15    53    1
    54    16    54    1
    55    16    55    1
    56    17    56    1
    57    17    57    1
    58    18    58    1
    59    18    59    1
    60    19    60    1
    61    19    61    1
    62    20    62    1
    63    20    63    1
    64    21    64    1
    65    21    65    1
    66    22    66    1
    67    22    67    1
    68    23    68    1
    69    23    69    1
    70    24    70    1
    71    24    71    1
    72    25    72    1
    73    25    73    1
    74    26    74    1
    75    26    75    1
    76    27    76    1
    77    27    77    1
    78    28    78    1
    79    28    79    1
    80    29    80    1
    81    29    81    1
    82    30    82    1
    83    30    83    1
    84    31    84    1
    85    31    85    1
    86    31    86    1
    87    33    87    1
    88    34    88    1
