@<TRIPOS>MOLECULE
NuBBE_1146
 84 87 0 0 0
SMALL
GASTEIGER

@<TRIPOS>ATOM
      1 C           2.1865    2.2479   -4.2282 C.3     1  LIG1       -0.0587
      2 C           1.7215    0.7528   -4.1080 C.3     1  LIG1       -0.0212
      3 C           1.0091    0.6340   -2.7067 C.3     1  LIG1       -0.0136
      4 H           0.5597    1.6246   -2.5518 H       1  LIG1        0.0351
      5 C           1.9613    0.4530   -1.5309 C.2     1  LIG1       -0.0634
      6 C           1.3301    0.6736   -0.1298 C.3     1  LIG1       -0.0051
      7 C          -0.2080    0.2505   -0.0589 C.3     1  LIG1       -0.0199
      8 C          -1.2040    1.4008   -0.2636 C.3     1  LIG1       -0.0585
      9 C          -0.4054   -0.5160    1.3073 C.3     1  LIG1       -0.0322
     10 H          -1.1083   -1.3450    1.1307 H       1  LIG1        0.0309
     11 C          -0.9527    0.1402    2.6257 C.3     1  LIG1       -0.0381
     12 H          -0.8853   -0.6662    3.3684 H       1  LIG1        0.0302
     13 C          -0.1148    1.2824    3.1879 C.3     1  LIG1       -0.0621
     14 C          -2.4549    0.5149    2.5532 C.3     1  LIG1       -0.0215
     15 C          -3.1535    0.8950    3.8828 C.3     1  LIG1        0.0840
     16 H          -2.7016    1.8035    4.2930 H       1  LIG1        0.0620
     17 O          -4.5037    1.2270    3.5179 O.3     1  LIG1       -0.3891
     18 C          -3.1588   -0.2375    4.9405 C.3     1  LIG1        0.1091
     19 H          -2.1208   -0.5372    5.1250 H       1  LIG1        0.0648
     20 O          -3.8569   -1.3713    4.3979 O.3     1  LIG1       -0.3864
     21 C          -3.7680    0.1388    6.3263 C.3     1  LIG1        0.0887
     22 O          -3.0551    1.2642    6.8565 O.3     1  LIG1       -0.3865
     23 C          -5.2645    0.4721    6.2867 C.3     1  LIG1       -0.0338
     24 C          -3.5558   -1.0269    7.3065 C.3     1  LIG1       -0.0338
     25 C           0.9730   -1.1598    1.5219 C.3     1  LIG1       -0.0486
     26 C           2.0030   -0.1691    0.9947 C.3     1  LIG1       -0.0431
     27 C          -0.4838   -0.8037   -1.1846 C.3     1  LIG1       -0.0460
     28 C          -0.1792   -0.3320   -2.6061 C.3     1  LIG1       -0.0455
     29 C           1.5913    2.1745    0.1504 C.3     1  LIG1       -0.0553
     30 C           3.2817    0.2484   -1.7230 C.2     1  LIG1       -0.0836
     31 C           3.9516    0.1227   -3.0591 C.3     1  LIG1       -0.0302
     32 C           2.9786   -0.1665   -4.2202 C.3     1  LIG1       -0.0198
     33 H           3.5054    0.1730   -5.1260 H       1  LIG1        0.0318
     34 C           2.7047   -1.6977   -4.4459 C.3     1  LIG1        0.0270
     35 C           2.8204   -2.5769   -3.1803 C.3     1  LIG1       -0.0528
     36 C           1.3250   -1.9672   -5.0595 C.2     1  LIG1        0.1392
     37 C           0.6590   -0.8822   -5.8632 C.3     1  LIG1        0.0069
     38 C           0.7874    0.5320   -5.3196 C.3     1  LIG1       -0.0401
     39 O           0.8081   -3.0795   -5.0177 O.2     1  LIG1       -0.2968
     40 C           3.7302   -2.2338   -5.4704 C.3     1  LIG1       -0.0528
     41 H           2.7577    2.5865   -3.3580 H       1  LIG1        0.0235
     42 H           1.3216    2.9168   -4.3194 H       1  LIG1        0.0235
     43 H           2.8126    2.4009   -5.1146 H       1  LIG1        0.0235
     44 H          -1.1120    2.1703    0.5054 H       1  LIG1        0.0235
     45 H          -2.2340    1.0274   -0.2580 H       1  LIG1        0.0235
     46 H          -1.0728    1.9083   -1.2221 H       1  LIG1        0.0235
     47 H          -0.4550    1.5724    4.1860 H       1  LIG1        0.0233
     48 H          -0.1751    2.1705    2.5603 H       1  LIG1        0.0233
     49 H           0.9303    0.9910    3.3065 H       1  LIG1        0.0233
     50 H          -3.0121   -0.3079    2.0861 H       1  LIG1        0.0294
     51 H          -2.6019    1.3677    1.8854 H       1  LIG1        0.0294
     52 H          -4.9792    0.3764    3.4528 H       1  LIG1        0.2099
     53 H          -3.2313   -1.8393    3.8166 H       1  LIG1        0.2100
     54 H          -3.5079    1.5423    7.6722 H       1  LIG1        0.2102
     55 H          -5.4490    1.4471    5.8259 H       1  LIG1        0.0258
     56 H          -5.6712    0.5474    7.3027 H       1  LIG1        0.0258
     57 H          -5.8413   -0.2925    5.7566 H       1  LIG1        0.0258
     58 H          -2.4905   -1.2678    7.3987 H       1  LIG1        0.0258
     59 H          -4.0917   -1.9282    6.9924 H       1  LIG1        0.0258
     60 H          -3.8952   -0.7576    8.3135 H       1  LIG1        0.0258
     61 H           1.0451   -2.0906    0.9455 H       1  LIG1        0.0268
     62 H           1.1681   -1.4323    2.5641 H       1  LIG1        0.0268
     63 H           2.8858   -0.7304    0.6776 H       1  LIG1        0.0274
     64 H           2.3457    0.4760    1.8105 H       1  LIG1        0.0274
     65 H          -1.5287   -1.1401   -1.1441 H       1  LIG1        0.0271
     66 H           0.1157   -1.7059   -1.0089 H       1  LIG1        0.0271
     67 H          -1.0704    0.1640   -3.0124 H       1  LIG1        0.0271
     68 H          -0.0428   -1.2270   -3.2081 H       1  LIG1        0.0271
     69 H           1.0918    2.8235   -0.5778 H       1  LIG1        0.0238
     70 H           2.6629    2.4065    0.0958 H       1  LIG1        0.0238
     71 H           1.2667    2.4826    1.1423 H       1  LIG1        0.0238
     72 H           3.9638    0.2243   -0.8767 H       1  LIG1        0.0572
     73 H           4.7422   -0.6333   -3.0139 H       1  LIG1        0.0311
     74 H           4.4830    1.0643   -3.2498 H       1  LIG1        0.0311
     75 H           2.0997   -2.2865   -2.4135 H       1  LIG1        0.0239
     76 H           3.8260   -2.5490   -2.7434 H       1  LIG1        0.0239
     77 H           2.6267   -3.6319   -3.4044 H       1  LIG1        0.0239
     78 H          -0.4092   -1.1300   -5.9323 H       1  LIG1        0.0342
     79 H           1.0636   -0.9343   -6.8765 H       1  LIG1        0.0342
     80 H          -0.2081    0.9403   -5.1043 H       1  LIG1        0.0275
     81 H           1.1440    1.1397   -6.1642 H       1  LIG1        0.0275
     82 H           3.6329   -1.7218   -6.4353 H       1  LIG1        0.0239
     83 H           3.5839   -3.3030   -5.6638 H       1  LIG1        0.0239
     84 H           4.7571   -2.0941   -5.1150 H       1  LIG1        0.0239
@<TRIPOS>BOND
     1     2     3    1
     2     3     5    1
     3     5     6    1
     4     6     7    1
     5     7     9    1
     6    11    12    1
     7    11    13    1
     8    11    14    1
     9    14    15    1
    10    15    16    1
    11    15    17    1
    12    18    20    1
    13    18    21    1
    14    21    22    1
    15    21    23    1
    16    21    24    1
    17     9    25    1
    18    25    26    1
    19     7    27    1
    20    27    28    1
    21     3    28    1
    22    26     6    1
    23     5    30    2
    24    30    31    1
    25    31    32    1
    26     2    32    1
    27    32    34    1
    28    34    36    1
    29    36    37    1
    30    37    38    1
    31     2    38    1
    32     1     2    1
    33     3     4    1
    34     6    29    1
    35     7     8    1
    36     9    10    1
    37     9    11    1
    38    32    33    1
    39    34    35    1
    40    34    40    1
    41    36    39    2
    42    18    19    1
    43    18    15    1
    44     1    41    1
    45     1    42    1
    46     1    43    1
    47     8    44    1
    48     8    45    1
    49     8    46    1
    50    13    47    1
    51    13    48    1
    52    13    49    1
    53    14    50    1
    54    14    51    1
    55    17    52    1
    56    20    53    1
    57    22    54    1
    58    23    55    1
    59    23    56    1
    60    23    57    1
    61    24    58    1
    62    24    59    1
    63    24    60    1
    64    25    61    1
    65    25    62    1
    66    26    63    1
    67    26    64    1
    68    27    65    1
    69    27    66    1
    70    28    67    1
    71    28    68    1
    72    29    69    1
    73    29    70    1
    74    29    71    1
    75    30    72    1
    76    31    73    1
    77    31    74    1
    78    35    75    1
    79    35    76    1
    80    35    77    1
    81    37    78    1
    82    37    79    1
    83    38    80    1
    84    38    81    1
    85    40    82    1
    86    40    83    1
    87    40    84    1
