@<TRIPOS>MOLECULE
NuBBE_1149
 84 87 0 0 0
SMALL
GASTEIGER

@<TRIPOS>ATOM
      1 C          -0.9928   -1.0177    0.2188 C.3     1  LIG1       -0.0588
      2 C           0.4150   -1.1122    0.8719 C.3     1  LIG1       -0.0231
      3 C           1.5697   -1.5233   -0.1313 C.3     1  LIG1       -0.0294
      4 C           2.0832   -0.3569   -1.0191 C.3     1  LIG1       -0.0489
      5 C           1.2652    0.9265   -0.9409 C.3     1  LIG1       -0.0491
      6 C           1.0731    1.4158    0.4878 C.3     1  LIG1       -0.0297
      7 H           2.0633    1.8358    0.7330 H       1  LIG1        0.0310
      8 C           0.8146    0.2845    1.5523 C.3     1  LIG1       -0.0232
      9 C          -0.2498    0.9015    2.4927 C.3     1  LIG1       -0.0465
     10 C          -0.1428    2.4105    2.2911 C.3     1  LIG1       -0.0468
     11 C           0.1092    2.6154    0.7812 C.3     1  LIG1       -0.0090
     12 H           0.7114    3.5264    0.6657 H       1  LIG1        0.0331
     13 C          -1.1978    2.8671   -0.0542 C.3     1  LIG1        0.0667
     14 C          -0.9372    3.0677   -1.5590 C.3     1  LIG1       -0.0358
     15 O          -2.0727    1.7492    0.0926 O.3     1  LIG1       -0.3886
     16 C          -2.0044    4.1013    0.4524 C.3     1  LIG1       -0.0206
     17 C          -1.2995    5.4510    0.2885 C.3     1  LIG1       -0.0319
     18 C          -2.1551    6.5772    0.7964 C.2     1  LIG1       -0.0852
     19 C          -3.0546    7.2926    0.0865 C.2     1  LIG1       -0.0796
     20 C          -3.3891    7.0533   -1.3591 C.3     1  LIG1       -0.0440
     21 C          -3.8306    8.4089    0.7313 C.3     1  LIG1       -0.0440
     22 C           2.1149    0.1550    2.4114 C.3     1  LIG1       -0.0588
     23 H           2.4358   -1.7429    0.5129 H       1  LIG1        0.0312
     24 C           1.3583   -2.8983   -0.8916 C.3     1  LIG1       -0.0252
     25 C           1.0894   -4.0207    0.1903 C.3     1  LIG1       -0.0278
     26 C           0.9491   -5.4797   -0.3904 C.3     1  LIG1       -0.0056
     27 C           0.8547   -6.5105    0.7663 C.3     1  LIG1       -0.0572
     28 C           2.2410   -5.8023   -1.1988 C.3     1  LIG1        0.0606
     29 H           3.0746   -5.9240   -0.4949 H       1  LIG1        0.0599
     30 O           2.0990   -7.0476   -1.8837 O.3     1  LIG1       -0.3912
     31 C           2.6349   -4.7273   -2.2113 C.3     1  LIG1       -0.0258
     32 C           2.6794   -3.3177   -1.6147 C.3     1  LIG1       -0.0447
     33 C          -0.3160   -5.7023   -1.2472 C.3     1  LIG1       -0.0572
     34 H           2.0215   -4.0605    0.7811 H       1  LIG1        0.0312
     35 C           0.0323   -3.6408    1.2513 C.3     1  LIG1       -0.0486
     36 C           0.3031   -2.2702    1.9008 C.3     1  LIG1       -0.0466
     37 C           0.2637   -2.7378   -1.9744 C.3     1  LIG1       -0.0590
     38 H          -1.7628   -0.7387    0.9411 H       1  LIG1        0.0235
     39 H          -1.3618   -1.9644   -0.1641 H       1  LIG1        0.0235
     40 H          -1.0503   -0.3280   -0.6158 H       1  LIG1        0.0235
     41 H           2.1544   -0.6458   -2.0717 H       1  LIG1        0.0268
     42 H           3.1133   -0.1230   -0.7158 H       1  LIG1        0.0268
     43 H           0.3272    0.7327   -1.4475 H       1  LIG1        0.0268
     44 H           1.7662    1.7073   -1.5266 H       1  LIG1        0.0268
     45 H          -0.0846    0.6373    3.5438 H       1  LIG1        0.0271
     46 H          -1.2698    0.5949    2.2681 H       1  LIG1        0.0271
     47 H           0.7149    2.7970    2.8562 H       1  LIG1        0.0269
     48 H          -1.0232    2.9185    2.6865 H       1  LIG1        0.0269
     49 H          -1.7829    3.5794   -2.0358 H       1  LIG1        0.0257
     50 H          -0.8669    2.1271   -2.1063 H       1  LIG1        0.0257
     51 H          -0.0403    3.6667   -1.7422 H       1  LIG1        0.0257
     52 H          -2.8060    1.8452   -0.5390 H       1  LIG1        0.2102
     53 H          -2.3131    3.9611    1.4943 H       1  LIG1        0.0296
     54 H          -2.9618    4.1319   -0.0898 H       1  LIG1        0.0296
     55 H          -1.0267    5.6280   -0.7566 H       1  LIG1        0.0308
     56 H          -0.3586    5.4663    0.8492 H       1  LIG1        0.0308
     57 H          -2.0039    6.8218    1.8465 H       1  LIG1        0.0571
     58 H          -2.8701    6.1933   -1.7888 H       1  LIG1        0.0274
     59 H          -3.1281    7.9327   -1.9571 H       1  LIG1        0.0274
     60 H          -4.4628    6.8660   -1.4694 H       1  LIG1        0.0274
     61 H          -3.5647    8.5477    1.7844 H       1  LIG1        0.0274
     62 H          -4.9045    8.1994    0.6847 H       1  LIG1        0.0274
     63 H          -3.6371    9.3532    0.2118 H       1  LIG1        0.0274
     64 H           2.3895    1.1162    2.8637 H       1  LIG1        0.0235
     65 H           2.9788   -0.1612    1.8210 H       1  LIG1        0.0235
     66 H           1.9899   -0.5445    3.2428 H       1  LIG1        0.0235
     67 H           1.6693   -6.3762    1.4860 H       1  LIG1        0.0236
     68 H           0.9120   -7.5392    0.3919 H       1  LIG1        0.0236
     69 H          -0.0952   -6.4272    1.3055 H       1  LIG1        0.0236
     70 H           2.9186   -7.2077   -2.3812 H       1  LIG1        0.2098
     71 H           1.9698   -4.7689   -3.0807 H       1  LIG1        0.0290
     72 H           3.6254   -4.9699   -2.6183 H       1  LIG1        0.0290
     73 H           2.9258   -2.6187   -2.4215 H       1  LIG1        0.0271
     74 H           3.5163   -3.2708   -0.9050 H       1  LIG1        0.0271
     75 H          -1.2086   -5.2914   -0.7652 H       1  LIG1        0.0236
     76 H          -0.5079   -6.7707   -1.4037 H       1  LIG1        0.0236
     77 H          -0.2330   -5.2688   -2.2453 H       1  LIG1        0.0236
     78 H           0.0508   -4.3711    2.0685 H       1  LIG1        0.0268
     79 H          -0.9778   -3.6928    0.8391 H       1  LIG1        0.0268
     80 H           1.2320   -2.3677    2.4740 H       1  LIG1        0.0271
     81 H          -0.4864   -2.0568    2.6320 H       1  LIG1        0.0271
     82 H           0.1406   -1.6960   -2.2857 H       1  LIG1        0.0235
     83 H          -0.7121   -3.0954   -1.6459 H       1  LIG1        0.0235
     84 H           0.4917   -3.2753   -2.8979 H       1  LIG1        0.0235
@<TRIPOS>BOND
     1     2     3    1
     2     3     4    1
     3     4     5    1
     4     5     6    1
     5     6     8    1
     6     8     9    1
     7     9    10    1
     8    10    11    1
     9     6    11    1
    10    13    14    1
    11    13    15    1
    12    13    16    1
    13    16    17    1
    14    17    18    1
    15    18    19    2
    16    19    20    1
    17    19    21    1
    18     2     8    1
    19     3    24    1
    20    24    25    1
    21    25    26    1
    22    26    28    1
    23    28    31    1
    24    31    32    1
    25    25    35    1
    26    35    36    1
    27     2    36    1
    28    32    24    1
    29     1     2    1
    30     3    23    1
    31     6     7    1
    32     8    22    1
    33    11    12    1
    34    11    13    1
    35    24    37    1
    36    25    34    1
    37    26    27    1
    38    26    33    1
    39    28    30    1
    40    28    29    1
    41     1    38    1
    42     1    39    1
    43     1    40    1
    44     4    41    1
    45     4    42    1
    46     5    43    1
    47     5    44    1
    48     9    45    1
    49     9    46    1
    50    10    47    1
    51    10    48    1
    52    14    49    1
    53    14    50    1
    54    14    51    1
    55    15    52    1
    56    16    53    1
    57    16    54    1
    58    17    55    1
    59    17    56    1
    60    18    57    1
    61    20    58    1
    62    20    59    1
    63    20    60    1
    64    21    61    1
    65    21    62    1
    66    21    63    1
    67    22    64    1
    68    22    65    1
    69    22    66    1
    70    27    67    1
    71    27    68    1
    72    27    69    1
    73    30    70    1
    74    31    71    1
    75    31    72    1
    76    32    73    1
    77    32    74    1
    78    33    75    1
    79    33    76    1
    80    33    77    1
    81    35    78    1
    82    35    79    1
    83    36    80    1
    84    36    81    1
    85    37    82    1
    86    37    83    1
    87    37    84    1
