REMARK  Name = NuBBE_978
REMARK  16 active torsions:
REMARK  status: ('A' for Active; 'I' for Inactive)
REMARK    1  A    between atoms: C_2  and  C_28
REMARK    2  A    between atoms: N_3  and  C_4
REMARK    3  A    between atoms: C_4  and  C_5
REMARK    4  A    between atoms: C_5  and  C_6
REMARK    5  A    between atoms: C_9  and  O_10
REMARK    6  A    between atoms: O_10  and  C_11
REMARK    7  A    between atoms: C_11  and  C_12
REMARK    8  A    between atoms: C_13  and  C_14
REMARK    9  A    between atoms: C_13  and  C_15
REMARK   10  A    between atoms: C_15  and  O_16
REMARK   11  A    between atoms: C_15  and  C_20
REMARK   12  A    between atoms: O_16  and  C_17
REMARK   13  A    between atoms: C_17  and  C_18
REMARK   14  A    between atoms: C_20  and  C_21
REMARK   15  A    between atoms: C_22  and  C_23
REMARK   16  A    between atoms: C_22  and  C_24
REMARK                            x       y       z     vdW  Elec       q    Type
REMARK                         _______ _______ _______ _____ _____    ______ ____
ROOT
ATOM      1  C   LIG A   1      -1.260   1.637   1.923  0.00  0.00    -0.046 A 
ATOM      2  C   LIG A   1      -0.236   2.151   1.119  0.00  0.00    +0.007 A 
ATOM      3  C   LIG A   1       0.799   1.320   0.683  0.00  0.00    +0.046 A 
ATOM      4  C   LIG A   1       0.811  -0.035   1.024  0.00  0.00    +0.121 A 
ATOM      5  C   LIG A   1      -0.203  -0.548   1.828  0.00  0.00    +0.046 A 
ATOM      6  C   LIG A   1      -1.231   0.283   2.276  0.00  0.00    +0.007 A 
ENDROOT
BRANCH   1   7
ATOM      7  C   LIG A   1      -2.374   2.517   2.424  0.00  0.00    +0.054 C 
BRANCH   7   8
ATOM      8  C   LIG A   1      -2.077   3.161   3.780  0.00  0.00    +0.109 C 
BRANCH   8  11
ATOM      9  O   LIG A   1      -2.228   4.640   6.201  0.00  0.00    -0.270 OA
ATOM     10  C   LIG A   1      -3.180   4.628   5.438  0.00  0.00    +0.244 C 
ATOM     11  N   LIG A   1      -3.209   3.949   4.240  0.00  0.00    -0.311 N 
ATOM     12  H   LIG A   1      -3.941   4.161   3.571  0.00  0.00    +0.149 HD
BRANCH  10  13
ATOM     13  C   LIG A   1      -4.428   5.405   5.763  0.00  0.00    +0.037 A 
ATOM     14  C   LIG A   1      -5.686   5.011   5.282  0.00  0.00    +0.013 A 
ATOM     15  C   LIG A   1      -6.833   5.721   5.644  0.00  0.00    +0.001 A 
ATOM     16  C   LIG A   1      -6.733   6.826   6.487  0.00  0.00    +0.000 A 
ATOM     17  C   LIG A   1      -5.486   7.226   6.968  0.00  0.00    +0.001 A 
ATOM     18  C   LIG A   1      -4.336   6.516   6.612  0.00  0.00    +0.013 A 
ENDBRANCH  10  13
ENDBRANCH   8  11
ENDBRANCH   7   8
ENDBRANCH   1   7
BRANCH   4  19
ATOM     19  O   LIG A   1       1.887  -0.745   0.580  0.00  0.00    -0.488 OA
BRANCH  19  20
ATOM     20  C   LIG A   1       1.701  -2.140   0.321  0.00  0.00    +0.257 C 
BRANCH  20  21
ATOM     21  C   LIG A   1       1.974  -2.351  -1.135  0.00  0.00    +0.016 C 
ATOM     22  C   LIG A   1       2.349  -3.494  -1.743  0.00  0.00    -0.033 C 
ATOM     23  C   LIG A   1       2.407  -4.825  -1.041  0.00  0.00    +0.043 C 
BRANCH  22  24
ATOM     24  C   LIG A   1       2.798  -3.436  -3.204  0.00  0.00    +0.206 C 
BRANCH  24  25
ATOM     25  O   LIG A   1       4.152  -3.941  -3.288  0.00  0.00    -0.457 OA
BRANCH  25  26
ATOM     26  C   LIG A   1       5.119  -3.049  -2.969  0.00  0.00    +0.304 C 
ATOM     27  C   LIG A   1       6.478  -3.686  -3.118  0.00  0.00    +0.136 C 
ATOM     28  O   LIG A   1       4.955  -1.891  -2.591  0.00  0.00    -0.251 OA
ENDBRANCH  25  26
ENDBRANCH  24  25
BRANCH  24  29
ATOM     29  C   LIG A   1       1.850  -4.222  -4.135  0.00  0.00    +0.076 C 
BRANCH  29  30
ATOM     30  C   LIG A   1       2.199  -4.060  -5.599  0.00  0.00    -0.024 C 
ATOM     31  C   LIG A   1       1.688  -3.164  -6.468  0.00  0.00    -0.080 C 
ATOM     32  C   LIG A   1       0.632  -2.146  -6.134  0.00  0.00    +0.038 C 
ATOM     33  C   LIG A   1       2.189  -3.086  -7.889  0.00  0.00    +0.038 C 
ENDBRANCH  29  30
ENDBRANCH  24  29
ENDBRANCH  22  24
ENDBRANCH  20  21
ENDBRANCH  19  20
ENDBRANCH   4  19
TORSDOF 12
