@<TRIPOS>MOLECULE
NuBBE_681
 74 77 0 0 0
SMALL
GASTEIGER

@<TRIPOS>ATOM
      1 C           1.0480   -9.7661   -0.2020 C.3     1  LIG1       -0.0648
      2 C           0.9892   -8.2474   -0.2609 C.3     1  LIG1       -0.0499
      3 C           0.7570   -7.6853   -1.6802 C.3     1  LIG1       -0.0256
      4 H          -0.1721   -8.1195   -2.0673 H       1  LIG1        0.0340
      5 C           1.8967   -8.0455   -2.6299 C.3     1  LIG1       -0.0590
      6 C           0.5560   -6.1970   -1.7195 C.2     1  LIG1       -0.0777
      7 C           0.7398   -5.3846   -0.6755 C.2     1  LIG1       -0.0230
      8 C           0.4219   -4.0154   -0.7132 C.2     1  LIG1        0.1279
      9 C           1.0530   -3.1756   -1.5466 C.2     1  LIG1       -0.0114
     10 C           0.6215   -1.8344   -1.5264 C.2     1  LIG1       -0.0076
     11 C           0.9977   -1.0303   -2.5378 C.2     1  LIG1       -0.0069
     12 H           1.6723   -1.2345   -3.3584 H       1  LIG1        0.0660
     13 C           0.2894    0.2214   -2.6326 C.2     1  LIG1        0.2043
     14 C          -0.8807    0.3607   -1.6636 C.3     1  LIG1        0.1985
     15 O          -0.6036    1.6770   -1.3127 O.3     1  LIG1       -0.4418
     16 C          -2.2625    0.1529   -2.2956 C.3     1  LIG1       -0.0130
     17 C          -0.6374   -0.1185   -0.3074 C.2     1  LIG1        0.0311
     18 C          -0.2816   -1.4501   -0.4227 C.2     1  LIG1        0.0255
     19 C          -0.8489   -2.3577    0.3656 C.2     1  LIG1        0.1005
     20 O          -0.5662   -3.6771    0.2086 O.2     1  LIG1       -0.4629
     21 C          -0.3285    0.7853    0.6345 C.2     1  LIG1        0.1097
     22 C          -0.0681    0.7731    2.0951 C.2     1  LIG1        0.1767
     23 C          -0.8640    1.7569    3.0691 C.3     1  LIG1        0.0563
     24 H          -1.9364    1.5997    2.8959 H       1  LIG1        0.0414
     25 C          -0.5761    1.1582    4.4659 C.3     1  LIG1       -0.0519
     26 C          -0.6668    3.3027    3.1607 C.3     1  LIG1        0.1099
     27 H          -1.2087    3.6360    4.0605 H       1  LIG1        0.0738
     28 O          -1.2890    4.1798    2.1800 O.3     1  LIG1       -0.4589
     29 C          -1.5249    3.7837    0.9207 C.2     1  LIG1        0.3411
     30 C          -1.0772    4.8215   -0.2742 C.3     1  LIG1        0.1795
     31 O          -0.4207    4.5516   -1.5150 O.3     1  LIG1       -0.3639
     32 C          -1.0996    3.5561   -2.1978 C.3     1  LIG1        0.0380
     33 H          -2.0678    5.1027   -0.6344 H       1  LIG1        0.0764
     34 C          -0.3715    6.0696    0.1524 C.ar    1  LIG1       -0.0082
     35 C           0.1317    6.2688    1.4246 C.ar    1  LIG1       -0.0556
     36 C           0.7034    7.4242    1.8730 C.ar    1  LIG1       -0.0614
     37 C           0.8510    8.4354    0.9651 C.ar    1  LIG1       -0.0617
     38 C           0.4264    8.2656   -0.3568 C.ar    1  LIG1       -0.0614
     39 C          -0.1923    7.0945   -0.7665 C.ar    1  LIG1       -0.0556
     40 O          -2.1004    2.7109    0.7583 O.2     1  LIG1       -0.2475
     41 C           0.7839    3.7506    3.3676 C.3     1  LIG1       -0.0270
     42 O           0.6167   -0.1402    2.5006 O.2     1  LIG1       -0.2914
     43 C           0.0746    1.7824   -0.2091 C.2     1  LIG1        0.3443
     44 O           0.8250    2.7967    0.0655 O.2     1  LIG1       -0.2448
     45 O           0.6980    1.0829   -3.4243 O.2     1  LIG1       -0.2880
     46 H           1.2466  -10.0888    0.8244 H       1  LIG1        0.0230
     47 H           1.8527  -10.1607   -0.8265 H       1  LIG1        0.0230
     48 H           0.1055  -10.2196   -0.5240 H       1  LIG1        0.0230
     49 H           1.9284   -7.8515    0.1466 H       1  LIG1        0.0268
     50 H           0.1859   -7.9094    0.4092 H       1  LIG1        0.0268
     51 H           1.7004   -7.6766   -3.6424 H       1  LIG1        0.0235
     52 H           2.0139   -9.1285   -2.7038 H       1  LIG1        0.0235
     53 H           2.8492   -7.6203   -2.2926 H       1  LIG1        0.0235
     54 H           0.1852   -5.7827   -2.6598 H       1  LIG1        0.0576
     55 H           1.0844   -5.6988    0.2994 H       1  LIG1        0.0651
     56 H           1.8214   -3.4557   -2.2528 H       1  LIG1        0.0660
     57 H          -2.4514    0.8327   -3.1387 H       1  LIG1        0.0276
     58 H          -3.0686    0.3556   -1.5787 H       1  LIG1        0.0276
     59 H          -2.3906   -0.8717   -2.6723 H       1  LIG1        0.0276
     60 H          -1.5751   -2.1323    1.1377 H       1  LIG1        0.1036
     61 H           0.4936    0.9561    4.5974 H       1  LIG1        0.0238
     62 H          -1.1017    0.2018    4.5579 H       1  LIG1        0.0238
     63 H          -0.8947    1.7964    5.2939 H       1  LIG1        0.0238
     64 H          -1.7308    3.1168   -1.4242 H       1  LIG1        0.0524
     65 H          -0.3153    2.9616   -2.6781 H       1  LIG1        0.0524
     66 H          -1.9024    3.6654   -2.9076 H       1  LIG1        0.0524
     67 H           0.0751    5.5442    2.1832 H       1  LIG1        0.0621
     68 H           0.9885    7.4737    2.9184 H       1  LIG1        0.0618
     69 H           1.2975    9.3561    1.3023 H       1  LIG1        0.0618
     70 H           0.5610    9.0579   -1.0770 H       1  LIG1        0.0618
     71 H          -0.5299    6.9648   -1.7952 H       1  LIG1        0.0621
     72 H           0.8189    4.7794    3.7598 H       1  LIG1        0.0265
     73 H           1.3229    3.7630    2.4143 H       1  LIG1        0.0265
     74 H           1.3213    3.1497    4.0957 H       1  LIG1        0.0265
@<TRIPOS>BOND
     1     1     2    1
     2     3     5    1
     3     3     6    1
     4     6     7    2
     5     8     9    2
     6     9    10    1
     7    10    11    2
     8    11    13    1
     9    13    14    1
    10    14    15    1
    11    14    17    1
    12    17    18    1
    13    10    18    1
    14    18    19    2
    15    19    20    1
    16     8    20    1
    17    17    21    2
    18    22    23    1
    19    23    24    1
    20    23    25    1
    21    26    28    1
    22    28    29    1
    23    29    30    1
    24    30    31    1
    25    31    32    1
    26    30    33    1
    27    30    34    1
    28    34    35   ar
    29    35    36   ar
    30    36    37   ar
    31    37    38   ar
    32    38    39   ar
    33    34    39   ar
    34    29    40    2
    35    26    41    1
    36    22    42    2
    37    21    43    1
    38    15    43    1
    39     7     8    1
    40    11    12    1
    41    13    45    2
    42    14    16    1
    43    21    22    1
    44    43    44    2
    45     3     4    1
    46     3     2    1
    47    26    27    1
    48    26    23    1
    49     1    46    1
    50     1    47    1
    51     1    48    1
    52     2    49    1
    53     2    50    1
    54     5    51    1
    55     5    52    1
    56     5    53    1
    57     6    54    1
    58     7    55    1
    59     9    56    1
    60    16    57    1
    61    16    58    1
    62    16    59    1
    63    19    60    1
    64    25    61    1
    65    25    62    1
    66    25    63    1
    67    32    64    1
    68    32    65    1
    69    32    66    1
    70    35    67    1
    71    36    68    1
    72    37    69    1
    73    38    70    1
    74    39    71    1
    75    41    72    1
    76    41    73    1
    77    41    74    1
