@<TRIPOS>MOLECULE
NuBBE_1592
 55 58 0 0 0
SMALL
GASTEIGER

@<TRIPOS>ATOM
      1 C          -2.9416   -0.5989   -2.1807 C.3     1  LIG1        0.0791
      2 O          -1.6408   -0.2306   -1.6996 O.3     1  LIG1       -0.4885
      3 C          -1.0016   -1.1844   -0.9279 C.ar    1  LIG1        0.2058
      4 C          -1.2149   -2.5638   -1.0776 C.ar    1  LIG1        0.1775
      5 O          -2.0091   -2.9396   -2.1167 O.3     1  LIG1       -0.4777
      6 C          -2.3751   -4.2944   -2.3532 C.3     1  LIG1        0.1237
      7 C          -1.8584   -4.5960   -3.7619 C.3     1  LIG1       -0.0215
      8 C          -3.9110   -4.3259   -2.3535 C.3     1  LIG1       -0.0215
      9 C          -1.8083   -5.2622   -1.3533 C.2     1  LIG1       -0.0408
     10 C          -0.9722   -4.8983   -0.3727 C.2     1  LIG1       -0.0477
     11 C          -0.6079   -3.4863   -0.2216 C.ar    1  LIG1        0.0627
     12 C           0.3008   -3.0308    0.7571 C.ar    1  LIG1        0.1453
     13 O           1.0133   -3.9981    1.4256 O.3     1  LIG1       -0.4936
     14 C           0.7334   -4.0944    2.8213 C.3     1  LIG1        0.0788
     15 C           0.5757   -1.6515    0.8791 C.ar    1  LIG1        0.1099
     16 C          -0.0829   -0.7320    0.0370 C.ar    1  LIG1        0.1879
     17 O           0.1520    0.6234    0.0983 O.2     1  LIG1       -0.4507
     18 C           1.0566    1.1206    1.0195 C.ar    1  LIG1        0.1395
     19 C           1.2810    2.5766    0.9622 C.ar    1  LIG1        0.0211
     20 C           2.5421    3.1647    1.1831 C.ar    1  LIG1       -0.0056
     21 C           2.7457    4.5448    1.0220 C.ar    1  LIG1        0.1622
     22 O           4.0551    4.9547    1.0546 O.3     1  LIG1       -0.4914
     23 C           4.4022    5.8087    2.1404 C.3     1  LIG1        0.0790
     24 C           1.6748    5.3692    0.6476 C.ar    1  LIG1        0.1615
     25 O           1.9012    6.7049    0.4290 O.3     1  LIG1       -0.4915
     26 C           0.7703    7.5487    0.6586 C.3     1  LIG1        0.0790
     27 C           0.4257    4.7769    0.4163 C.ar    1  LIG1       -0.0156
     28 C           0.2304    3.4055    0.5728 C.ar    1  LIG1       -0.0474
     29 C           1.7110    0.3544    1.9032 C.ar    1  LIG1        0.0288
     30 C           1.5471   -1.0901    1.8334 C.ar    1  LIG1        0.1968
     31 O           2.2612   -1.7748    2.5897 O.2     1  LIG1       -0.2869
     32 H          -3.5272    0.3031   -2.3643 H       1  LIG1        0.0660
     33 H          -3.4965   -1.1935   -1.4423 H       1  LIG1        0.0660
     34 H          -2.8709   -1.1255   -3.1421 H       1  LIG1        0.0660
     35 H          -2.2453   -3.8628   -4.4823 H       1  LIG1        0.0271
     36 H          -2.1417   -5.5966   -4.0988 H       1  LIG1        0.0271
     37 H          -0.7663   -4.5034   -3.7999 H       1  LIG1        0.0271
     38 H          -4.3197   -3.6035   -3.0733 H       1  LIG1        0.0271
     39 H          -4.3156   -4.0341   -1.3767 H       1  LIG1        0.0271
     40 H          -4.3003   -5.3163   -2.6096 H       1  LIG1        0.0271
     41 H          -2.0925   -6.3049   -1.4575 H       1  LIG1        0.0611
     42 H          -0.5757   -5.6235    0.3281 H       1  LIG1        0.0624
     43 H           0.5064   -5.1401    3.0481 H       1  LIG1        0.0660
     44 H          -0.1047   -3.4714    3.1503 H       1  LIG1        0.0660
     45 H           1.6348   -3.8450    3.3888 H       1  LIG1        0.0660
     46 H           3.4038    2.5492    1.4336 H       1  LIG1        0.0662
     47 H           5.2212    5.3353    2.6969 H       1  LIG1        0.0660
     48 H           3.5846    6.0148    2.8377 H       1  LIG1        0.0660
     49 H           4.7905    6.7489    1.7357 H       1  LIG1        0.0660
     50 H           1.0371    8.5709    0.3778 H       1  LIG1        0.0660
     51 H           0.5046    7.5356    1.7209 H       1  LIG1        0.0660
     52 H          -0.0986    7.2899    0.0449 H       1  LIG1        0.0660
     53 H          -0.4247    5.3393    0.0498 H       1  LIG1        0.0655
     54 H          -0.7511    2.9917    0.3512 H       1  LIG1        0.0626
     55 H           2.3919    0.7406    2.6510 H       1  LIG1        0.0693
@<TRIPOS>BOND
     1     1     2    1
     2     2     3    1
     3     3     4   ar
     4     4     5    1
     5     5     6    1
     6     6     7    1
     7     6     8    1
     8     6     9    1
     9     9    10    2
    10     4    11   ar
    11    10    11    1
    12    11    12   ar
    13    12    13    1
    14    13    14    1
    15    12    15   ar
    16    15    16   ar
    17     3    16   ar
    18    16    17   ar
    19    17    18   ar
    20    18    19    1
    21    19    20   ar
    22    20    21   ar
    23    21    22    1
    24    22    23    1
    25    21    24   ar
    26    24    25    1
    27    25    26    1
    28    24    27   ar
    29    27    28   ar
    30    19    28   ar
    31    18    29   ar
    32    29    30   ar
    33    15    30   ar
    34    30    31    2
    35     1    32    1
    36     1    33    1
    37     1    34    1
    38     7    35    1
    39     7    36    1
    40     7    37    1
    41     8    38    1
    42     8    39    1
    43     8    40    1
    44     9    41    1
    45    10    42    1
    46    14    43    1
    47    14    44    1
    48    14    45    1
    49    20    46    1
    50    23    47    1
    51    23    48    1
    52    23    49    1
    53    26    50    1
    54    26    51    1
    55    26    52    1
    56    27    53    1
    57    28    54    1
    58    29    55    1
