REMARK  Name = NuBBE_2118
REMARK  8 active torsions:
REMARK  status: ('A' for Active; 'I' for Inactive)
REMARK    1  A    between atoms: C_2  and  C_3
REMARK    2  A    between atoms: C_3  and  C_4
REMARK    3  A    between atoms: C_4  and  C_5
REMARK    4  A    between atoms: C_5  and  C_6
REMARK    5  A    between atoms: C_6  and  C_7
REMARK    6  A    between atoms: C_7  and  C_8
REMARK    7  A    between atoms: C_8  and  C_9
REMARK    8  A    between atoms: C_9  and  C_10
REMARK                            x       y       z     vdW  Elec       q    Type
REMARK                         _______ _______ _______ _____ _____    ______ ____
ROOT
ATOM      1  C   LIG A   1      -1.242   0.171  -1.240  0.00  0.00    +0.000 C 
ENDROOT
BRANCH   1   2
ATOM      2  C   LIG A   1      -2.103   0.146   0.044  0.00  0.00    +0.004 C 
BRANCH   2   3
ATOM      3  C   LIG A   1      -1.871   1.339   0.986  0.00  0.00    +0.026 C 
BRANCH   3   5
ATOM      4  C   LIG A   1      -3.636   0.490   2.608  0.00  0.00    +0.004 C 
ATOM      5  C   LIG A   1      -2.724   1.365   2.237  0.00  0.00    -0.035 C 
ENDBRANCH   3   5
ENDBRANCH   2   3
ENDBRANCH   1   2
BRANCH   1   6
ATOM      6  C   LIG A   1       0.232   0.104  -0.886  0.00  0.00    +0.000 C 
BRANCH   6   7
ATOM      7  C   LIG A   1       1.243  -0.017  -2.015  0.00  0.00    -0.000 C 
BRANCH   7   8
ATOM      8  C   LIG A   1       2.694  -0.050  -1.489  0.00  0.00    -0.000 C 
BRANCH   8   9
ATOM      9  C   LIG A   1       3.088  -1.252  -0.611  0.00  0.00    -0.003 C 
ATOM     10  C   LIG A   1       2.491  -1.338   0.792  0.00  0.00    +0.004 C 
ENDBRANCH   8   9
ENDBRANCH   7   8
ENDBRANCH   6   7
ENDBRANCH   1   6
TORSDOF 7
