REMARK  Name = NuBBE_1909
REMARK  5 active torsions:
REMARK  status: ('A' for Active; 'I' for Inactive)
REMARK    1  A    between atoms: C_1  and  O_2
REMARK    2  A    between atoms: O_2  and  C_3
REMARK    3  A    between atoms: C_16  and  O_17
REMARK    4  A    between atoms: O_17  and  C_18
REMARK    5  A    between atoms: C_19  and  O_20
REMARK                            x       y       z     vdW  Elec       q    Type
REMARK                         _______ _______ _______ _____ _____    ______ ____
ROOT
ATOM      1  C   LIG A   1      -0.405   1.325   1.098  0.00  0.00    +0.208 A 
ATOM      2  C   LIG A   1      -0.268   0.042   0.542  0.00  0.00    +0.184 A 
ATOM      3  C   LIG A   1       0.421  -0.124  -0.660  0.00  0.00    +0.072 A 
ATOM      4  C   LIG A   1       0.549  -1.473  -1.230  0.00  0.00    +0.200 A 
ATOM      5  C   LIG A   1      -0.040  -2.576  -0.464  0.00  0.00    +0.065 A 
ATOM      6  C   LIG A   1       0.066  -3.895  -0.914  0.00  0.00    +0.015 A 
ATOM      7  C   LIG A   1      -0.497  -4.925  -0.162  0.00  0.00    +0.001 A 
ATOM      8  C   LIG A   1      -1.164  -4.633   1.029  0.00  0.00    +0.004 A 
ATOM      9  C   LIG A   1      -1.268  -3.312   1.471  0.00  0.00    +0.047 A 
ATOM     10  C   LIG A   1      -0.703  -2.278   0.723  0.00  0.00    +0.139 A 
ATOM     11  O   LIG A   1      -0.842  -1.009   1.226  0.00  0.00    -0.451 OA
ATOM     12  O   LIG A   1       1.125  -1.664  -2.292  0.00  0.00    -0.286 OA
ATOM     13  C   LIG A   1       0.998   0.962  -1.324  0.00  0.00    +0.065 A 
ATOM     14  C   LIG A   1       0.892   2.234  -0.773  0.00  0.00    +0.166 A 
ATOM     15  C   LIG A   1       0.189   2.409   0.434  0.00  0.00    +0.205 A 
ENDROOT
BRANCH   1  17
ATOM     16  C   LIG A   1      -1.795   2.572   2.574  0.00  0.00    +0.277 C 
ATOM     17  O   LIG A   1      -1.072   1.379   2.296  0.00  0.00    -0.488 OA
ENDBRANCH   1  17
BRANCH  14  18
ATOM     18  O   LIG A   1       1.436   3.379  -1.303  0.00  0.00    -0.491 OA
ATOM     19  C   LIG A   1       2.174   3.228  -2.513  0.00  0.00    +0.277 C 
ENDBRANCH  14  18
BRANCH  15  20
ATOM     20  O   LIG A   1       0.136   3.680   0.952  0.00  0.00    -0.501 OA
ATOM     21  H   LIG A   1       0.648   4.236   0.333  0.00  0.00    +0.292 HD
ENDBRANCH  15  20
TORSDOF 3
