@<TRIPOS>MOLECULE
NuBBE_1865
 41 43 0 0 0
SMALL
GASTEIGER

@<TRIPOS>ATOM
      1 O          -2.5903    1.1550   -0.1090 O.3     1  LIG1       -0.4883
      2 C          -3.2537    2.3109   -0.6138 C.3     1  LIG1        0.0791
      3 C          -1.2028    1.1766   -0.1394 C.ar    1  LIG1        0.2107
      4 C          -0.4995    0.0279   -0.2607 C.ar    1  LIG1        0.1809
      5 O           0.8806   -0.0734   -0.2477 O.2     1  LIG1       -0.4507
      6 C           1.6216    1.0709   -0.1121 C.ar    1  LIG1        0.1465
      7 C           1.0465    2.3278    0.0192 C.ar    1  LIG1        0.1092
      8 C          -0.4155    2.4322    0.0261 C.ar    1  LIG1        0.2381
      9 O          -0.9244    3.5493    0.1795 O.2     1  LIG1       -0.2830
     10 C           1.8669    3.4561    0.1404 C.ar    1  LIG1        0.1348
     11 O           1.3754    4.7297    0.2580 O.3     1  LIG1       -0.5058
     12 C           3.2537    3.3272    0.1400 C.ar    1  LIG1        0.0225
     13 C           3.8317    2.0626    0.0298 C.ar    1  LIG1        0.1271
     14 C           3.0121    0.9374   -0.1097 C.ar    1  LIG1        0.0233
     15 O           5.1772    1.8183   -0.0058 O.3     1  LIG1       -0.4949
     16 C           5.9892    2.7374    0.7202 C.3     1  LIG1        0.0788
     17 C          -1.1649   -1.2828   -0.3733 C.ar    1  LIG1        0.0247
     18 C          -1.4462   -2.0128    0.7870 C.ar    1  LIG1       -0.0057
     19 C          -2.1048   -3.2441    0.7126 C.ar    1  LIG1        0.1591
     20 O          -2.3793   -3.8928    1.8841 O.3     1  LIG1       -0.5033
     21 C          -2.4931   -3.7761   -0.5219 C.ar    1  LIG1        0.1613
     22 C          -2.2001   -3.0502   -1.6837 C.ar    1  LIG1       -0.0156
     23 C          -1.5330   -1.8178   -1.6138 C.ar    1  LIG1       -0.0473
     24 O          -3.1805   -4.9450   -0.7304 O.3     1  LIG1       -0.4915
     25 C          -2.9852   -5.9651    0.2451 C.3     1  LIG1        0.0790
     26 H          -4.2979    2.0393   -0.7957 H       1  LIG1        0.0660
     27 H          -2.8228    2.6436   -1.5641 H       1  LIG1        0.0660
     28 H          -3.2579    3.1174    0.1254 H       1  LIG1        0.0660
     29 H           0.3928    4.6787    0.2689 H       1  LIG1        0.2922
     30 H           3.8504    4.2309    0.2052 H       1  LIG1        0.0691
     31 H           3.4638   -0.0468   -0.2095 H       1  LIG1        0.0691
     32 H           7.0299    2.4150    0.6192 H       1  LIG1        0.0660
     33 H           5.7305    2.7203    1.7844 H       1  LIG1        0.0660
     34 H           5.9275    3.7524    0.3173 H       1  LIG1        0.0660
     35 H          -1.1702   -1.6045    1.7545 H       1  LIG1        0.0662
     36 H          -1.8653   -3.4928    2.6024 H       1  LIG1        0.2923
     37 H          -2.4880   -3.4486   -2.6551 H       1  LIG1        0.0655
     38 H          -1.3146   -1.2809   -2.5340 H       1  LIG1        0.0626
     39 H          -3.4918   -6.8719   -0.0983 H       1  LIG1        0.0660
     40 H          -3.4483   -5.7172    1.2035 H       1  LIG1        0.0660
     41 H          -1.9196   -6.1941    0.3552 H       1  LIG1        0.0660
@<TRIPOS>BOND
     1     1     2    1
     2     1     3    1
     3     3     4   ar
     4     4     5   ar
     5     5     6   ar
     6     6     7   ar
     7     7     8   ar
     8     3     8   ar
     9     8     9    2
    10     7    10   ar
    11    10    11    1
    12    10    12   ar
    13    12    13   ar
    14    13    14   ar
    15     6    14   ar
    16    13    15    1
    17    15    16    1
    18     4    17    1
    19    17    18   ar
    20    18    19   ar
    21    19    20    1
    22    19    21   ar
    23    21    22   ar
    24    22    23   ar
    25    17    23   ar
    26    21    24    1
    27    24    25    1
    28     2    26    1
    29     2    27    1
    30     2    28    1
    31    11    29    1
    32    12    30    1
    33    14    31    1
    34    16    32    1
    35    16    33    1
    36    16    34    1
    37    18    35    1
    38    20    36    1
    39    22    37    1
    40    23    38    1
    41    25    39    1
    42    25    40    1
    43    25    41    1
