@<TRIPOS>MOLECULE
NuBBE_1650
 55 55 0 0 0
SMALL
GASTEIGER

@<TRIPOS>ATOM
      1 C          -1.7665   -2.2560   -1.5584 C.3     1  LIG1       -0.0058
      2 C          -2.3027   -0.9193   -2.0283 C.2     1  LIG1       -0.0806
      3 C          -2.8228    0.0462   -1.2404 C.2     1  LIG1       -0.0759
      4 C          -3.1499    1.4346   -1.7820 C.3     1  LIG1       -0.0286
      5 C          -2.8936    2.6812   -0.8983 C.3     1  LIG1       -0.0308
      6 C          -1.4586    3.0181   -0.6168 C.2     1  LIG1       -0.0850
      7 C          -0.7688    2.8368    0.5253 C.2     1  LIG1       -0.0796
      8 C          -1.3348    2.0985    1.7432 C.3     1  LIG1       -0.0440
      9 C           0.6296    3.4474    0.5714 C.3     1  LIG1       -0.0440
     10 C          -2.9206   -0.1293    0.2380 C.3     1  LIG1       -0.0438
     11 C          -0.2552   -2.3328   -1.3753 C.ar    1  LIG1       -0.0012
     12 C           0.5125   -1.2834   -0.8695 C.ar    1  LIG1        0.1238
     13 O          -0.1437   -0.1482   -0.5386 O.3     1  LIG1       -0.5062
     14 C           1.9029   -1.3625   -0.6609 C.ar    1  LIG1       -0.0012
     15 C           2.7475   -0.2176   -0.1539 C.3     1  LIG1       -0.0058
     16 C           2.0166    0.6254    0.8296 C.2     1  LIG1       -0.0809
     17 C           1.9897    0.7009    2.1755 C.2     1  LIG1       -0.0793
     18 C           2.7213   -0.2469    3.0344 C.3     1  LIG1       -0.0440
     19 C           1.2107    1.6484    3.0547 C.3     1  LIG1       -0.0440
     20 C           2.5402   -2.5454   -0.9778 C.ar    1  LIG1       -0.0408
     21 C           1.8087   -3.6418   -1.4624 C.ar    1  LIG1        0.0596
     22 C           0.4214   -3.5228   -1.6639 C.ar    1  LIG1       -0.0408
     23 C           2.5567   -4.8735   -1.7618 C.2     1  LIG1        0.3368
     24 O           3.8305   -4.9222   -1.6517 O.2     1  LIG1       -0.2451
     25 O           1.8719   -5.9315   -2.1613 O.3     1  LIG1       -0.4771
     26 H          -2.0693   -2.9866   -2.3172 H       1  LIG1        0.0357
     27 H          -2.2511   -2.5899   -0.6332 H       1  LIG1        0.0357
     28 H          -2.1892   -0.7203   -3.0895 H       1  LIG1        0.0575
     29 H          -4.2207    1.4241   -2.0069 H       1  LIG1        0.0313
     30 H          -2.6201    1.5916   -2.7309 H       1  LIG1        0.0313
     31 H          -3.4803    2.6397    0.0244 H       1  LIG1        0.0310
     32 H          -3.2926    3.5563   -1.4329 H       1  LIG1        0.0310
     33 H          -0.9581    3.5578   -1.4190 H       1  LIG1        0.0572
     34 H          -2.4209    1.9786    1.7505 H       1  LIG1        0.0274
     35 H          -1.1695    2.6075    2.6914 H       1  LIG1        0.0274
     36 H          -0.8925    1.0857    1.8206 H       1  LIG1        0.0274
     37 H           0.9598    3.8565   -0.3844 H       1  LIG1        0.0274
     38 H           1.4537    2.7913    0.7771 H       1  LIG1        0.0274
     39 H           0.7285    4.1522    1.3934 H       1  LIG1        0.0274
     40 H          -2.6061   -1.0755    0.6797 H       1  LIG1        0.0274
     41 H          -3.8634    0.2056    0.6690 H       1  LIG1        0.0274
     42 H          -2.1512    0.5162    0.5761 H       1  LIG1        0.0274
     43 H           0.0435    0.5248   -1.2136 H       1  LIG1        0.2922
     44 H           2.9999    0.4124   -1.0243 H       1  LIG1        0.0357
     45 H           3.7010   -0.5382    0.2702 H       1  LIG1        0.0357
     46 H           1.3685    1.2130    0.2049 H       1  LIG1        0.0575
     47 H           3.4113   -0.8620    2.4663 H       1  LIG1        0.0274
     48 H           1.9792   -0.8808    3.5298 H       1  LIG1        0.0274
     49 H           3.2688    0.3285    3.7841 H       1  LIG1        0.0274
     50 H           0.6930    2.3921    2.5065 H       1  LIG1        0.0274
     51 H           1.8319    2.2880    3.6820 H       1  LIG1        0.0274
     52 H           0.4555    1.1285    3.6563 H       1  LIG1        0.0274
     53 H           3.6208   -2.6162   -0.8421 H       1  LIG1        0.0630
     54 H          -0.1710   -4.3307   -2.0643 H       1  LIG1        0.0630
     55 H           0.8976   -5.8541   -2.0946 H       1  LIG1        0.2954
@<TRIPOS>BOND
     1     1     2    1
     2     2     3    2
     3     3     4    1
     4     4     5    1
     5     5     6    1
     6     6     7    2
     7     7     8    1
     8     7     9    1
     9     3    10    1
    10     1    11    1
    11    11    12   ar
    12    12    13    1
    13    12    14   ar
    14    14    15    1
    15    15    16    1
    16    16    17    2
    17    17    18    1
    18    17    19    1
    19    14    20   ar
    20    20    21   ar
    21    21    22   ar
    22    11    22   ar
    23    21    23    1
    24    23    24    2
    25    23    25    1
    26     1    26    1
    27     1    27    1
    28     2    28    1
    29     4    29    1
    30     4    30    1
    31     5    31    1
    32     5    32    1
    33     6    33    1
    34     8    34    1
    35     8    35    1
    36     8    36    1
    37     9    37    1
    38     9    38    1
    39     9    39    1
    40    10    40    1
    41    10    41    1
    42    10    42    1
    43    13    43    1
    44    15    44    1
    45    15    45    1
    46    16    46    1
    47    18    47    1
    48    18    48    1
    49    18    49    1
    50    19    50    1
    51    19    51    1
    52    19    52    1
    53    20    53    1
    54    22    54    1
    55    25    55    1
