REMARK  Name = NuBBE_1639
REMARK  19 active torsions:
REMARK  status: ('A' for Active; 'I' for Inactive)
REMARK    1  A    between atoms: C_1  and  C_2
REMARK    2  A    between atoms: C_6  and  O_8
REMARK    3  A    between atoms: O_8  and  C_9
REMARK    4  A    between atoms: C_9  and  C_11
REMARK    5  A    between atoms: C_14  and  C_16
REMARK    6  A    between atoms: C_14  and  C_34
REMARK    7  A    between atoms: C_16  and  C_17
REMARK    8  A    between atoms: C_17  and  C_18
REMARK    9  A    between atoms: C_19  and  C_20
REMARK   10  A    between atoms: C_19  and  C_33
REMARK   11  A    between atoms: C_20  and  C_21
REMARK   12  A    between atoms: C_21  and  C_22
REMARK   13  A    between atoms: C_23  and  C_24
REMARK   14  A    between atoms: C_23  and  C_30
REMARK   15  A    between atoms: C_24  and  C_25
REMARK   16  A    between atoms: C_25  and  C_26
REMARK   17  A    between atoms: C_27  and  C_28
REMARK   18  A    between atoms: C_27  and  C_29
REMARK   19  A    between atoms: C_30  and  O_32
REMARK                            x       y       z     vdW  Elec       q    Type
REMARK                         _______ _______ _______ _____ _____    ______ ____
ROOT
ATOM      1  C   LIG A   1       1.925  -2.486  -0.796  0.00  0.00    +0.031 C 
ENDROOT
BRANCH   1   2
ATOM      2  C   LIG A   1       1.887  -2.799   0.686  0.00  0.00    -0.028 C 
ATOM      3  C   LIG A   1       2.943  -3.085   1.482  0.00  0.00    -0.076 C 
ATOM      4  C   LIG A   1       4.351  -3.214   0.968  0.00  0.00    +0.038 C 
BRANCH   3   5
ATOM      5  C   LIG A   1       2.774  -3.424   2.960  0.00  0.00    +0.034 C 
BRANCH   5   6
ATOM      6  C   LIG A   1       2.950  -2.270   3.973  0.00  0.00    +0.032 C 
BRANCH   6   7
ATOM      7  C   LIG A   1       1.918  -1.170   3.830  0.00  0.00    -0.016 C 
ATOM      8  C   LIG A   1       1.945   0.157   4.103  0.00  0.00    +0.033 C 
BRANCH   8   9
ATOM      9  C   LIG A   1       3.098   0.920   4.657  0.00  0.00    +0.333 C 
ATOM     10  O   LIG A   1       3.043   2.029   5.170  0.00  0.00    -0.245 OA
BRANCH   9  11
ATOM     11  O   LIG A   1       4.275   0.287   4.519  0.00  0.00    -0.477 OA
ATOM     12  H   LIG A   1       4.942   0.871   4.917  0.00  0.00    +0.295 HD
ENDBRANCH   9  11
ENDBRANCH   8   9
BRANCH   8  13
ATOM     13  C   LIG A   1       0.721   1.025   3.857  0.00  0.00    +0.046 C 
BRANCH  13  14
ATOM     14  C   LIG A   1      -0.507   0.304   3.279  0.00  0.00    +0.032 C 
BRANCH  14  15
ATOM     15  C   LIG A   1      -1.681   1.202   3.068  0.00  0.00    -0.028 C 
ATOM     16  C   LIG A   1      -2.874   0.827   2.562  0.00  0.00    -0.080 C 
ATOM     17  C   LIG A   1      -3.233  -0.578   2.153  0.00  0.00    +0.038 C 
ATOM     18  C   LIG A   1      -3.961   1.845   2.362  0.00  0.00    +0.038 C 
ENDBRANCH  14  15
ENDBRANCH  13  14
ENDBRANCH   8  13
ENDBRANCH   6   7
ENDBRANCH   5   6
ENDBRANCH   3   5
ENDBRANCH   1   2
BRANCH   1  19
ATOM     19  C   LIG A   1       1.342  -1.105  -1.139  0.00  0.00    +0.051 C 
BRANCH  19  29
ATOM     20  C   LIG A   1       0.484   3.389  -2.625  0.00  0.00    +0.048 C 
ATOM     21  C   LIG A   1      -0.558   2.350  -2.933  0.00  0.00    -0.005 A 
ATOM     22  C   LIG A   1      -0.226   0.991  -3.039  0.00  0.00    +0.128 A 
ATOM     23  C   LIG A   1      -1.190   0.048  -3.400  0.00  0.00    -0.002 A 
ATOM     24  C   LIG A   1      -2.520   0.468  -3.585  0.00  0.00    +0.053 A 
ATOM     25  C   LIG A   1      -2.860   1.817  -3.441  0.00  0.00    +0.132 A 
ATOM     26  C   LIG A   1      -1.879   2.756  -3.143  0.00  0.00    +0.053 A 
ATOM     27  C   LIG A   1      -0.828  -1.399  -3.552  0.00  0.00    +0.043 C 
ATOM     28  C   LIG A   1       0.680  -1.609  -3.605  0.00  0.00    +0.052 C 
ATOM     29  C   LIG A   1       1.457  -0.699  -2.640  0.00  0.00    +0.108 C 
ATOM     30  O   LIG A   1       1.072   0.680  -2.770  0.00  0.00    -0.485 OA
ATOM     31  C   LIG A   1       2.932  -0.672  -3.085  0.00  0.00    +0.056 C 
BRANCH  25  32
ATOM     32  O   LIG A   1      -4.237   2.132  -3.559  0.00  0.00    -0.426 OA
BRANCH  32  33
ATOM     33  C   LIG A   1      -4.769   3.425  -3.493  0.00  0.00    +0.309 C 
ATOM     34  O   LIG A   1      -4.157   4.483  -3.443  0.00  0.00    -0.251 OA
ATOM     35  C   LIG A   1      -6.264   3.346  -3.518  0.00  0.00    +0.136 C 
ENDBRANCH  32  33
ENDBRANCH  25  32
ENDBRANCH  19  29
ENDBRANCH   1  19
TORSDOF 13
