@<TRIPOS>MOLECULE
NuBBE_367
 66 70 0 0 0
SMALL
GASTEIGER

@<TRIPOS>ATOM
      1 O           6.3671   -3.5456    4.2459 O.3     1  LIG1       -0.5032
      2 C           5.2979   -3.2604    3.4446 C.ar    1  LIG1        0.1618
      3 C           5.2830   -2.0971    2.6739 C.ar    1  LIG1        0.0265
      4 C           4.1815   -1.8273    1.8582 C.ar    1  LIG1        0.1430
      5 O           4.2236   -0.6630    1.1291 O.2     1  LIG1       -0.4542
      6 C           3.1790   -0.3862    0.2797 C.ar    1  LIG1        0.1463
      7 C           3.2734    0.7954   -0.4552 C.ar    1  LIG1        0.0235
      8 C           2.2615    1.1390   -1.3566 C.ar    1  LIG1        0.1296
      9 C           1.1399    0.3137   -1.5595 C.ar    1  LIG1        0.0684
     10 C           0.0390    0.6721   -2.5562 C.3     1  LIG1        0.1303
     11 H          -0.6082   -0.1985   -2.6863 H       1  LIG1        0.0687
     12 O           0.6444    0.8765   -3.8448 O.3     1  LIG1       -0.3598
     13 C          -0.3185    1.2892   -4.8294 C.3     1  LIG1        0.1109
     14 H          -1.1458    0.5664   -4.8442 H       1  LIG1        0.0646
     15 C          -0.8125    2.6906   -4.4677 C.3     1  LIG1        0.1128
     16 H           0.0283    3.3813   -4.3227 H       1  LIG1        0.0647
     17 C          -1.6039    2.5875   -3.1591 C.3     1  LIG1        0.1231
     18 H          -2.5575    2.0855   -3.3449 H       1  LIG1        0.0658
     19 C          -0.7872    1.8893   -2.0585 C.3     1  LIG1        0.1618
     20 H          -0.1091    2.6524   -1.6590 H       1  LIG1        0.0791
     21 O          -1.6052    1.5291   -0.9147 O.3     1  LIG1       -0.4526
     22 C          -2.5663    0.5857   -1.0683 C.2     1  LIG1        0.3324
     23 C          -3.1661    0.2353    0.2322 C.2     1  LIG1        0.0231
     24 C          -2.6192    0.6227    1.3937 C.2     1  LIG1       -0.0477
     25 C          -3.2471    0.3408    2.6771 C.ar    1  LIG1       -0.0211
     26 C          -4.1912    1.2445    3.1819 C.ar    1  LIG1       -0.0094
     27 C          -4.7652    0.9989    4.4216 C.ar    1  LIG1        0.1588
     28 O          -5.6857    1.8490    4.9695 O.3     1  LIG1       -0.5033
     29 C          -4.4067   -0.1321    5.1505 C.ar    1  LIG1        0.1582
     30 C          -3.4760   -1.0355    4.6561 C.ar    1  LIG1       -0.0160
     31 C          -2.8930   -0.7992    3.4101 C.ar    1  LIG1       -0.0509
     32 O          -4.9733   -0.3595    6.3716 O.3     1  LIG1       -0.5033
     33 O          -2.9268    0.0767   -2.1188 O.2     1  LIG1       -0.2456
     34 O          -1.9659    3.9175   -2.7349 O.3     1  LIG1       -0.3854
     35 O          -1.6715    3.2630   -5.4590 O.3     1  LIG1       -0.3865
     36 C           0.3758    1.2287   -6.1889 C.3     1  LIG1        0.0729
     37 O           0.8239   -0.1060   -6.4352 O.3     1  LIG1       -0.3924
     38 C           1.0474   -0.8543   -0.7833 C.ar    1  LIG1        0.1405
     39 O          -0.0685   -1.6404   -0.9308 O.3     1  LIG1       -0.5054
     40 O           2.3550    2.3186   -2.0446 O.3     1  LIG1       -0.5062
     41 C           2.0614   -1.2016    0.1250 C.ar    1  LIG1        0.1064
     42 C           1.9825   -2.4214    0.9390 C.ar    1  LIG1        0.2038
     43 O           1.0010   -3.1557    0.8714 O.2     1  LIG1       -0.2863
     44 C           3.1148   -2.7235    1.8212 C.ar    1  LIG1        0.0684
     45 C           3.1212   -3.8878    2.5954 C.ar    1  LIG1       -0.0022
     46 C           4.2198   -4.1496    3.4077 C.ar    1  LIG1        0.1591
     47 O           4.2574   -5.2787    4.1758 O.3     1  LIG1       -0.5033
     48 H           7.0364   -2.8493    4.1616 H       1  LIG1        0.2923
     49 H           6.1152   -1.4012    2.6980 H       1  LIG1        0.0692
     50 H           4.1378    1.4386   -0.3132 H       1  LIG1        0.0691
     51 H          -4.0690   -0.3622    0.1799 H       1  LIG1        0.0689
     52 H          -1.7008    1.2010    1.4405 H       1  LIG1        0.0626
     53 H          -4.4545    2.1274    2.6078 H       1  LIG1        0.0661
     54 H          -5.8314    2.5797    4.3435 H       1  LIG1        0.2923
     55 H          -3.2043   -1.9116    5.2366 H       1  LIG1        0.0655
     56 H          -2.1590   -1.5019    3.0208 H       1  LIG1        0.0625
     57 H          -5.5830    0.3943    6.5008 H       1  LIG1        0.2923
     58 H          -2.3827    4.3269   -3.5187 H       1  LIG1        0.2101
     59 H          -1.1119    3.5843   -6.1885 H       1  LIG1        0.2100
     60 H           1.2560    1.8776   -6.2139 H       1  LIG1        0.0584
     61 H          -0.3010    1.5103   -6.9999 H       1  LIG1        0.0584
     62 H           1.2125   -0.4111   -5.5912 H       1  LIG1        0.2095
     63 H           0.0178   -2.4270   -0.3459 H       1  LIG1        0.2922
     64 H           3.1968    2.7546   -1.8316 H       1  LIG1        0.2922
     65 H           2.2783   -4.5719    2.5529 H       1  LIG1        0.0663
     66 H           3.4385   -5.7842    4.0524 H       1  LIG1        0.2923
@<TRIPOS>BOND
     1     1     2    1
     2     2     3   ar
     3     3     4   ar
     4     4     5   ar
     5     5     6   ar
     6     6     7   ar
     7     7     8   ar
     8     8     9   ar
     9    10    12    1
    10    12    13    1
    11    13    14    1
    12    13    15    1
    13    15    17    1
    14    17    18    1
    15    17    19    1
    16    10    19    1
    17    21    22    1
    18    22    23    1
    19    23    24    2
    20    24    25    1
    21    25    26   ar
    22    26    27   ar
    23    27    28    1
    24    27    29   ar
    25    29    30   ar
    26    30    31   ar
    27    25    31   ar
    28    29    32    1
    29    22    33    2
    30    17    34    1
    31    13    36    1
    32    36    37    1
    33     9    38   ar
    34    38    39    1
    35     8    40    1
    36     6    41   ar
    37    38    41   ar
    38    41    42   ar
    39    42    43    2
    40     4    44   ar
    41    42    44   ar
    42    44    45   ar
    43    45    46   ar
    44     2    46   ar
    45    46    47    1
    46    10    11    1
    47    10     9    1
    48    15    35    1
    49    15    16    1
    50    19    21    1
    51    19    20    1
    52     1    48    1
    53     3    49    1
    54     7    50    1
    55    23    51    1
    56    24    52    1
    57    26    53    1
    58    28    54    1
    59    30    55    1
    60    31    56    1
    61    32    57    1
    62    34    58    1
    63    35    59    1
    64    36    60    1
    65    36    61    1
    66    37    62    1
    67    39    63    1
    68    40    64    1
    69    45    65    1
    70    47    66    1
