@<TRIPOS>MOLECULE
NuBBE_573
 52 54 0 0 0
SMALL
GASTEIGER

@<TRIPOS>ATOM
      1 C          -3.5534    1.5987    0.7629 C.3     1  LIG1       -0.0363
      2 C          -2.1211    1.9804    0.7313 C.2     1  LIG1       -0.0039
      3 C          -1.2603    1.3070   -0.2180 C.2     1  LIG1        0.1881
      4 O          -1.6762    0.3741   -0.8759 O.2     1  LIG1       -0.2872
      5 C          -1.3297    2.8213    1.3928 C.2     1  LIG1       -0.0345
      6 C           0.1256    2.7032    0.9935 C.3     1  LIG1        0.1712
      7 O           0.5875    4.0187    0.7500 O.3     1  LIG1       -0.3727
      8 C           0.0496    1.9252   -0.2822 C.2     1  LIG1        0.0407
      9 C           0.7992    1.8983   -1.4013 C.2     1  LIG1       -0.0428
     10 C           0.6980    0.9378   -2.5787 C.3     1  LIG1        0.0821
     11 O           1.7869    1.3953   -3.4318 O.3     1  LIG1       -0.3848
     12 C          -0.5503    1.0420   -3.4652 C.3     1  LIG1       -0.0324
     13 C           1.1285   -0.5188   -2.2122 C.3     1  LIG1       -0.0203
     14 C           0.1532   -1.5830   -1.6598 C.3     1  LIG1       -0.0466
     15 C           0.6495   -2.2695   -0.4145 C.3     1  LIG1       -0.0322
     16 H           1.4476   -2.9345   -0.7597 H       1  LIG1        0.0309
     17 C           0.8491   -1.8159    1.0425 C.3     1  LIG1       -0.0317
     18 C          -0.2327   -2.8629    0.6873 C.3     1  LIG1       -0.0287
     19 C           0.0227   -4.3038    1.0736 C.3     1  LIG1       -0.0593
     20 C          -1.6990   -2.5176    0.8549 C.3     1  LIG1       -0.0593
     21 H           1.7637   -2.2185    1.4830 H       1  LIG1        0.0309
     22 C           0.4293   -0.6225    1.8701 C.3     1  LIG1       -0.0400
     23 C           1.4346    0.5342    2.0949 C.3     1  LIG1        0.0186
     24 H           1.7963    0.3616    3.1244 H       1  LIG1        0.0376
     25 C           2.7253    0.5318    1.2919 C.3     1  LIG1       -0.0556
     26 C           0.8134    1.9544    2.2119 C.2     1  LIG1        0.1760
     27 O           0.8667    2.5176    3.3192 O.2     1  LIG1       -0.2933
     28 H          -3.7107    0.6265    0.2739 H       1  LIG1        0.0279
     29 H          -4.1443    2.3297    0.2081 H       1  LIG1        0.0279
     30 H          -3.9146    1.4954    1.7854 H       1  LIG1        0.0279
     31 H          -1.6633    3.5042    2.1603 H       1  LIG1        0.0612
     32 H           1.4930    3.9700    0.4044 H       1  LIG1        0.2115
     33 H           1.6263    2.6036   -1.4635 H       1  LIG1        0.0605
     34 H           1.4926    2.2034   -3.8863 H       1  LIG1        0.2106
     35 H          -0.7063    2.0732   -3.8074 H       1  LIG1        0.0260
     36 H          -1.4778    0.7189   -2.9985 H       1  LIG1        0.0260
     37 H          -0.4242    0.4367   -4.3702 H       1  LIG1        0.0260
     38 H           1.9950   -0.4561   -1.5433 H       1  LIG1        0.0296
     39 H           1.5562   -0.9507   -3.1295 H       1  LIG1        0.0296
     40 H           0.1705   -2.3831   -2.4208 H       1  LIG1        0.0269
     41 H          -0.9045   -1.3508   -1.6785 H       1  LIG1        0.0269
     42 H           1.0523   -4.6118    0.8725 H       1  LIG1        0.0235
     43 H          -0.6434   -4.9689    0.5115 H       1  LIG1        0.0235
     44 H          -0.1770   -4.4487    2.1407 H       1  LIG1        0.0235
     45 H          -1.9840   -2.6346    1.9089 H       1  LIG1        0.0235
     46 H          -2.3284   -3.1971    0.2698 H       1  LIG1        0.0235
     47 H          -1.9599   -1.5031    0.5656 H       1  LIG1        0.0235
     48 H           0.2967   -1.0626    2.8746 H       1  LIG1        0.0275
     49 H          -0.5678   -0.2565    1.6458 H       1  LIG1        0.0275
     50 H           2.5622    0.6627    0.2264 H       1  LIG1        0.0236
     51 H           3.2776   -0.4018    1.4429 H       1  LIG1        0.0236
     52 H           3.3798    1.3472    1.6222 H       1  LIG1        0.0236
@<TRIPOS>BOND
     1     1     2    1
     2     2     3    1
     3     3     4    2
     4     2     5    2
     5     5     6    1
     6     6     7    1
     7     6     8    1
     8     3     8    1
     9     8     9    2
    10     9    10    1
    11    10    11    1
    12    10    12    1
    13    10    13    1
    14    13    14    1
    15    14    15    1
    16    15    16    1
    17    15    17    1
    18    17    18    1
    19    18    19    1
    20    15    18    1
    21    18    20    1
    22    17    21    1
    23    17    22    1
    24    22    23    1
    25    23    26    1
    26     6    26    1
    27    26    27    2
    28    23    25    1
    29    23    24    1
    30     1    28    1
    31     1    29    1
    32     1    30    1
    33     5    31    1
    34     7    32    1
    35     9    33    1
    36    11    34    1
    37    12    35    1
    38    12    36    1
    39    12    37    1
    40    13    38    1
    41    13    39    1
    42    14    40    1
    43    14    41    1
    44    19    42    1
    45    19    43    1
    46    19    44    1
    47    20    45    1
    48    20    46    1
    49    20    47    1
    50    22    48    1
    51    22    49    1
    52    25    50    1
    53    25    51    1
    54    25    52    1
