@<TRIPOS>MOLECULE
NuBBE_2053
 29 30 0 0 0
SMALL
GASTEIGER

@<TRIPOS>ATOM
      1 O          -2.0799    0.6719    0.0618 O.3     1  LIG1       -0.4885
      2 C          -2.6953    1.7022    0.8257 C.3     1  LIG1        0.0791
      3 C          -0.7044    0.6610    0.0415 C.ar    1  LIG1        0.2051
      4 C          -0.1229   -0.6200    0.0178 C.ar    1  LIG1        0.1873
      5 C           1.2625   -0.7562   -0.0677 C.ar    1  LIG1        0.1091
      6 C           2.0761    0.3741   -0.1172 C.ar    1  LIG1        0.1349
      7 C           1.5106    1.6427   -0.1039 C.ar    1  LIG1        0.0261
      8 C           0.1179    1.8023   -0.0472 C.ar    1  LIG1        0.1687
      9 O          -0.4776    3.0360   -0.0570 O.3     1  LIG1       -0.4912
     10 C           0.2123    4.0661   -0.7580 C.3     1  LIG1        0.0790
     11 O           3.4422    0.3082   -0.1965 O.3     1  LIG1       -0.5058
     12 C           1.8336   -2.1117   -0.0877 C.ar    1  LIG1        0.1964
     13 O           3.0459   -2.2903   -0.1611 O.2     1  LIG1       -0.2869
     14 C           0.9007   -3.2347   -0.0160 C.ar    1  LIG1        0.0237
     15 C          -0.4155   -2.9817    0.0583 C.ar    1  LIG1        0.1064
     16 O          -0.9593   -1.7103    0.0827 O.2     1  LIG1       -0.4558
     17 C          -1.4396   -4.0725    0.1453 C.3     1  LIG1       -0.0062
     18 H          -3.7057    1.3623    1.0836 H       1  LIG1        0.0660
     19 H          -2.8091    2.6126    0.2277 H       1  LIG1        0.0660
     20 H          -2.1609    1.8982    1.7635 H       1  LIG1        0.0660
     21 H           2.1803    2.4975   -0.1345 H       1  LIG1        0.0692
     22 H          -0.4811    4.9035   -0.8832 H       1  LIG1        0.0660
     23 H           0.5210    3.7346   -1.7557 H       1  LIG1        0.0660
     24 H           1.0675    4.4297   -0.1794 H       1  LIG1        0.0660
     25 H           3.7056   -0.6388   -0.2121 H       1  LIG1        0.2922
     26 H           1.3123   -4.2349   -0.0298 H       1  LIG1        0.0689
     27 H          -0.9868   -5.0678    0.1230 H       1  LIG1        0.0308
     28 H          -2.1356   -3.9997   -0.6982 H       1  LIG1        0.0308
     29 H          -2.0147   -3.9843    1.0740 H       1  LIG1        0.0308
@<TRIPOS>BOND
     1     1     2    1
     2     1     3    1
     3     3     4   ar
     4     4     5   ar
     5     5     6   ar
     6     6     7   ar
     7     7     8   ar
     8     3     8   ar
     9     8     9    1
    10     9    10    1
    11     6    11    1
    12     5    12   ar
    13    12    13    2
    14    12    14   ar
    15    14    15   ar
    16    15    16   ar
    17     4    16   ar
    18    15    17    1
    19     2    18    1
    20     2    19    1
    21     2    20    1
    22     7    21    1
    23    10    22    1
    24    10    23    1
    25    10    24    1
    26    11    25    1
    27    14    26    1
    28    17    27    1
    29    17    28    1
    30    17    29    1
