@<TRIPOS>MOLECULE
NuBBE_166
 62 62 0 0 0
SMALL
GASTEIGER

@<TRIPOS>ATOM
      1 O          -5.6449    4.8292    3.0065 O.3     1  LIG1       -0.3903
      2 C          -5.4427    3.4804    3.4427 C.3     1  LIG1        0.0703
      3 H          -5.8134    3.4079    4.4705 H       1  LIG1        0.0609
      4 C          -6.1997    2.5090    2.5137 C.3     1  LIG1        0.0310
      5 H          -6.0244    1.4740    2.8368 H       1  LIG1        0.0483
      6 C          -7.7063    2.7659    2.5607 C.3     1  LIG1       -0.0473
      7 N          -5.7169    2.6943    1.1274 N.3     1  LIG1       -0.3083
      8 H          -6.2737    2.1095    0.5012 H       1  LIG1        0.1225
      9 C          -4.2925    2.3231    1.0004 C.3     1  LIG1        0.0080
     10 H          -4.2138    1.2487    1.2078 H       1  LIG1        0.0460
     11 C          -3.8285    2.5868   -0.4583 C.3     1  LIG1       -0.0375
     12 C          -2.3169    2.3030   -0.7388 C.3     1  LIG1       -0.0516
     13 C          -1.9500    0.8294   -0.4731 C.3     1  LIG1       -0.0530
     14 C          -0.4944    0.2975   -0.6055 C.3     1  LIG1       -0.0531
     15 C           0.2323    0.4394   -1.9507 C.3     1  LIG1       -0.0531
     16 C           1.6557   -0.2168   -2.0614 C.3     1  LIG1       -0.0531
     17 C           1.7909   -1.7610   -1.8762 C.3     1  LIG1       -0.0531
     18 C           3.2677   -2.2902   -2.0564 C.3     1  LIG1       -0.0531
     19 C           3.4585   -3.8322   -1.8883 C.3     1  LIG1       -0.0530
     20 C           4.8549   -4.5176   -2.0444 C.3     1  LIG1       -0.0527
     21 C           5.9726   -4.2101   -1.0420 C.3     1  LIG1       -0.0464
     22 C           6.5367   -2.8021   -1.1252 C.3     1  LIG1        0.0055
     23 C           7.6652   -2.5274   -0.1316 C.2     1  LIG1        0.1303
     24 C           8.5868   -3.6764    0.2087 C.3     1  LIG1       -0.0061
     25 O           7.8497   -1.4209    0.3163 O.2     1  LIG1       -0.2977
     26 C          -3.4057    3.1014    1.9894 C.3     1  LIG1       -0.0352
     27 C          -3.9501    3.1739    3.4139 C.3     1  LIG1       -0.0240
     28 H          -5.6550    4.7764    2.0288 H       1  LIG1        0.2098
     29 H          -8.0792    2.6639    3.5862 H       1  LIG1        0.0245
     30 H          -8.2465    2.0438    1.9387 H       1  LIG1        0.0245
     31 H          -7.9624    3.7711    2.2092 H       1  LIG1        0.0245
     32 H          -4.4456    1.9925   -1.1471 H       1  LIG1        0.0280
     33 H          -4.0399    3.6391   -0.7026 H       1  LIG1        0.0280
     34 H          -1.7155    2.9629   -0.1041 H       1  LIG1        0.0266
     35 H          -2.0976    2.5903   -1.7744 H       1  LIG1        0.0266
     36 H          -2.6197    0.1925   -1.0627 H       1  LIG1        0.0265
     37 H          -2.1989    0.6465    0.5782 H       1  LIG1        0.0265
     38 H          -0.5515   -0.7721   -0.3662 H       1  LIG1        0.0265
     39 H           0.1120    0.7561    0.1835 H       1  LIG1        0.0265
     40 H           0.3607    1.5147   -2.1350 H       1  LIG1        0.0265
     41 H          -0.3989    0.0553   -2.7588 H       1  LIG1        0.0265
     42 H           2.3283    0.2875   -1.3564 H       1  LIG1        0.0265
     43 H           2.0320    0.0292   -3.0645 H       1  LIG1        0.0265
     44 H           1.1371   -2.2623   -2.5983 H       1  LIG1        0.0265
     45 H           1.4413   -2.0235   -0.8717 H       1  LIG1        0.0265
     46 H           3.8674   -1.7686   -1.3109 H       1  LIG1        0.0265
     47 H           3.6292   -1.9846   -3.0455 H       1  LIG1        0.0265
     48 H           2.8177   -4.3222   -2.6340 H       1  LIG1        0.0265
     49 H           3.0695   -4.1270   -0.9083 H       1  LIG1        0.0265
     50 H           5.2457   -4.4166   -3.0648 H       1  LIG1        0.0265
     51 H           4.6763   -5.6011   -1.9264 H       1  LIG1        0.0265
     52 H           6.7891   -4.9260   -1.2367 H       1  LIG1        0.0269
     53 H           5.6393   -4.4258   -0.0199 H       1  LIG1        0.0269
     54 H           5.7577   -2.0876   -0.8679 H       1  LIG1        0.0341
     55 H           6.9053   -2.5796   -2.1307 H       1  LIG1        0.0341
     56 H           9.0301   -4.0741   -0.7102 H       1  LIG1        0.0306
     57 H           8.0191   -4.4588    0.7237 H       1  LIG1        0.0306
     58 H           9.3794   -3.3349    0.8715 H       1  LIG1        0.0306
     59 H          -3.2497    4.1223    1.6193 H       1  LIG1        0.0281
     60 H          -2.4173    2.6295    2.0392 H       1  LIG1        0.0281
     61 H          -3.3949    3.9512    3.9527 H       1  LIG1        0.0291
     62 H          -3.7616    2.2211    3.9218 H       1  LIG1        0.0291
@<TRIPOS>BOND
     1     1     2    1
     2     2     3    1
     3     2     4    1
     4     4     5    1
     5     4     6    1
     6     4     7    1
     7     7     8    1
     8     7     9    1
     9    11    12    1
    10    12    13    1
    11    13    14    1
    12    14    15    1
    13    15    16    1
    14    16    17    1
    15    17    18    1
    16    18    19    1
    17    19    20    1
    18    20    21    1
    19    21    22    1
    20    22    23    1
    21    23    24    1
    22    23    25    2
    23     9    26    1
    24    26    27    1
    25     2    27    1
    26     9    11    1
    27     9    10    1
    28     1    28    1
    29     6    29    1
    30     6    30    1
    31     6    31    1
    32    11    32    1
    33    11    33    1
    34    12    34    1
    35    12    35    1
    36    13    36    1
    37    13    37    1
    38    14    38    1
    39    14    39    1
    40    15    40    1
    41    15    41    1
    42    16    42    1
    43    16    43    1
    44    17    44    1
    45    17    45    1
    46    18    46    1
    47    18    47    1
    48    19    48    1
    49    19    49    1
    50    20    50    1
    51    20    51    1
    52    21    52    1
    53    21    53    1
    54    22    54    1
    55    22    55    1
    56    24    56    1
    57    24    57    1
    58    24    58    1
    59    26    59    1
    60    26    60    1
    61    27    61    1
    62    27    62    1
