@<TRIPOS>MOLECULE
NuBBE_1472
 49 51 0 0 0
SMALL
GASTEIGER

@<TRIPOS>ATOM
      1 C          -0.1239   -3.4793   -4.2091 C.3     1  LIG1        0.0790
      2 O           0.5692   -3.9340   -3.0588 O.3     1  LIG1       -0.4913
      3 C           0.6996   -3.0948   -1.9856 C.ar    1  LIG1        0.1655
      4 C           0.1661   -1.7961   -1.9750 C.ar    1  LIG1       -0.0094
      5 C           0.2052   -1.0047   -0.8226 C.ar    1  LIG1        0.0002
      6 C          -0.4297    0.3714   -0.8261 C.3     1  LIG1        0.1324
      7 C           0.5674    1.4416   -1.2317 C.3     1  LIG1        0.0520
      8 C          -0.1760    2.7552   -1.2057 C.2     1  LIG1        0.1740
      9 C          -0.9310    2.9996    0.0500 C.ar    1  LIG1        0.1009
     10 C          -1.2707    4.2750    0.5247 C.ar    1  LIG1        0.1375
     11 O          -0.9178    5.3590   -0.2303 O.3     1  LIG1       -0.4942
     12 C          -0.6863    6.5755    0.4712 C.3     1  LIG1        0.0788
     13 C          -1.9528    4.3826    1.7523 C.ar    1  LIG1        0.0227
     14 C          -2.2351    3.2482    2.5184 C.ar    1  LIG1        0.1271
     15 O          -2.8532    3.4494    3.7235 O.3     1  LIG1       -0.4949
     16 C          -2.5696    2.4501    4.7057 C.3     1  LIG1        0.0788
     17 C          -1.8978    1.9954    2.0294 C.ar    1  LIG1        0.0227
     18 C          -1.2487    1.8755    0.8093 C.ar    1  LIG1        0.1389
     19 O          -0.9363    0.5867    0.4912 O.3     1  LIG1       -0.4828
     20 O          -0.1441    3.5283   -2.1343 O.2     1  LIG1       -0.2917
     21 C           0.8298   -1.5216    0.3207 C.ar    1  LIG1       -0.0094
     22 C           1.4232   -2.7890    0.3158 C.ar    1  LIG1        0.1655
     23 O           1.9863   -3.1276    1.5266 O.3     1  LIG1       -0.4913
     24 C           3.0536   -4.0706    1.4935 C.3     1  LIG1        0.0790
     25 C           1.3662   -3.5895   -0.8441 C.ar    1  LIG1        0.2035
     26 O           1.9657   -4.8131   -0.7305 O.3     1  LIG1       -0.4885
     27 C           2.0950   -5.6917   -1.8292 C.3     1  LIG1        0.0791
     28 H           0.4869   -2.7547   -4.7560 H       1  LIG1        0.0660
     29 H          -1.1079   -3.0703   -3.9611 H       1  LIG1        0.0660
     30 H          -0.2879   -4.3460   -4.8554 H       1  LIG1        0.0660
     31 H          -0.3107   -1.3801   -2.8573 H       1  LIG1        0.0659
     32 H          -1.2994    0.3674   -1.4991 H       1  LIG1        0.0789
     33 H           0.9559    1.2653   -2.2399 H       1  LIG1        0.0385
     34 H           1.4143    1.5143   -0.5396 H       1  LIG1        0.0385
     35 H          -0.3120    7.3123   -0.2458 H       1  LIG1        0.0660
     36 H           0.0756    6.4429    1.2476 H       1  LIG1        0.0660
     37 H          -1.6131    6.9751    0.8925 H       1  LIG1        0.0660
     38 H          -2.2667    5.3459    2.1415 H       1  LIG1        0.0691
     39 H          -3.1005    2.7102    5.6244 H       1  LIG1        0.0660
     40 H          -1.4954    2.4217    4.9227 H       1  LIG1        0.0660
     41 H          -2.9303    1.4607    4.4062 H       1  LIG1        0.0660
     42 H          -2.1286    1.0817    2.5640 H       1  LIG1        0.0691
     43 H           0.8633   -0.9336    1.2375 H       1  LIG1        0.0659
     44 H           3.6197   -3.9827    2.4244 H       1  LIG1        0.0660
     45 H           3.7476   -3.8636    0.6708 H       1  LIG1        0.0660
     46 H           2.6695   -5.0961    1.4556 H       1  LIG1        0.0660
     47 H           1.1558   -6.2313   -1.9752 H       1  LIG1        0.0660
     48 H           2.8654   -6.4245   -1.5685 H       1  LIG1        0.0660
     49 H           2.4442   -5.1961   -2.7386 H       1  LIG1        0.0660
@<TRIPOS>BOND
     1     1     2    1
     2     2     3    1
     3     3     4   ar
     4     4     5   ar
     5     5     6    1
     6     6     7    1
     7     7     8    1
     8     8     9    1
     9     9    10   ar
    10    10    11    1
    11    11    12    1
    12    10    13   ar
    13    13    14   ar
    14    14    15    1
    15    15    16    1
    16    14    17   ar
    17    17    18   ar
    18     9    18   ar
    19    18    19    1
    20     6    19    1
    21     8    20    2
    22     5    21   ar
    23    21    22   ar
    24    22    23    1
    25    23    24    1
    26    22    25   ar
    27     3    25   ar
    28    25    26    1
    29    26    27    1
    30     1    28    1
    31     1    29    1
    32     1    30    1
    33     4    31    1
    34     6    32    1
    35     7    33    1
    36     7    34    1
    37    12    35    1
    38    12    36    1
    39    12    37    1
    40    13    38    1
    41    16    39    1
    42    16    40    1
    43    16    41    1
    44    17    42    1
    45    21    43    1
    46    24    44    1
    47    24    45    1
    48    24    46    1
    49    27    47    1
    50    27    48    1
    51    27    49    1
