@<TRIPOS>MOLECULE
NuBBE_964
 28 30 0 0 0
SMALL
GASTEIGER

@<TRIPOS>ATOM
      1 C          -2.3394    1.0733    4.2076 C.3     1  LIG1        0.0788
      2 O          -1.6812    1.9755    3.3257 O.3     1  LIG1       -0.4950
      3 C          -1.1153    1.4386    2.2026 C.ar    1  LIG1        0.1222
      4 C          -1.0916    0.0860    1.8606 C.ar    1  LIG1        0.0062
      5 C          -0.4960   -0.3703    0.6919 C.ar    1  LIG1        0.0818
      6 N          -0.5374   -1.6848    0.4717 N.ar    1  LIG1       -0.2117
      7 C           0.0228   -2.0876   -0.6751 C.ar    1  LIG1        0.2311
      8 O           0.0368   -3.3966   -1.0509 O.2     1  LIG1       -0.4449
      9 C           0.6473   -3.4619   -2.2574 C.ar    1  LIG1        0.0952
     10 C           1.0332   -2.2082   -2.6690 C.ar    1  LIG1       -0.0109
     11 C           0.6458   -1.2997   -1.6421 C.ar    1  LIG1        0.0820
     12 C           0.7049    0.0843   -1.3775 C.ar    1  LIG1        0.1415
     13 O           1.2272    1.0532   -2.2251 O.3     1  LIG1       -0.4937
     14 C           2.3082    0.6509   -3.0539 C.3     1  LIG1        0.0788
     15 C           0.1041    0.5636   -0.1836 C.ar    1  LIG1        0.0431
     16 C           0.0844    1.9301    0.1689 C.ar    1  LIG1       -0.0456
     17 C          -0.5181    2.3598    1.3500 C.ar    1  LIG1       -0.0192
     18 H          -2.7546    1.6570    5.0348 H       1  LIG1        0.0660
     19 H          -1.6332    0.3513    4.6307 H       1  LIG1        0.0660
     20 H          -3.1717    0.5671    3.7072 H       1  LIG1        0.0660
     21 H          -1.5461   -0.6610    2.5051 H       1  LIG1        0.0676
     22 H           0.7249   -4.4508   -2.6882 H       1  LIG1        0.1030
     23 H           1.5315   -1.9952   -3.6021 H       1  LIG1        0.0657
     24 H           2.8404    1.5544   -3.3676 H       1  LIG1        0.0660
     25 H           1.9310    0.1690   -3.9597 H       1  LIG1        0.0660
     26 H           3.0230    0.0122   -2.5250 H       1  LIG1        0.0660
     27 H           0.5423    2.6724   -0.4822 H       1  LIG1        0.0626
     28 H          -0.5236    3.4173    1.6026 H       1  LIG1        0.0654
@<TRIPOS>BOND
     1     1     2    1
     2     2     3    1
     3     3     4   ar
     4     4     5   ar
     5     5     6   ar
     6     6     7   ar
     7     7     8   ar
     8     8     9   ar
     9     9    10   ar
    10     7    11   ar
    11    10    11   ar
    12    11    12   ar
    13    12    13    1
    14    13    14    1
    15     5    15   ar
    16    12    15   ar
    17    15    16   ar
    18    16    17   ar
    19     3    17   ar
    20     1    18    1
    21     1    19    1
    22     1    20    1
    23     4    21    1
    24     9    22    1
    25    10    23    1
    26    14    24    1
    27    14    25    1
    28    14    26    1
    29    16    27    1
    30    17    28    1
