@<TRIPOS>MOLECULE
NuBBE_1562
 28 30 0 0 0
SMALL
GASTEIGER

@<TRIPOS>ATOM
      1 O          -3.3534    0.6957    0.4160 O.2     1  LIG1       -0.2869
      2 C          -2.1377    0.6447    0.2636 C.ar    1  LIG1        0.1966
      3 C          -1.3311    1.8658    0.1612 C.ar    1  LIG1        0.1052
      4 C          -1.9090    3.1366    0.2328 C.ar    1  LIG1        0.1312
      5 O          -3.2520    3.3375    0.4011 O.3     1  LIG1       -0.5059
      6 C          -1.1103    4.2729    0.1320 C.ar    1  LIG1       -0.0192
      7 C           0.2692    4.1407   -0.0407 C.ar    1  LIG1       -0.0548
      8 C           0.8477    2.8714   -0.1122 C.ar    1  LIG1       -0.0184
      9 C           0.0448    1.7343   -0.0108 C.ar    1  LIG1        0.1428
     10 O           0.6745    0.5172   -0.0875 O.2     1  LIG1       -0.4545
     11 C          -0.0960   -0.6328   -0.0006 C.ar    1  LIG1        0.1392
     12 C           0.6782   -1.8864   -0.0880 C.ar    1  LIG1        0.0174
     13 C           1.9043   -2.0011    0.5845 C.ar    1  LIG1       -0.0511
     14 C           2.6558   -3.1764    0.5065 C.ar    1  LIG1       -0.0611
     15 C           2.1941   -4.2503   -0.2507 C.ar    1  LIG1       -0.0617
     16 C           0.9840   -4.1490   -0.9330 C.ar    1  LIG1       -0.0611
     17 C           0.2316   -2.9738   -0.8549 C.ar    1  LIG1       -0.0511
     18 C          -1.4256   -0.6378    0.1741 C.ar    1  LIG1        0.0288
     19 H          -3.6879    2.4571    0.4571 H       1  LIG1        0.2922
     20 H          -1.5630    5.2597    0.1879 H       1  LIG1        0.0654
     21 H           0.8922    5.0286   -0.1199 H       1  LIG1        0.0620
     22 H           1.9217    2.7712   -0.2477 H       1  LIG1        0.0654
     23 H           2.2832   -1.1749    1.1829 H       1  LIG1        0.0625
     24 H           3.6018   -3.2515    1.0367 H       1  LIG1        0.0618
     25 H           2.7794   -5.1642   -0.3127 H       1  LIG1        0.0618
     26 H           0.6266   -4.9835   -1.5313 H       1  LIG1        0.0618
     27 H          -0.7005   -2.9158   -1.4125 H       1  LIG1        0.0625
     28 H          -2.0226   -1.5357    0.2661 H       1  LIG1        0.0693
@<TRIPOS>BOND
     1     1     2    2
     2     2     3   ar
     3     3     4   ar
     4     4     5    1
     5     4     6   ar
     6     6     7   ar
     7     7     8   ar
     8     8     9   ar
     9     3     9   ar
    10     9    10   ar
    11    10    11   ar
    12    11    12    1
    13    12    13   ar
    14    13    14   ar
    15    14    15   ar
    16    15    16   ar
    17    16    17   ar
    18    12    17   ar
    19    11    18   ar
    20     2    18   ar
    21     5    19    1
    22     6    20    1
    23     7    21    1
    24     8    22    1
    25    13    23    1
    26    14    24    1
    27    15    25    1
    28    16    26    1
    29    17    27    1
    30    18    28    1
