REMARK  Name = NuBBE_880
REMARK  16 active torsions:
REMARK  status: ('A' for Active; 'I' for Inactive)
REMARK    1  A    between atoms: C_3  and  O_4
REMARK    2  A    between atoms: O_4  and  C_5
REMARK    3  A    between atoms: C_6  and  C_7
REMARK    4  A    between atoms: C_7  and  C_8
REMARK    5  A    between atoms: C_8  and  C_9
REMARK    6  A    between atoms: C_9  and  C_10
REMARK    7  A    between atoms: C_10  and  C_11
REMARK    8  A    between atoms: C_11  and  C_12
REMARK    9  A    between atoms: C_12  and  C_13
REMARK   10  A    between atoms: C_13  and  C_14
REMARK   11  A    between atoms: C_14  and  C_15
REMARK   12  A    between atoms: C_15  and  C_16
REMARK   13  A    between atoms: C_16  and  C_17
REMARK   14  A    between atoms: C_16  and  O_19
REMARK   15  A    between atoms: C_16  and  C_20
REMARK   16  A    between atoms: C_17  and  C_18
REMARK                            x       y       z     vdW  Elec       q    Type
REMARK                         _______ _______ _______ _____ _____    ______ ____
ROOT
ATOM      1  C   LIG A   1      -0.181   2.756   1.407  0.00  0.00    +0.057 C 
ENDROOT
BRANCH   1   5
ATOM      2  O   LIG A   1      -1.624   6.907   3.598  0.00  0.00    -0.283 OA
ATOM      3  C   LIG A   1      -1.433   6.224   2.607  0.00  0.00    +0.231 A 
ATOM      4  C   LIG A   1      -0.927   4.796   2.657  0.00  0.00    +0.186 A 
ATOM      5  C   LIG A   1      -0.729   4.177   1.473  0.00  0.00    +0.062 A 
ATOM      6  N   LIG A   1      -0.967   4.769   0.247  0.00  0.00    -0.355 N 
ATOM      7  H   LIG A   1      -0.889   4.203  -0.585  0.00  0.00    +0.166 HD
ATOM      8  C   LIG A   1      -1.488   6.066   0.136  0.00  0.00    +0.051 A 
ATOM      9  C   LIG A   1      -1.743   6.642  -1.107  0.00  0.00    +0.026 A 
ATOM     10  C   LIG A   1      -2.226   7.953  -1.191  0.00  0.00    +0.002 A 
ATOM     11  C   LIG A   1      -2.449   8.700  -0.037  0.00  0.00    +0.001 A 
ATOM     12  C   LIG A   1      -2.192   8.133   1.211  0.00  0.00    +0.014 A 
ATOM     13  C   LIG A   1      -1.712   6.824   1.287  0.00  0.00    +0.049 A 
BRANCH   4  14
ATOM     14  O   LIG A   1      -0.696   4.119   3.850  0.00  0.00    -0.490 OA
ATOM     15  C   LIG A   1      -1.003   4.795   5.063  0.00  0.00    +0.277 C 
ENDBRANCH   4  14
ENDBRANCH   1   5
BRANCH   1  16
ATOM     16  C   LIG A   1      -1.298   1.708   1.442  0.00  0.00    +0.006 C 
BRANCH  16  17
ATOM     17  C   LIG A   1      -0.720   0.296   1.369  0.00  0.00    +0.000 C 
BRANCH  17  18
ATOM     18  C   LIG A   1      -1.815  -0.775   1.382  0.00  0.00    +0.000 C 
BRANCH  18  19
ATOM     19  C   LIG A   1      -1.245  -2.197   1.314  0.00  0.00    -0.000 C 
BRANCH  19  20
ATOM     20  C   LIG A   1      -0.455  -2.447   0.026  0.00  0.00    -0.000 C 
BRANCH  20  21
ATOM     21  C   LIG A   1       0.092  -3.874  -0.047  0.00  0.00    +0.000 C 
BRANCH  21  22
ATOM     22  C   LIG A   1       0.895  -4.084  -1.334  0.00  0.00    +0.003 C 
BRANCH  22  23
ATOM     23  C   LIG A   1       1.496  -5.497  -1.428  0.00  0.00    +0.034 C 
BRANCH  23  24
ATOM     24  C   LIG A   1       2.289  -5.759  -2.737  0.00  0.00    +0.063 C 
ATOM     25  C   LIG A   1       3.418  -4.737  -2.902  0.00  0.00    +0.041 C 
BRANCH  24  26
ATOM     26  C   LIG A   1       2.836  -7.208  -2.760  0.00  0.00    +0.031 C 
ATOM     27  C   LIG A   1       3.616  -7.564  -4.026  0.00  0.00    +0.007 C 
ENDBRANCH  24  26
BRANCH  24  28
ATOM     28  O   LIG A   1       1.403  -5.591  -3.849  0.00  0.00    -0.389 OA
ATOM     29  H   LIG A   1       0.726  -6.288  -3.803  0.00  0.00    +0.210 HD
ENDBRANCH  24  28
ENDBRANCH  23  24
ENDBRANCH  22  23
ENDBRANCH  21  22
ENDBRANCH  20  21
ENDBRANCH  19  20
ENDBRANCH  18  19
ENDBRANCH  17  18
ENDBRANCH  16  17
ENDBRANCH   1  16
TORSDOF 13
