REMARK  Name = NuBBE_1883
REMARK  15 active torsions:
REMARK  status: ('A' for Active; 'I' for Inactive)
REMARK    1  A    between atoms: C_4  and  O_30
REMARK    2  A    between atoms: C_5  and  O_6
REMARK    3  A    between atoms: O_6  and  C_7
REMARK    4  A    between atoms: C_8  and  O_28
REMARK    5  A    between atoms: C_12  and  C_13
REMARK    6  A    between atoms: C_15  and  O_16
REMARK    7  A    between atoms: O_16  and  C_17
REMARK    8  A    between atoms: C_18  and  O_23
REMARK    9  A    between atoms: C_20  and  O_21
REMARK   10  A    between atoms: O_21  and  C_22
REMARK   11  A    between atoms: O_23  and  C_24
REMARK   12  A    between atoms: C_25  and  O_26
REMARK   13  A    between atoms: O_26  and  C_27
REMARK   14  A    between atoms: O_28  and  C_29
REMARK   15  A    between atoms: O_30  and  C_31
REMARK                            x       y       z     vdW  Elec       q    Type
REMARK                         _______ _______ _______ _____ _____    ______ ____
ROOT
ATOM      1  O   LIG A   1      -3.760  -0.505   0.804  0.00  0.00    -0.283 OA
ATOM      2  C   LIG A   1      -2.576  -0.425   0.528  0.00  0.00    +0.238 A 
ATOM      3  C   LIG A   1      -1.648  -1.590   0.573  0.00  0.00    +0.113 A 
ATOM      4  C   LIG A   1      -1.983  -2.882   0.123  0.00  0.00    +0.180 A 
ATOM      5  C   LIG A   1      -0.989  -3.886   0.145  0.00  0.00    +0.204 A 
ATOM      6  C   LIG A   1       0.288  -3.607   0.709  0.00  0.00    +0.169 A 
ATOM      7  C   LIG A   1       0.583  -2.315   1.151  0.00  0.00    +0.096 A 
ATOM      8  C   LIG A   1      -0.349  -1.309   1.026  0.00  0.00    +0.147 A 
ATOM      9  O   LIG A   1       0.058  -0.034   1.278  0.00  0.00    -0.451 OA
ATOM     10  C   LIG A   1      -0.582   0.956   0.551  0.00  0.00    +0.184 A 
ATOM     11  C   LIG A   1      -1.881   0.858   0.156  0.00  0.00    +0.211 A 
ENDROOT
BRANCH  10  12
ATOM     12  C   LIG A   1       0.296   2.087   0.237  0.00  0.00    +0.066 A 
ATOM     13  C   LIG A   1       0.382   3.156   1.145  0.00  0.00    +0.064 A 
ATOM     14  C   LIG A   1       1.275   4.210   0.929  0.00  0.00    +0.162 A 
ATOM     15  C   LIG A   1       2.080   4.201  -0.228  0.00  0.00    +0.165 A 
ATOM     16  C   LIG A   1       2.006   3.133  -1.128  0.00  0.00    +0.095 A 
ATOM     17  C   LIG A   1       1.133   2.065  -0.895  0.00  0.00    +0.135 A 
BRANCH  14  18
ATOM     18  O   LIG A   1       1.431   5.301   1.738  0.00  0.00    -0.491 OA
ATOM     19  C   LIG A   1       0.787   5.383   2.999  0.00  0.00    +0.277 C 
ENDBRANCH  14  18
BRANCH  17  20
ATOM     20  O   LIG A   1       1.032   0.978  -1.731  0.00  0.00    -0.494 OA
ATOM     21  C   LIG A   1       2.180   0.689  -2.525  0.00  0.00    +0.277 C 
ENDBRANCH  17  20
BRANCH  15  22
ATOM     22  O   LIG A   1       2.974   5.237  -0.376  0.00  0.00    -0.491 OA
ATOM     23  C   LIG A   1       3.283   5.622  -1.712  0.00  0.00    +0.277 C 
ENDBRANCH  15  22
ENDBRANCH  10  12
BRANCH   5  24
ATOM     24  O   LIG A   1      -1.287  -5.052  -0.514  0.00  0.00    -0.488 OA
ATOM     25  C   LIG A   1      -0.763  -6.276  -0.020  0.00  0.00    +0.277 C 
ENDBRANCH   5  24
BRANCH  11  26
ATOM     26  O   LIG A   1      -2.529   1.873  -0.511  0.00  0.00    -0.488 OA
ATOM     27  C   LIG A   1      -3.542   1.409  -1.405  0.00  0.00    +0.277 C 
ENDBRANCH  11  26
BRANCH   6  28
ATOM     28  O   LIG A   1       1.256  -4.585   0.728  0.00  0.00    -0.491 OA
ATOM     29  C   LIG A   1       2.286  -4.408   1.704  0.00  0.00    +0.277 C 
ENDBRANCH   6  28
BRANCH   4  30
ATOM     30  O   LIG A   1      -3.268  -2.980  -0.347  0.00  0.00    -0.490 OA
ATOM     31  C   LIG A   1      -3.821  -4.210  -0.786  0.00  0.00    +0.277 C 
ENDBRANCH   4  30
TORSDOF 8
