REMARK  Name = NuBBE_2483
REMARK  8 active torsions:
REMARK  status: ('A' for Active; 'I' for Inactive)
REMARK    1  A    between atoms: C_1  and  C_2
REMARK    2  A    between atoms: C_1  and  C_4
REMARK    3  A    between atoms: C_9  and  O_11
REMARK    4  A    between atoms: O_11  and  C_12
REMARK    5  A    between atoms: C_14  and  C_19
REMARK    6  A    between atoms: C_16  and  C_18
REMARK    7  A    between atoms: C_23  and  O_25
REMARK    8  A    between atoms: O_25  and  C_26
REMARK                            x       y       z     vdW  Elec       q    Type
REMARK                         _______ _______ _______ _____ _____    ______ ____
ROOT
ATOM      1  C   LIG A   1      -1.191   0.796  -1.456  0.00  0.00    +0.059 C 
ATOM      2  C   LIG A   1       0.220   1.332  -1.515  0.00  0.00    +0.113 C 
ATOM      3  C   LIG A   1       0.539   2.622  -1.615  0.00  0.00    +0.096 C 
ATOM      4  C   LIG A   1      -0.528   3.639  -1.618  0.00  0.00    +0.223 C 
ATOM      5  O   LIG A   1      -0.248   4.781  -1.947  0.00  0.00    -0.284 OA
ATOM      6  C   LIG A   1      -1.891   3.204  -1.129  0.00  0.00    +0.164 C 
ATOM      7  C   LIG A   1      -2.167   1.893  -1.079  0.00  0.00    +0.038 C 
ATOM      8  O   LIG A   1       1.200   0.412  -1.186  0.00  0.00    -0.487 OA
ATOM      9  C   LIG A   1       0.501  -0.736  -0.680  0.00  0.00    +0.207 C 
ATOM     10  C   LIG A   1      -0.961  -0.302  -0.384  0.00  0.00    +0.049 C 
ATOM     11  C   LIG A   1      -1.187   0.178   1.060  0.00  0.00    +0.013 C 
ENDROOT
BRANCH   9  12
ATOM     12  C   LIG A   1       1.263  -1.391   0.455  0.00  0.00    +0.000 A 
ATOM     13  C   LIG A   1       2.106  -0.681   1.326  0.00  0.00    +0.057 A 
ATOM     14  C   LIG A   1       2.741  -1.379   2.339  0.00  0.00    +0.170 A 
ATOM     15  C   LIG A   1       2.577  -2.738   2.517  0.00  0.00    +0.207 A 
ATOM     16  C   LIG A   1       1.760  -3.470   1.676  0.00  0.00    +0.166 A 
ATOM     17  C   LIG A   1       1.107  -2.781   0.646  0.00  0.00    +0.057 A 
ATOM     18  O   LIG A   1       3.322  -3.197   3.562  0.00  0.00    -0.449 OA
ATOM     19  C   LIG A   1       3.952  -1.989   4.024  0.00  0.00    +0.467 C 
ATOM     20  O   LIG A   1       3.592  -0.830   3.251  0.00  0.00    -0.453 OA
BRANCH  16  21
ATOM     21  O   LIG A   1       1.545  -4.816   1.677  0.00  0.00    -0.491 OA
ATOM     22  C   LIG A   1       1.622  -5.465   2.938  0.00  0.00    +0.277 C 
ENDBRANCH  16  21
ENDBRANCH   9  12
BRANCH   6  23
ATOM     23  O   LIG A   1      -2.878   4.115  -0.781  0.00  0.00    -0.492 OA
ATOM     24  C   LIG A   1      -2.407   5.318  -0.177  0.00  0.00    +0.277 C 
ENDBRANCH   6  23
BRANCH   1  25
ATOM     25  C   LIG A   1      -1.676   0.141  -2.802  0.00  0.00    +0.045 C 
BRANCH  25  26
ATOM     26  C   LIG A   1      -1.755   1.036  -4.021  0.00  0.00    -0.033 C 
ATOM     27  C   LIG A   1      -2.862   1.250  -4.748  0.00  0.00    +0.004 C 
ENDBRANCH  25  26
ENDBRANCH   1  25
TORSDOF 5
