REMARK  Name = NuBBE_1760
REMARK  15 active torsions:
REMARK  status: ('A' for Active; 'I' for Inactive)
REMARK    1  A    between atoms: C_2  and  O_3
REMARK    2  A    between atoms: C_2  and  C_5
REMARK    3  A    between atoms: O_3  and  C_4
REMARK    4  A    between atoms: C_7  and  C_8
REMARK    5  A    between atoms: C_8  and  C_9
REMARK    6  A    between atoms: C_10  and  C_11
REMARK    7  A    between atoms: C_10  and  C_12
REMARK    8  A    between atoms: C_15  and  C_17
REMARK    9  A    between atoms: C_17  and  C_18
REMARK   10  A    between atoms: C_17  and  O_19
REMARK   11  A    between atoms: C_17  and  C_20
REMARK   12  A    between atoms: C_20  and  C_21
REMARK   13  A    between atoms: C_21  and  C_22
REMARK   14  A    between atoms: C_23  and  C_24
REMARK   15  A    between atoms: C_23  and  C_25
REMARK                            x       y       z     vdW  Elec       q    Type
REMARK                         _______ _______ _______ _____ _____    ______ ____
ROOT
ATOM      1  C   LIG A   1      -0.010  -0.101  -3.160  0.00  0.00    +0.060 A 
ATOM      2  C   LIG A   1      -0.637  -1.326  -2.855  0.00  0.00    +0.022 A 
ATOM      3  C   LIG A   1      -0.358  -2.013  -1.655  0.00  0.00    -0.001 A 
ATOM      4  C   LIG A   1       0.591  -1.444  -0.814  0.00  0.00    +0.128 A 
ATOM      5  O   LIG A   1       0.930  -1.912   0.432  0.00  0.00    -0.485 OA
ATOM      6  C   LIG A   1       1.667  -0.809   1.062  0.00  0.00    +0.209 C 
ATOM      7  C   LIG A   1       2.165   0.129  -0.048  0.00  0.00    +0.086 C 
ATOM      8  C   LIG A   1       1.241  -0.264  -1.132  0.00  0.00    -0.001 A 
ATOM      9  C   LIG A   1       0.970   0.415  -2.300  0.00  0.00    +0.022 A 
ENDROOT
BRANCH   1  11
ATOM     10  O   LIG A   1      -1.335   0.319  -5.132  0.00  0.00    -0.245 OA
ATOM     11  C   LIG A   1      -0.444   0.667  -4.361  0.00  0.00    +0.339 C 
BRANCH  11  12
ATOM     12  O   LIG A   1       0.277   1.805  -4.417  0.00  0.00    -0.465 OA
ATOM     13  C   LIG A   1      -0.008   2.693  -5.495  0.00  0.00    +0.280 C 
ENDBRANCH  11  12
ENDBRANCH   1  11
BRANCH   6  14
ATOM     14  C   LIG A   1       0.774  -0.138   2.164  0.00  0.00    +0.101 C 
ATOM     15  C   LIG A   1      -0.542   0.424   1.603  0.00  0.00    +0.045 C 
BRANCH  14  16
ATOM     16  O   LIG A   1       0.404  -1.168   3.100  0.00  0.00    -0.385 OA
ATOM     17  H   LIG A   1      -0.034  -1.870   2.579  0.00  0.00    +0.210 HD
ENDBRANCH  14  16
BRANCH  14  18
ATOM     18  C   LIG A   1       1.594   0.927   2.948  0.00  0.00    +0.042 C 
BRANCH  18  19
ATOM     19  C   LIG A   1       0.852   1.590   4.120  0.00  0.00    +0.030 C 
BRANCH  19  20
ATOM     20  C   LIG A   1       1.681   2.604   4.879  0.00  0.00    -0.028 C 
ATOM     21  C   LIG A   1       1.719   3.943   4.710  0.00  0.00    -0.080 C 
ATOM     22  C   LIG A   1       1.038   4.702   3.604  0.00  0.00    +0.038 C 
ATOM     23  C   LIG A   1       2.484   4.827   5.664  0.00  0.00    +0.038 C 
ENDBRANCH  19  20
ENDBRANCH  18  19
ENDBRANCH  14  18
ENDBRANCH   6  14
BRANCH   3  24
ATOM     24  C   LIG A   1      -1.049  -3.308  -1.292  0.00  0.00    +0.066 C 
BRANCH  24  25
ATOM     25  C   LIG A   1      -2.454  -3.411  -1.835  0.00  0.00    -0.023 C 
ATOM     26  C   LIG A   1      -2.951  -4.337  -2.680  0.00  0.00    -0.079 C 
ATOM     27  C   LIG A   1      -2.183  -5.506  -3.230  0.00  0.00    +0.038 C 
ATOM     28  C   LIG A   1      -4.373  -4.247  -3.170  0.00  0.00    +0.038 C 
ENDBRANCH  24  25
ENDBRANCH   3  24
TORSDOF 9
