@<TRIPOS>MOLECULE
NuBBE_2293
 36 38 0 0 0
SMALL
GASTEIGER

@<TRIPOS>ATOM
      1 C          -2.0004    1.8672    0.8421 C.3     1  LIG1       -0.0549
      2 C          -0.4810    1.8721    0.7545 C.3     1  LIG1        0.0218
      3 C           0.1551    2.9961   -0.1127 C.3     1  LIG1        0.1040
      4 C          -0.8052    4.0114   -0.7182 C.3     1  LIG1       -0.0272
      5 O           0.9066    2.3939   -1.2070 O.3     1  LIG1       -0.4882
      6 C           0.8332    1.0185   -1.0350 C.ar    1  LIG1        0.1250
      7 C           0.0566    0.6772    0.0682 C.ar    1  LIG1        0.0043
      8 C          -0.0400   -0.6967    0.3237 C.ar    1  LIG1       -0.0341
      9 C          -0.7478   -1.4604    1.3988 C.3     1  LIG1       -0.0177
     10 C          -0.2007   -1.1600    2.7869 C.3     1  LIG1       -0.0584
     11 C          -0.5226   -2.9389    0.9918 C.3     1  LIG1       -0.0424
     12 C           0.3955   -2.9736   -0.2511 C.3     1  LIG1       -0.0266
     13 C           0.6173   -1.5295   -0.6123 C.ar    1  LIG1       -0.0405
     14 C           1.3779   -1.1591   -1.7222 C.ar    1  LIG1       -0.0435
     15 C           2.0468   -2.1270   -2.6467 C.3     1  LIG1       -0.0393
     16 C           1.4922    0.1998   -1.9272 C.ar    1  LIG1       -0.0165
     17 H          -2.3702    2.7882    1.3035 H       1  LIG1        0.0237
     18 H          -2.3550    1.0370    1.4613 H       1  LIG1        0.0237
     19 H          -2.4683    1.7563   -0.1422 H       1  LIG1        0.0237
     20 H          -0.0612    1.9222    1.7662 H       1  LIG1        0.0383
     21 H           0.8872    3.5394    0.4994 H       1  LIG1        0.0736
     22 H          -1.4907    3.5362   -1.4278 H       1  LIG1        0.0265
     23 H          -0.2480    4.7631   -1.2882 H       1  LIG1        0.0265
     24 H          -1.3837    4.5292    0.0520 H       1  LIG1        0.0265
     25 H          -1.8180   -1.2301    1.3588 H       1  LIG1        0.0346
     26 H           0.8750   -1.3589    2.8498 H       1  LIG1        0.0236
     27 H          -0.7055   -1.7736    3.5404 H       1  LIG1        0.0236
     28 H          -0.3582   -0.1107    3.0565 H       1  LIG1        0.0236
     29 H          -1.4864   -3.4033    0.7474 H       1  LIG1        0.0274
     30 H          -0.0939   -3.5367    1.8047 H       1  LIG1        0.0274
     31 H          -0.0942   -3.5051   -1.0736 H       1  LIG1        0.0314
     32 H           1.3501   -3.4533   -0.0123 H       1  LIG1        0.0314
     33 H           1.8658   -3.1709   -2.3802 H       1  LIG1        0.0278
     34 H           3.1300   -1.9657   -2.6354 H       1  LIG1        0.0278
     35 H           1.6811   -1.9791   -3.6684 H       1  LIG1        0.0278
     36 H           2.0604    0.6251   -2.7456 H       1  LIG1        0.0657
@<TRIPOS>BOND
     1     1     2    1
     2     2     3    1
     3     3     4    1
     4     3     5    1
     5     5     6    1
     6     6     7   ar
     7     2     7    1
     8     7     8   ar
     9     8     9    1
    10     9    10    1
    11     9    11    1
    12    11    12    1
    13     8    13   ar
    14    12    13    1
    15    13    14   ar
    16    14    15    1
    17    14    16   ar
    18     6    16   ar
    19     1    17    1
    20     1    18    1
    21     1    19    1
    22     2    20    1
    23     3    21    1
    24     4    22    1
    25     4    23    1
    26     4    24    1
    27     9    25    1
    28    10    26    1
    29    10    27    1
    30    10    28    1
    31    11    29    1
    32    11    30    1
    33    12    31    1
    34    12    32    1
    35    15    33    1
    36    15    34    1
    37    15    35    1
    38    16    36    1
