@<TRIPOS>MOLECULE
NuBBE_1971
 17 16 0 0 0
SMALL
GASTEIGER

@<TRIPOS>ATOM
      1 S          -1.3033    1.5669   -0.6753 S.3     1  LIG1       -0.1526
      2 C          -1.6876    0.0372    0.2347 C.3     1  LIG1        0.0118
      3 C          -1.3155   -1.1694   -0.5715 C.2     1  LIG1       -0.0813
      4 C          -0.4174   -2.0910   -0.1825 C.2     1  LIG1       -0.1019
      5 C           0.5012    1.4023   -0.8429 C.3     1  LIG1        0.0118
      6 C           1.1603    1.3487    0.5007 C.2     1  LIG1       -0.0813
      7 C           1.8922    0.3086    0.9350 C.2     1  LIG1       -0.1019
      8 H          -2.7647    0.0207    0.4263 H       1  LIG1        0.0419
      9 H          -1.1938    0.0611    1.2110 H       1  LIG1        0.0419
     10 H          -1.8085   -1.2923   -1.5306 H       1  LIG1        0.0574
     11 H           0.0997   -2.0123    0.7665 H       1  LIG1        0.0532
     12 H          -0.1711   -2.9299   -0.8209 H       1  LIG1        0.0532
     13 H           0.8726    2.2767   -1.3864 H       1  LIG1        0.0419
     14 H           0.7310    0.5270   -1.4582 H       1  LIG1        0.0419
     15 H           1.0272    2.2067    1.1528 H       1  LIG1        0.0574
     16 H           2.0467   -0.5689    0.3164 H       1  LIG1        0.0532
     17 H           2.3309    0.3081    1.9248 H       1  LIG1        0.0532
@<TRIPOS>BOND
     1     1     2    1
     2     2     3    1
     3     3     4    2
     4     1     5    1
     5     5     6    1
     6     6     7    2
     7     2     8    1
     8     2     9    1
     9     3    10    1
    10     4    11    1
    11     4    12    1
    12     5    13    1
    13     5    14    1
    14     6    15    1
    15     7    16    1
    16     7    17    1
