REMARK  Name = NuBBE_2082
REMARK  9 active torsions:
REMARK  status: ('A' for Active; 'I' for Inactive)
REMARK    1  A    between atoms: O_1  and  C_2
REMARK    2  A    between atoms: C_3  and  C_4
REMARK    3  A    between atoms: C_5  and  O_6
REMARK    4  A    between atoms: C_7  and  C_8
REMARK    5  A    between atoms: C_8  and  C_9
REMARK    6  A    between atoms: C_9  and  C_10
REMARK    7  A    between atoms: C_10  and  C_11
REMARK    8  A    between atoms: C_19  and  O_20
REMARK    9  A    between atoms: C_22  and  C_23
REMARK                            x       y       z     vdW  Elec       q    Type
REMARK                         _______ _______ _______ _____ _____    ______ ____
ROOT
ATOM      1  C   LIG A   1      -0.087   1.796  -0.354  0.00  0.00    +0.039 C 
ENDROOT
BRANCH   1   6
ATOM      2  C   LIG A   1      -4.357   1.277   0.084  0.00  0.00    +0.126 A 
ATOM      3  C   LIG A   1      -3.778   1.070  -1.181  0.00  0.00    +0.033 A 
ATOM      4  C   LIG A   1      -4.631   0.668  -2.355  0.00  0.00    +0.051 C 
ATOM      5  C   LIG A   1      -2.384   1.223  -1.306  0.00  0.00    +0.126 A 
ATOM      6  C   LIG A   1      -1.585   1.611  -0.220  0.00  0.00    -0.005 A 
ATOM      7  C   LIG A   1      -2.202   1.827   1.022  0.00  0.00    +0.014 A 
ATOM      8  C   LIG A   1      -3.588   1.673   1.189  0.00  0.00    -0.008 A 
ATOM      9  C   LIG A   1      -4.191   1.924   2.543  0.00  0.00    +0.048 C 
BRANCH   2  10
ATOM     10  O   LIG A   1      -5.708   1.073   0.200  0.00  0.00    -0.506 OA
ATOM     11  H   LIG A   1      -5.963   1.100   1.134  0.00  0.00    +0.292 HD
ENDBRANCH   2  10
BRANCH   5  12
ATOM     12  O   LIG A   1      -1.742   0.998  -2.497  0.00  0.00    -0.506 OA
ATOM     13  H   LIG A   1      -2.366   0.615  -3.131  0.00  0.00    +0.292 HD
ENDBRANCH   5  12
ENDBRANCH   1   6
BRANCH   1  14
ATOM     14  C   LIG A   1       0.707   0.514  -0.074  0.00  0.00    +0.010 C 
BRANCH  14  15
ATOM     15  C   LIG A   1       2.218   0.756  -0.203  0.00  0.00    +0.039 C 
BRANCH  15  16
ATOM     16  C   LIG A   1       3.036  -0.489   0.064  0.00  0.00    -0.002 A 
ATOM     17  C   LIG A   1       3.352  -1.352  -1.001  0.00  0.00    +0.056 A 
ATOM     18  C   LIG A   1       4.076  -2.495  -0.731  0.00  0.00    +0.167 A 
ATOM     19  O   LIG A   1       4.450  -3.435  -1.640  0.00  0.00    -0.453 OA
ATOM     20  C   LIG A   1       5.133  -4.380  -0.790  0.00  0.00    +0.466 C 
ATOM     21  O   LIG A   1       5.189  -3.971   0.593  0.00  0.00    -0.453 OA
ATOM     22  C   LIG A   1       4.499  -2.800   0.542  0.00  0.00    +0.170 A 
ATOM     23  C   LIG A   1       4.223  -1.980   1.613  0.00  0.00    +0.095 A 
ATOM     24  C   LIG A   1       3.483  -0.821   1.364  0.00  0.00    +0.124 A 
BRANCH  24  25
ATOM     25  O   LIG A   1       3.178   0.024   2.396  0.00  0.00    -0.506 OA
ATOM     26  H   LIG A   1       3.597  -0.313   3.205  0.00  0.00    +0.292 HD
ENDBRANCH  24  25
ENDBRANCH  15  16
ENDBRANCH  14  15
ENDBRANCH   1  14
TORSDOF 7
