@<TRIPOS>MOLECULE
NuBBE_1079
 45 48 0 0 0
SMALL
GASTEIGER

@<TRIPOS>ATOM
      1 O          -3.3084   -2.0668   -0.0451 O.2     1  LIG1       -0.2864
      2 C          -2.0794   -2.0632   -0.0232 C.ar    1  LIG1        0.2009
      3 C          -1.3475   -0.7753   -0.0491 C.ar    1  LIG1        0.0915
      4 C           0.0555   -0.8003   -0.1362 C.ar    1  LIG1        0.1025
      5 C           0.7329    0.4391   -0.1044 C.ar    1  LIG1        0.1866
      6 O           2.1121    0.4430   -0.1350 O.3     1  LIG1       -0.4895
      7 C           2.6364    0.7002    1.1691 C.3     1  LIG1        0.0791
      8 C           0.0347    1.6615   -0.0787 C.ar    1  LIG1        0.1758
      9 O           0.7911    2.8027   -0.1046 O.3     1  LIG1       -0.4778
     10 C           0.1479    4.0904   -0.1439 C.3     1  LIG1        0.1237
     11 C           0.5603    4.7458   -1.4667 C.3     1  LIG1       -0.0215
     12 C           0.7242    4.8897    1.0308 C.3     1  LIG1       -0.0215
     13 C          -1.3557    4.0697   -0.0409 C.2     1  LIG1       -0.0408
     14 C          -2.0683    2.9424    0.0173 C.2     1  LIG1       -0.0477
     15 C          -1.3615    1.6675   -0.0237 C.ar    1  LIG1        0.0624
     16 C          -2.0492    0.4442   -0.0009 C.ar    1  LIG1        0.1405
     17 O          -3.4242    0.4796    0.0656 O.3     1  LIG1       -0.5053
     18 N           0.7456   -2.0489   -0.2123 N.ar    1  LIG1       -0.3369
     19 C           1.7012   -2.0882   -1.3466 C.3     1  LIG1        0.0126
     20 C           0.0746   -3.2799    0.0038 C.ar    1  LIG1        0.0950
     21 C           0.7651   -4.4865    0.2124 C.ar    1  LIG1        0.1409
     22 O           2.1286   -4.5041    0.3452 O.3     1  LIG1       -0.5047
     23 C           0.1001   -5.7016    0.3636 C.ar    1  LIG1       -0.0181
     24 C          -1.2922   -5.7302    0.3571 C.ar    1  LIG1       -0.0575
     25 C          -2.0075   -4.5408    0.2245 C.ar    1  LIG1       -0.0487
     26 C          -1.3231   -3.3268    0.0656 C.ar    1  LIG1        0.0495
     27 H           3.6866    0.3934    1.1708 H       1  LIG1        0.0660
     28 H           2.1166    0.1235    1.9430 H       1  LIG1        0.0660
     29 H           2.5993    1.7687    1.4020 H       1  LIG1        0.0660
     30 H           1.6520    4.7808   -1.5614 H       1  LIG1        0.0271
     31 H           0.1740    5.7670   -1.5571 H       1  LIG1        0.0271
     32 H           0.1962    4.1633   -2.3216 H       1  LIG1        0.0271
     33 H           1.8188    4.9254    0.9791 H       1  LIG1        0.0271
     34 H           0.4774    4.4115    1.9865 H       1  LIG1        0.0271
     35 H           0.3471    5.9180    1.0531 H       1  LIG1        0.0271
     36 H          -1.8753    5.0241   -0.0205 H       1  LIG1        0.0611
     37 H          -3.1509    2.9517    0.0866 H       1  LIG1        0.0624
     38 H          -3.7588   -0.4460    0.0342 H       1  LIG1        0.2922
     39 H           1.4469   -1.3636   -2.1309 H       1  LIG1        0.0456
     40 H           1.7294   -3.0626   -1.8497 H       1  LIG1        0.0456
     41 H           2.7145   -1.8785   -0.9875 H       1  LIG1        0.0456
     42 H           2.3800   -3.5917    0.5809 H       1  LIG1        0.2922
     43 H           0.6671   -6.6168    0.5117 H       1  LIG1        0.0655
     44 H          -1.8190   -6.6728    0.4836 H       1  LIG1        0.0619
     45 H          -3.0951   -4.5587    0.2534 H       1  LIG1        0.0625
@<TRIPOS>BOND
     1     1     2    2
     2     2     3   ar
     3     3     4   ar
     4     4     5   ar
     5     5     6    1
     6     6     7    1
     7     5     8   ar
     8     8     9    1
     9     9    10    1
    10    10    11    1
    11    10    12    1
    12    10    13    1
    13    13    14    2
    14     8    15   ar
    15    14    15    1
    16    15    16   ar
    17     3    16   ar
    18    16    17    1
    19     4    18   ar
    20    18    19    1
    21    18    20   ar
    22    20    21   ar
    23    21    22    1
    24    21    23   ar
    25    23    24   ar
    26    24    25   ar
    27    25    26   ar
    28    20    26   ar
    29     2    26   ar
    30     7    27    1
    31     7    28    1
    32     7    29    1
    33    11    30    1
    34    11    31    1
    35    11    32    1
    36    12    33    1
    37    12    34    1
    38    12    35    1
    39    13    36    1
    40    14    37    1
    41    17    38    1
    42    19    39    1
    43    19    40    1
    44    19    41    1
    45    22    42    1
    46    23    43    1
    47    24    44    1
    48    25    45    1
