REMARK  Name = NuBBE_514
REMARK  8 active torsions:
REMARK  status: ('A' for Active; 'I' for Inactive)
REMARK    1  A    between atoms: O_1  and  C_2
REMARK    2  A    between atoms: C_6  and  C_27
REMARK    3  A    between atoms: C_9  and  C_10
REMARK    4  A    between atoms: C_9  and  C_12
REMARK    5  A    between atoms: C_10  and  O_11
REMARK    6  A    between atoms: C_23  and  C_24
REMARK    7  A    between atoms: C_23  and  O_26
REMARK    8  A    between atoms: C_24  and  O_25
REMARK                            x       y       z     vdW  Elec       q    Type
REMARK                         _______ _______ _______ _____ _____    ______ ____
ROOT
ATOM      1  C   LIG A   1      -0.628  -0.639  -3.408  0.00  0.00    +0.123 C 
ATOM      2  C   LIG A   1      -1.034  -1.797  -2.497  0.00  0.00    +0.032 C 
ATOM      3  C   LIG A   1      -1.086  -1.376  -1.028  0.00  0.00    +0.010 C 
ATOM      4  C   LIG A   1       0.267  -0.840  -0.491  0.00  0.00    -0.023 C 
ATOM      5  C   LIG A   1       0.780   0.294  -1.464  0.00  0.00    +0.006 C 
ATOM      6  C   LIG A   1       0.732   0.011  -3.022  0.00  0.00    +0.020 C 
ATOM      7  C   LIG A   1       1.879  -0.888  -3.541  0.00  0.00    +0.016 C 
ATOM      8  C   LIG A   1       2.131   0.846  -0.968  0.00  0.00    +0.005 C 
ATOM      9  C   LIG A   1       1.998   1.444   0.425  0.00  0.00    +0.004 C 
ATOM     10  C   LIG A   1       1.371   0.498   1.463  0.00  0.00    -0.004 C 
ATOM     11  C   LIG A   1       0.087  -0.253   0.985  0.00  0.00    -0.020 C 
ATOM     12  C   LIG A   1      -0.946   0.890   1.144  0.00  0.00    +0.014 C 
ATOM     13  C   LIG A   1      -0.652   1.359   2.579  0.00  0.00    +0.024 C 
ATOM     14  C   LIG A   1       0.892   1.317   2.675  0.00  0.00    +0.010 C 
ATOM     15  C   LIG A   1      -0.254  -1.375   2.049  0.00  0.00    +0.010 C 
ATOM     16  C   LIG A   1      -1.377  -1.042   3.047  0.00  0.00    +0.038 C 
ATOM     17  C   LIG A   1      -1.364   0.406   3.572  0.00  0.00    +0.092 C 
ATOM     18  C   LIG A   1       1.272  -2.028  -0.414  0.00  0.00    +0.012 C 
ENDROOT
BRANCH   1  19
ATOM     19  O   LIG A   1      -1.663   0.352  -3.370  0.00  0.00    -0.391 OA
ATOM     20  H   LIG A   1      -2.506  -0.093  -3.567  0.00  0.00    +0.210 HD
ENDBRANCH   1  19
BRANCH  17  21
ATOM     21  O   LIG A   1      -0.725   0.465   4.859  0.00  0.00    -0.386 OA
ATOM     22  H   LIG A   1       0.002  -0.180   4.869  0.00  0.00    +0.210 HD
ENDBRANCH  17  21
BRANCH   6  23
ATOM     23  C   LIG A   1       0.879   1.378  -3.771  0.00  0.00    +0.165 C 
BRANCH  23  24
ATOM     24  O   LIG A   1       0.606   1.257  -5.165  0.00  0.00    -0.394 OA
ATOM     25  H   LIG A   1      -0.366   1.228  -5.238  0.00  0.00    +0.209 HD
ENDBRANCH  23  24
ENDBRANCH   6  23
BRANCH  17  26
ATOM     26  C   LIG A   1      -2.822   0.862   3.836  0.00  0.00    +0.190 C 
BRANCH  26  27
ATOM     27  O   LIG A   1      -2.839   2.162   4.426  0.00  0.00    -0.392 OA
ATOM     28  H   LIG A   1      -2.119   2.141   5.088  0.00  0.00    +0.209 HD
ENDBRANCH  26  27
ENDBRANCH  17  26
TORSDOF 6
