@<TRIPOS>MOLECULE
NuBBE_447
 31 32 0 0 0
SMALL
GASTEIGER

@<TRIPOS>ATOM
      1 H           0.2357   -1.0619    1.2182 H       1  LIG1        0.0400
      2 C           0.2037   -0.4238    0.3247 C.3     1  LIG1        0.0235
      3 C           1.5697    0.1711    0.1102 C.2     1  LIG1       -0.0769
      4 C           1.6487    1.4049    0.6230 C.2     1  LIG1       -0.0535
      5 C           0.3543    1.8269    1.2520 C.3     1  LIG1        0.1164
      6 O           0.1049    3.1758    0.8849 O.3     1  LIG1       -0.3817
      7 C           0.4205    1.7324    2.7887 C.3     1  LIG1        0.0770
      8 O          -0.8341    2.1223    3.3521 O.3     1  LIG1       -0.3918
      9 C          -0.6520    0.8284    0.6238 C.3     1  LIG1        0.0664
     10 H          -1.4465    0.5670    1.3358 H       1  LIG1        0.0402
     11 C          -1.3145    1.3674   -0.6512 C.3     1  LIG1        0.2052
     12 H          -0.5846    1.8354   -1.3248 H       1  LIG1        0.1058
     13 O          -2.2716    2.3591   -0.2799 O.3     1  LIG1       -0.3574
     14 O          -2.0270    0.3676   -1.3854 O.2     1  LIG1       -0.4703
     15 C          -1.3546   -0.8097   -1.5594 C.2     1  LIG1        0.0984
     16 C          -0.3003   -1.2140   -0.8391 C.2     1  LIG1        0.0781
     17 C           0.3443   -2.5242   -1.0974 C.2     1  LIG1        0.3384
     18 O           0.1258   -2.9257   -2.3736 O.3     1  LIG1       -0.4646
     19 C           0.8395   -4.1006   -2.7602 C.3     1  LIG1        0.0820
     20 O           1.0364   -3.1056   -0.2723 O.2     1  LIG1       -0.2452
     21 H           2.4003   -0.3585   -0.3392 H       1  LIG1        0.0576
     22 H           2.5379    2.0205    0.6253 H       1  LIG1        0.0598
     23 H          -0.7899    3.3679    1.2351 H       1  LIG1        0.2107
     24 H           1.1817    2.4156    3.1824 H       1  LIG1        0.0589
     25 H           0.6481    0.7155    3.1263 H       1  LIG1        0.0589
     26 H          -0.7198    2.1229    4.3186 H       1  LIG1        0.2095
     27 H          -2.5880    2.7174   -1.1264 H       1  LIG1        0.2135
     28 H          -1.8227   -1.3916   -2.3451 H       1  LIG1        0.1029
     29 H           0.3264   -4.9886   -2.3811 H       1  LIG1        0.0661
     30 H           1.8775   -4.0740   -2.4130 H       1  LIG1        0.0661
     31 H           0.8500   -4.1396   -3.8530 H       1  LIG1        0.0661
@<TRIPOS>BOND
     1     1     2    1
     2     2     3    1
     3     3     4    2
     4     4     5    1
     5     5     6    1
     6     5     7    1
     7     7     8    1
     8     2     9    1
     9     5     9    1
    10     9    10    1
    11     9    11    1
    12    11    14    1
    13    14    15    1
    14    15    16    2
    15     2    16    1
    16    16    17    1
    17    17    18    1
    18    18    19    1
    19    17    20    2
    20    11    13    1
    21    11    12    1
    22     3    21    1
    23     4    22    1
    24     6    23    1
    25     7    24    1
    26     7    25    1
    27     8    26    1
    28    13    27    1
    29    15    28    1
    30    19    29    1
    31    19    30    1
    32    19    31    1
