@<TRIPOS>MOLECULE
NuBBE_2413
 36 38 0 0 0
SMALL
GASTEIGER

@<TRIPOS>ATOM
      1 O           0.9705   -0.4083    2.0637 O.3     1  LIG1       -0.5064
      2 C           1.3301   -1.1870    0.9985 C.ar    1  LIG1        0.1239
      3 C           0.8583   -0.8493   -0.2746 C.ar    1  LIG1        0.0009
      4 C           1.2520   -1.6439   -1.3578 C.ar    1  LIG1       -0.0513
      5 C           2.0876   -2.7414   -1.1657 C.ar    1  LIG1       -0.0195
      6 C           2.5425   -3.0778    0.1079 C.ar    1  LIG1        0.1236
      7 C           2.1611   -2.2940    1.1998 C.ar    1  LIG1        0.0218
      8 O           3.3597   -4.1446    0.3793 O.3     1  LIG1       -0.4950
      9 C           3.7149   -4.9415   -0.7504 C.3     1  LIG1        0.0788
     10 C          -0.0412    0.3367   -0.5599 C.3     1  LIG1        0.0258
     11 H          -0.2635    0.3564   -1.6376 H       1  LIG1        0.0386
     12 C          -1.3969    0.2440    0.1466 C.3     1  LIG1       -0.0142
     13 C          -2.0974    1.5735    0.1702 C.ar    1  LIG1       -0.0048
     14 C          -1.4472    2.7479   -0.2281 C.ar    1  LIG1        0.1272
     15 O          -0.1592    2.7769   -0.6942 O.3     1  LIG1       -0.4910
     16 C           0.6317    1.6710   -0.2403 C.3     1  LIG1        0.0968
     17 C          -2.1093    3.9741   -0.1892 C.ar    1  LIG1        0.0218
     18 C          -3.4142    4.0288    0.2875 C.ar    1  LIG1        0.1203
     19 C          -4.0718    2.8767    0.7011 C.ar    1  LIG1       -0.0197
     20 C          -3.4159    1.6479    0.6395 C.ar    1  LIG1       -0.0516
     21 O          -4.0881    5.2113    0.3747 O.3     1  LIG1       -0.5066
     22 H           1.3177   -0.7982    2.8807 H       1  LIG1        0.2921
     23 H           0.9179   -1.4171   -2.3670 H       1  LIG1        0.0623
     24 H           2.3587   -3.3100   -2.0533 H       1  LIG1        0.0654
     25 H           2.5211   -2.5558    2.1853 H       1  LIG1        0.0691
     26 H           4.3378   -5.7735   -0.4108 H       1  LIG1        0.0660
     27 H           4.3012   -4.3577   -1.4692 H       1  LIG1        0.0660
     28 H           2.8236   -5.3680   -1.2248 H       1  LIG1        0.0660
     29 H          -1.2977   -0.0951    1.1828 H       1  LIG1        0.0321
     30 H          -2.0206   -0.4971   -0.3709 H       1  LIG1        0.0321
     31 H           0.8449    1.8044    0.8262 H       1  LIG1        0.0703
     32 H           1.5930    1.7368   -0.7650 H       1  LIG1        0.0703
     33 H          -1.5866    4.8673   -0.5136 H       1  LIG1        0.0691
     34 H          -5.0895    2.9351    1.0753 H       1  LIG1        0.0654
     35 H          -3.9328    0.7490    0.9676 H       1  LIG1        0.0623
     36 H          -3.4927    5.9225    0.0859 H       1  LIG1        0.2921
@<TRIPOS>BOND
     1     1     2    1
     2     2     3   ar
     3     3     4   ar
     4     4     5   ar
     5     5     6   ar
     6     6     7   ar
     7     2     7   ar
     8     6     8    1
     9     8     9    1
    10     3    10    1
    11    10    11    1
    12    10    12    1
    13    12    13    1
    14    13    14   ar
    15    14    15    1
    16    15    16    1
    17    10    16    1
    18    14    17   ar
    19    17    18   ar
    20    18    19   ar
    21    19    20   ar
    22    13    20   ar
    23    18    21    1
    24     1    22    1
    25     4    23    1
    26     5    24    1
    27     7    25    1
    28     9    26    1
    29     9    27    1
    30     9    28    1
    31    12    29    1
    32    12    30    1
    33    16    31    1
    34    16    32    1
    35    17    33    1
    36    19    34    1
    37    20    35    1
    38    21    36    1
