@<TRIPOS>MOLECULE
NuBBE_2046
 39 42 0 0 0
SMALL
GASTEIGER

@<TRIPOS>ATOM
      1 O          -4.7257    1.2450   -0.1680 O.3     1  LIG1       -0.5033
      2 C          -3.4202    1.6506   -0.1952 C.ar    1  LIG1        0.1590
      3 C          -2.4455    0.7290   -0.5949 C.ar    1  LIG1       -0.0063
      4 C          -1.0881    1.0836   -0.6010 C.ar    1  LIG1        0.0387
      5 C          -0.0449    0.1081   -1.0751 C.3     1  LIG1        0.1386
      6 H          -0.2687   -0.1637   -2.1174 H       1  LIG1        0.0793
      7 C           1.3909    0.6528   -0.9867 C.3     1  LIG1        0.0631
      8 H           1.7020    1.0430   -1.9625 H       1  LIG1        0.0423
      9 C           2.1000   -0.5927   -0.6020 C.ar    1  LIG1        0.0082
     10 C           1.1717   -1.5389   -0.1915 C.ar    1  LIG1        0.1288
     11 O          -0.1289   -1.1154   -0.2932 O.3     1  LIG1       -0.4830
     12 C           1.5405   -2.7726    0.3160 C.ar    1  LIG1        0.0257
     13 C           2.9030   -3.0592    0.3987 C.ar    1  LIG1        0.1647
     14 C           3.8391   -2.0994   -0.0404 C.ar    1  LIG1        0.1589
     15 C           3.4544   -0.8582   -0.5416 C.ar    1  LIG1       -0.0094
     16 O           5.1799   -2.3691    0.0380 O.3     1  LIG1       -0.5033
     17 O           3.4536   -4.2168    0.8887 O.3     1  LIG1       -0.4913
     18 C           2.5439   -5.1766    1.4149 C.3     1  LIG1        0.0790
     19 C           1.4921    1.7304    0.0833 C.3     1  LIG1        0.1002
     20 O           0.5730    2.7974   -0.1637 O.3     1  LIG1       -0.4907
     21 C          -0.7268    2.3669   -0.1883 C.ar    1  LIG1        0.1309
     22 C          -1.6996    3.2910    0.1899 C.ar    1  LIG1        0.0258
     23 C          -3.0557    2.9473    0.1828 C.ar    1  LIG1        0.1648
     24 O          -3.8787    3.9567    0.6043 O.3     1  LIG1       -0.4913
     25 C          -5.2236    3.9202    0.1478 C.3     1  LIG1        0.0790
     26 H          -4.7638    0.2881   -0.3284 H       1  LIG1        0.2923
     27 H          -2.7277   -0.2745   -0.9038 H       1  LIG1        0.0660
     28 H           0.7690   -3.4610    0.6344 H       1  LIG1        0.0692
     29 H           4.1985   -0.1325   -0.8496 H       1  LIG1        0.0659
     30 H           5.2340   -3.2662    0.4221 H       1  LIG1        0.2923
     31 H           3.1311   -6.0039    1.8257 H       1  LIG1        0.0660
     32 H           1.9027   -5.5809    0.6246 H       1  LIG1        0.0660
     33 H           1.9480   -4.7560    2.2323 H       1  LIG1        0.0660
     34 H           2.5006    2.1608    0.0825 H       1  LIG1        0.0704
     35 H           1.3265    1.3394    1.0974 H       1  LIG1        0.0704
     36 H          -1.4006    4.2890    0.5000 H       1  LIG1        0.0692
     37 H          -5.6521    4.9149    0.3086 H       1  LIG1        0.0660
     38 H          -5.8181    3.2154    0.7365 H       1  LIG1        0.0660
     39 H          -5.2858    3.7081   -0.9252 H       1  LIG1        0.0660
@<TRIPOS>BOND
     1     1     2    1
     2     2     3   ar
     3     3     4   ar
     4     4     5    1
     5     5     6    1
     6     5     7    1
     7     7     8    1
     8     7     9    1
     9     9    10   ar
    10    10    11    1
    11     5    11    1
    12    10    12   ar
    13    12    13   ar
    14    13    14   ar
    15    14    15   ar
    16     9    15   ar
    17    14    16    1
    18    13    17    1
    19    17    18    1
    20     7    19    1
    21    19    20    1
    22    20    21    1
    23     4    21   ar
    24    21    22   ar
    25    22    23   ar
    26     2    23   ar
    27    23    24    1
    28    24    25    1
    29     1    26    1
    30     3    27    1
    31    12    28    1
    32    15    29    1
    33    16    30    1
    34    18    31    1
    35    18    32    1
    36    18    33    1
    37    19    34    1
    38    19    35    1
    39    22    36    1
    40    25    37    1
    41    25    38    1
    42    25    39    1
