@<TRIPOS>MOLECULE
NuBBE_1306
 55 58 0 0 0
SMALL
GASTEIGER

@<TRIPOS>ATOM
      1 O          -2.4259   -1.6785    1.3170 O.2     1  LIG1       -0.2869
      2 C          -1.6534   -0.9856    0.6858 C.ar    1  LIG1        0.1968
      3 C          -1.0933   -1.5208   -0.5651 C.ar    1  LIG1        0.0288
      4 C          -0.1653   -0.8195   -1.2193 C.ar    1  LIG1        0.1395
      5 O           0.2888    0.4107   -0.8044 O.2     1  LIG1       -0.4507
      6 C          -0.1489    0.9616    0.3735 C.ar    1  LIG1        0.1879
      7 C          -1.1794    0.3594    1.1022 C.ar    1  LIG1        0.1100
      8 C          -1.7257    1.0180    2.2014 C.ar    1  LIG1        0.1469
      9 O          -2.7497    0.4145    2.8806 O.3     1  LIG1       -0.4807
     10 C          -2.9867    0.8418    4.2341 C.3     1  LIG1        0.1235
     11 C          -4.4320    0.4343    4.5362 C.3     1  LIG1       -0.0215
     12 C          -2.8287    2.3337    4.3846 C.2     1  LIG1       -0.0408
     13 C          -2.0210    3.0306    3.5771 C.2     1  LIG1       -0.0477
     14 C          -2.0341    0.0882    5.1739 C.3     1  LIG1       -0.0215
     15 C          -1.2719    2.2998    2.5470 C.ar    1  LIG1        0.0627
     16 C          -0.1544    2.8609    1.8857 C.ar    1  LIG1        0.1758
     17 O           0.1983    4.1133    2.3367 O.3     1  LIG1       -0.4906
     18 C           1.5764    4.4547    2.3912 C.3     1  LIG1        0.0790
     19 C           0.4355    2.1771    0.7970 C.ar    1  LIG1        0.2057
     20 O           1.5231    2.7730    0.2049 O.3     1  LIG1       -0.4885
     21 C           2.2527    2.0907   -0.8116 C.3     1  LIG1        0.0791
     22 C           0.5021   -1.3113   -2.4429 C.ar    1  LIG1        0.0211
     23 C           0.7083   -2.6817   -2.6518 C.ar    1  LIG1       -0.0056
     24 C           1.3826   -3.1560   -3.7832 C.ar    1  LIG1        0.1622
     25 O           1.5864   -4.4887   -4.0458 O.3     1  LIG1       -0.4914
     26 C           1.1003   -5.4207   -3.0863 C.3     1  LIG1        0.0790
     27 C           1.9103   -2.2373   -4.7074 C.ar    1  LIG1        0.1615
     28 C           1.7104   -0.8688   -4.5102 C.ar    1  LIG1       -0.0156
     29 C           1.0084   -0.4142   -3.3915 C.ar    1  LIG1       -0.0474
     30 O           2.5857   -2.7529   -5.7851 O.3     1  LIG1       -0.4915
     31 C           3.5868   -1.9131   -6.3494 C.3     1  LIG1        0.0790
     32 H          -1.4650   -2.4901   -0.8700 H       1  LIG1        0.0693
     33 H          -5.1312    0.9474    3.8652 H       1  LIG1        0.0271
     34 H          -4.7140    0.6607    5.5698 H       1  LIG1        0.0271
     35 H          -4.5757   -0.6397    4.3662 H       1  LIG1        0.0271
     36 H          -3.3821    2.8412    5.1684 H       1  LIG1        0.0611
     37 H          -1.9143    4.1063    3.6574 H       1  LIG1        0.0624
     38 H          -2.1323   -0.9955    5.0410 H       1  LIG1        0.0271
     39 H          -2.2261    0.3286    6.2251 H       1  LIG1        0.0271
     40 H          -0.9853    0.3268    4.9596 H       1  LIG1        0.0271
     41 H           1.6618    5.3528    3.0141 H       1  LIG1        0.0660
     42 H           1.9547    4.7287    1.4045 H       1  LIG1        0.0660
     43 H           2.1815    3.6713    2.8591 H       1  LIG1        0.0660
     44 H           1.7273    2.1852   -1.7669 H       1  LIG1        0.0660
     45 H           2.4642    1.0456   -0.5590 H       1  LIG1        0.0660
     46 H           3.2265    2.5738   -0.9302 H       1  LIG1        0.0660
     47 H           0.3529   -3.3786   -1.9017 H       1  LIG1        0.0662
     48 H           0.0225   -5.3080   -2.9228 H       1  LIG1        0.0660
     49 H           1.6525   -5.3279   -2.1445 H       1  LIG1        0.0660
     50 H           1.2665   -6.4288   -3.4754 H       1  LIG1        0.0660
     51 H           2.0812   -0.1316   -5.2149 H       1  LIG1        0.0655
     52 H           0.8660    0.6575   -3.2738 H       1  LIG1        0.0626
     53 H           4.2022   -2.5260   -7.0145 H       1  LIG1        0.0660
     54 H           4.2450   -1.4945   -5.5794 H       1  LIG1        0.0660
     55 H           3.1355   -1.1185   -6.9521 H       1  LIG1        0.0660
@<TRIPOS>BOND
     1     1     2    2
     2     2     3   ar
     3     3     4   ar
     4     4     5   ar
     5     5     6   ar
     6     6     7   ar
     7     2     7   ar
     8     7     8   ar
     9     8     9    1
    10     9    10    1
    11    10    11    1
    12    10    12    1
    13    12    13    2
    14    10    14    1
    15     8    15   ar
    16    13    15    1
    17    15    16   ar
    18    16    17    1
    19    17    18    1
    20    16    19   ar
    21     6    19   ar
    22    19    20    1
    23    20    21    1
    24     4    22    1
    25    22    23   ar
    26    23    24   ar
    27    24    25    1
    28    25    26    1
    29    24    27   ar
    30    27    28   ar
    31    28    29   ar
    32    22    29   ar
    33    27    30    1
    34    30    31    1
    35     3    32    1
    36    11    33    1
    37    11    34    1
    38    11    35    1
    39    12    36    1
    40    13    37    1
    41    14    38    1
    42    14    39    1
    43    14    40    1
    44    18    41    1
    45    18    42    1
    46    18    43    1
    47    21    44    1
    48    21    45    1
    49    21    46    1
    50    23    47    1
    51    26    48    1
    52    26    49    1
    53    26    50    1
    54    28    51    1
    55    29    52    1
    56    31    53    1
    57    31    54    1
    58    31    55    1
