@<TRIPOS>MOLECULE
NuBBE_2336
 42 43 0 0 0
SMALL
GASTEIGER

@<TRIPOS>ATOM
      1 O          -3.0171   -1.1862    1.0875 O.3     1  LIG1       -0.3886
      2 C          -1.6691   -1.5319    0.7480 C.3     1  LIG1        0.0667
      3 C          -1.7226   -3.0327    0.4060 C.3     1  LIG1       -0.0358
      4 C          -0.7891   -1.3012    1.9846 C.3     1  LIG1       -0.0237
      5 C           0.6911   -1.5073    1.6892 C.3     1  LIG1       -0.0468
      6 C           1.2042   -0.5074    0.6305 C.3     1  LIG1       -0.0320
      7 H           2.2323   -0.8206    0.3924 H       1  LIG1        0.0309
      8 C           1.3287    0.9544    1.1988 C.3     1  LIG1       -0.0433
      9 C           2.1177    1.9030    0.2849 C.3     1  LIG1       -0.0624
     10 C           2.0176    0.9911    2.5769 C.3     1  LIG1       -0.0624
     11 C           0.3579   -0.7373   -0.6727 C.3     1  LIG1       -0.0142
     12 H           0.5953   -1.7670   -0.9840 H       1  LIG1        0.0349
     13 C          -1.1907   -0.7250   -0.4909 C.3     1  LIG1       -0.0056
     14 H          -1.6146   -1.2409   -1.3684 H       1  LIG1        0.0334
     15 C          -1.7514    0.7027   -0.5998 C.3     1  LIG1       -0.0434
     16 C          -1.3850    1.3461   -1.9434 C.3     1  LIG1       -0.0316
     17 C           0.0032    1.0275   -2.4371 C.2     1  LIG1       -0.0762
     18 C           0.4666    1.8111   -3.6318 C.3     1  LIG1       -0.0438
     19 C           0.7847    0.1063   -1.8457 C.2     1  LIG1       -0.0813
     20 H          -3.0131   -0.3048    1.4975 H       1  LIG1        0.2102
     21 H          -0.7604   -3.4282    0.0702 H       1  LIG1        0.0257
     22 H          -2.4600   -3.2225   -0.3834 H       1  LIG1        0.0257
     23 H          -2.0521   -3.6175    1.2728 H       1  LIG1        0.0257
     24 H          -1.0990   -1.9782    2.7913 H       1  LIG1        0.0293
     25 H          -0.9592   -0.2937    2.3836 H       1  LIG1        0.0293
     26 H           0.8611   -2.5291    1.3282 H       1  LIG1        0.0269
     27 H           1.2688   -1.4507    2.6161 H       1  LIG1        0.0269
     28 H           0.3345    1.3827    1.3444 H       1  LIG1        0.0298
     29 H           3.0346    1.4327   -0.0849 H       1  LIG1        0.0232
     30 H           2.4055    2.8188    0.8139 H       1  LIG1        0.0232
     31 H           1.5218    2.2362   -0.5647 H       1  LIG1        0.0232
     32 H           2.9785    0.4663    2.5536 H       1  LIG1        0.0232
     33 H           1.3896    0.5434    3.3527 H       1  LIG1        0.0232
     34 H           2.2045    2.0218    2.8992 H       1  LIG1        0.0232
     35 H          -1.3962    1.3281    0.2221 H       1  LIG1        0.0272
     36 H          -2.8453    0.6977   -0.5253 H       1  LIG1        0.0272
     37 H          -1.5074    2.4320   -1.8515 H       1  LIG1        0.0310
     38 H          -2.1009    1.0087   -2.7039 H       1  LIG1        0.0310
     39 H          -0.2051    1.6423   -4.4796 H       1  LIG1        0.0274
     40 H           1.4769    1.5271   -3.9446 H       1  LIG1        0.0274
     41 H           0.4772    2.8816   -3.4027 H       1  LIG1        0.0274
     42 H           1.7862   -0.0795   -2.2300 H       1  LIG1        0.0575
@<TRIPOS>BOND
     1     2     4    1
     2     4     5    1
     3     5     6    1
     4     8     9    1
     5     8    10    1
     6     6    11    1
     7    11    13    1
     8     2    13    1
     9    13    15    1
    10    15    16    1
    11    16    17    1
    12    17    19    2
    13    11    19    1
    14     1     2    1
    15     2     3    1
    16    11    12    1
    17    13    14    1
    18    17    18    1
    19     6     8    1
    20     6     7    1
    21     1    20    1
    22     3    21    1
    23     3    22    1
    24     3    23    1
    25     4    24    1
    26     4    25    1
    27     5    26    1
    28     5    27    1
    29     8    28    1
    30     9    29    1
    31     9    30    1
    32     9    31    1
    33    10    32    1
    34    10    33    1
    35    10    34    1
    36    15    35    1
    37    15    36    1
    38    16    37    1
    39    16    38    1
    40    18    39    1
    41    18    40    1
    42    18    41    1
    43    19    42    1
