@<TRIPOS>MOLECULE
NuBBE_1864
 42 44 0 0 0
SMALL
GASTEIGER

@<TRIPOS>ATOM
      1 C          -1.3836    2.2103   -3.3528 C.3     1  LIG1        0.0791
      2 O          -1.4574    1.1732   -2.3773 O.3     1  LIG1       -0.4883
      3 C          -0.6597    1.3437   -1.2548 C.ar    1  LIG1        0.2108
      4 C          -0.1846    0.2716   -0.5783 C.ar    1  LIG1        0.1844
      5 C          -0.4758   -1.1327   -0.9537 C.ar    1  LIG1        0.0661
      6 C          -1.5562   -1.7957   -0.3461 C.ar    1  LIG1       -0.0022
      7 C          -1.7848   -3.1665   -0.5632 C.ar    1  LIG1        0.1594
      8 O          -2.8373   -3.7590    0.0793 O.3     1  LIG1       -0.5033
      9 C          -0.9494   -3.9028   -1.4080 C.ar    1  LIG1        0.1648
     10 O          -1.0024   -5.2362   -1.7165 O.3     1  LIG1       -0.4913
     11 C          -1.9323   -6.0574   -1.0223 C.3     1  LIG1        0.0790
     12 C           0.0971   -3.2323   -2.0536 C.ar    1  LIG1        0.0259
     13 C           0.3327   -1.8697   -1.8264 C.ar    1  LIG1        0.1313
     14 O           1.3809   -1.2592   -2.4605 O.3     1  LIG1       -0.5059
     15 O           0.5919    0.3442    0.5656 O.2     1  LIG1       -0.4505
     16 C           0.8807    1.5714    1.0963 C.ar    1  LIG1        0.1465
     17 C           0.4502    2.7626    0.5355 C.ar    1  LIG1        0.1092
     18 C           0.7780    3.9792    1.1574 C.ar    1  LIG1        0.1348
     19 O           0.3853    5.1970    0.6675 O.3     1  LIG1       -0.5058
     20 C           1.5309    3.9917    2.3300 C.ar    1  LIG1        0.0225
     21 C           1.9599    2.7887    2.8957 C.ar    1  LIG1        0.1271
     22 O           2.6806    2.9034    4.0540 O.3     1  LIG1       -0.4949
     23 C           3.0908    1.6773    4.6521 C.3     1  LIG1        0.0788
     24 C           1.6361    1.5821    2.2695 C.ar    1  LIG1        0.0233
     25 C          -0.3547    2.6962   -0.6874 C.ar    1  LIG1        0.2381
     26 O          -0.7659    3.7574   -1.1697 O.2     1  LIG1       -0.2830
     27 H          -1.8197    1.8255   -4.2792 H       1  LIG1        0.0660
     28 H          -0.3487    2.5023   -3.5640 H       1  LIG1        0.0660
     29 H          -1.9864    3.0725   -3.0529 H       1  LIG1        0.0660
     30 H          -2.2149   -1.2340    0.3109 H       1  LIG1        0.0663
     31 H          -3.2800   -3.1059    0.6449 H       1  LIG1        0.2923
     32 H          -1.7923   -7.0867   -1.3706 H       1  LIG1        0.0660
     33 H          -2.9629   -5.7793   -1.2611 H       1  LIG1        0.0660
     34 H          -1.7431   -6.0535    0.0563 H       1  LIG1        0.0660
     35 H           0.7372   -3.8032   -2.7218 H       1  LIG1        0.0692
     36 H           1.7487   -1.8834   -3.1093 H       1  LIG1        0.2922
     37 H          -0.1505    5.0415   -0.1423 H       1  LIG1        0.2922
     38 H           1.7800    4.9397    2.8033 H       1  LIG1        0.0691
     39 H           3.6278    1.9063    5.5762 H       1  LIG1        0.0660
     40 H           3.7755    1.1336    3.9918 H       1  LIG1        0.0660
     41 H           2.2239    1.0603    4.9142 H       1  LIG1        0.0660
     42 H           1.9542    0.6260    2.6712 H       1  LIG1        0.0691
@<TRIPOS>BOND
     1     1     2    1
     2     2     3    1
     3     3     4   ar
     4     4     5    1
     5     5     6   ar
     6     6     7   ar
     7     7     8    1
     8     7     9   ar
     9     9    10    1
    10    10    11    1
    11     9    12   ar
    12    12    13   ar
    13     5    13   ar
    14    13    14    1
    15     4    15   ar
    16    15    16   ar
    17    16    17   ar
    18    17    18   ar
    19    18    19    1
    20    18    20   ar
    21    20    21   ar
    22    21    22    1
    23    22    23    1
    24    21    24   ar
    25    16    24   ar
    26    17    25   ar
    27     3    25   ar
    28    25    26    2
    29     1    27    1
    30     1    28    1
    31     1    29    1
    32     6    30    1
    33     8    31    1
    34    11    32    1
    35    11    33    1
    36    11    34    1
    37    12    35    1
    38    14    36    1
    39    19    37    1
    40    20    38    1
    41    23    39    1
    42    23    40    1
    43    23    41    1
    44    24    42    1
