@<TRIPOS>MOLECULE
NuBBE_2093
 40 41 0 0 0
SMALL
GASTEIGER

@<TRIPOS>ATOM
      1 C          -4.8902    0.5381   -0.9148 C.3     1  LIG1       -0.0349
      2 C          -5.4146   -0.3082    0.2462 C.3     1  LIG1        0.0759
      3 C          -6.9051   -0.0194    0.4599 C.3     1  LIG1       -0.0349
      4 O          -5.2879   -1.6960   -0.1006 O.3     1  LIG1       -0.3876
      5 C          -4.6388   -0.0538    1.5622 C.3     1  LIG1        0.0402
      6 N          -3.2176   -0.3532    1.4847 N.am    1  LIG1       -0.3091
      7 C          -2.3049    0.5586    1.0219 C.2     1  LIG1        0.2370
      8 O          -2.5786    1.7000    0.6598 O.2     1  LIG1       -0.2708
      9 C          -0.9254    0.0314    0.9912 C.2     1  LIG1        0.0001
     10 C          -0.0107    0.5784    0.1762 C.2     1  LIG1       -0.0568
     11 C           1.3657    0.1432    0.1900 C.2     1  LIG1       -0.0610
     12 C           2.3203    0.6200   -0.6244 C.2     1  LIG1       -0.0545
     13 C           3.7192    0.1607   -0.5616 C.ar    1  LIG1       -0.0213
     14 C           4.0429   -1.1626   -0.1762 C.ar    1  LIG1       -0.0509
     15 C           5.3675   -1.6021   -0.1158 C.ar    1  LIG1       -0.0156
     16 C           6.3499   -0.7076   -0.4673 C.ar    1  LIG1        0.1663
     17 O           7.6844   -0.9627   -0.4768 O.3     1  LIG1       -0.4526
     18 C           8.1976    0.3074   -0.9264 C.3     1  LIG1        0.2332
     19 O           7.1687    1.2900   -1.1706 O.3     1  LIG1       -0.4526
     20 C           6.0523    0.5751   -0.8628 C.ar    1  LIG1        0.1668
     21 C           4.7521    1.0390   -0.9238 C.ar    1  LIG1       -0.0090
     22 H          -5.4734    0.3671   -1.8256 H       1  LIG1        0.0258
     23 H          -3.8614    0.2667   -1.1715 H       1  LIG1        0.0258
     24 H          -4.9308    1.6061   -0.6763 H       1  LIG1        0.0258
     25 H          -7.4736   -0.2037   -0.4595 H       1  LIG1        0.0258
     26 H          -7.0757    1.0180    0.7658 H       1  LIG1        0.0258
     27 H          -7.3296   -0.6835    1.2212 H       1  LIG1        0.0258
     28 H          -5.7674   -1.8304   -0.9372 H       1  LIG1        0.2102
     29 H          -5.0292   -0.7028    2.3549 H       1  LIG1        0.0490
     30 H          -4.7577    0.9875    1.8824 H       1  LIG1        0.0490
     31 H          -2.9463   -1.3211    1.5992 H       1  LIG1        0.1491
     32 H          -0.6833   -0.7682    1.6791 H       1  LIG1        0.0669
     33 H          -0.2912    1.3803   -0.5049 H       1  LIG1        0.0619
     34 H           1.6167   -0.6015    0.9420 H       1  LIG1        0.0618
     35 H           2.0942    1.3886   -1.3602 H       1  LIG1        0.0623
     36 H           3.2584   -1.8712    0.0782 H       1  LIG1        0.0625
     37 H           5.6090   -2.6125    0.1922 H       1  LIG1        0.0655
     38 H           8.7587    0.1480   -1.8544 H       1  LIG1        0.1166
     39 H           8.8818    0.6964   -0.1637 H       1  LIG1        0.1166
     40 H           4.5539    2.0600   -1.2330 H       1  LIG1        0.0661
@<TRIPOS>BOND
     1     1     2    1
     2     2     3    1
     3     2     4    1
     4     2     5    1
     5     5     6    1
     6     6     7   am
     7     7     8    2
     8     7     9    1
     9     9    10    2
    10    10    11    1
    11    11    12    2
    12    12    13    1
    13    13    14   ar
    14    14    15   ar
    15    15    16   ar
    16    16    17    1
    17    17    18    1
    18    18    19    1
    19    19    20    1
    20    16    20   ar
    21    20    21   ar
    22    13    21   ar
    23     1    22    1
    24     1    23    1
    25     1    24    1
    26     3    25    1
    27     3    26    1
    28     3    27    1
    29     4    28    1
    30     5    29    1
    31     5    30    1
    32     6    31    1
    33     9    32    1
    34    10    33    1
    35    11    34    1
    36    12    35    1
    37    14    36    1
    38    15    37    1
    39    18    38    1
    40    18    39    1
    41    21    40    1
