@<TRIPOS>MOLECULE
NuBBE_2297
 53 56 0 0 0
SMALL
GASTEIGER

@<TRIPOS>ATOM
      1 C          -3.4137    0.2448   -2.6049 C.2     1  LIG1       -0.1026
      2 C          -3.0158   -0.1558   -1.3955 C.2     1  LIG1       -0.0902
      3 C          -2.3292   -1.4690   -1.1263 C.3     1  LIG1       -0.0230
      4 C          -0.9221   -1.3915   -0.4796 C.3     1  LIG1        0.0275
      5 C          -0.3910   -2.8045   -0.2707 C.2     1  LIG1       -0.0345
      6 C           0.9071   -3.0271   -0.0368 C.2     1  LIG1        0.1253
      7 O           1.4927   -4.2457    0.2190 O.2     1  LIG1       -0.4970
      8 C           0.6350   -5.3799    0.1877 C.3     1  LIG1        0.0784
      9 C           1.8794   -1.8573   -0.0227 C.3     1  LIG1        0.1434
     10 H           2.6571   -2.0735   -0.7621 H       1  LIG1        0.0705
     11 O           2.5237   -1.8365    1.2588 O.3     1  LIG1       -0.3811
     12 C           1.2625   -0.4407   -0.3459 C.3     1  LIG1        0.1353
     13 O           2.2711    0.3866   -0.9607 O.3     1  LIG1       -0.3703
     14 C           3.4224    0.6384   -0.1618 C.3     1  LIG1        0.0374
     15 C           0.0990   -0.6147   -1.3502 C.3     1  LIG1        0.0972
     16 O           0.4879   -1.2828   -2.5463 O.3     1  LIG1       -0.3879
     17 H          -0.2994    0.3578   -1.6687 H       1  LIG1        0.0632
     18 C          -0.8798   -0.5999    0.8801 C.3     1  LIG1       -0.0223
     19 H          -1.7169    0.1053    0.9044 H       1  LIG1        0.0314
     20 C          -1.0413   -1.4454    2.1522 C.3     1  LIG1       -0.0609
     21 C           0.4780    0.1981    0.8656 C.3     1  LIG1        0.0221
     22 H           1.0440    0.0346    1.7911 H       1  LIG1        0.0382
     23 C           0.1705    1.7109    0.8518 C.ar    1  LIG1       -0.0374
     24 C           0.5281    2.5663   -0.2022 C.ar    1  LIG1       -0.0126
     25 C           0.2537    3.9138   -0.1026 C.ar    1  LIG1        0.1665
     26 O           0.5839    4.8493   -1.0324 O.3     1  LIG1       -0.4526
     27 C           0.0942    6.0432   -0.3931 C.3     1  LIG1        0.2332
     28 O          -0.5543    5.7926    0.8731 O.3     1  LIG1       -0.4526
     29 C          -0.3915    4.4473    0.9813 C.ar    1  LIG1        0.1662
     30 C          -0.7987    3.6549    2.0289 C.ar    1  LIG1       -0.0159
     31 C          -0.5030    2.2843    1.9659 C.ar    1  LIG1       -0.0545
     32 H          -3.9131    1.2008   -2.7352 H       1  LIG1        0.0532
     33 H          -3.2544   -0.3647   -3.4901 H       1  LIG1        0.0532
     34 H          -3.2252    0.4928   -0.5467 H       1  LIG1        0.0567
     35 H          -2.2611   -2.0446   -2.0610 H       1  LIG1        0.0317
     36 H          -2.9916   -2.0479   -0.4668 H       1  LIG1        0.0317
     37 H          -1.1315   -3.6084   -0.2769 H       1  LIG1        0.0612
     38 H           1.2391   -6.2662    0.4158 H       1  LIG1        0.0660
     39 H           0.1960   -5.5169   -0.8053 H       1  LIG1        0.0660
     40 H          -0.1423   -5.2996    0.9541 H       1  LIG1        0.0660
     41 H           2.5228   -2.7644    1.5698 H       1  LIG1        0.2105
     42 H           3.9922    1.4402   -0.6410 H       1  LIG1        0.0524
     43 H           4.0662   -0.2443   -0.1285 H       1  LIG1        0.0524
     44 H           3.1579    0.9607    0.8483 H       1  LIG1        0.0524
     45 H           1.2630   -0.7895   -2.8785 H       1  LIG1        0.2099
     46 H          -0.1757   -2.0875    2.3441 H       1  LIG1        0.0233
     47 H          -1.9329   -2.0782    2.0924 H       1  LIG1        0.0233
     48 H          -1.1504   -0.7998    3.0294 H       1  LIG1        0.0233
     49 H           1.0212    2.2288   -1.1036 H       1  LIG1        0.0658
     50 H          -0.6212    6.5275   -1.0667 H       1  LIG1        0.1166
     51 H           0.9393    6.7224   -0.2293 H       1  LIG1        0.1166
     52 H          -1.3217    4.0800    2.8782 H       1  LIG1        0.0655
     53 H          -0.8101    1.6550    2.8000 H       1  LIG1        0.0622
@<TRIPOS>BOND
     1     1     2    2
     2     2     3    1
     3     4     5    1
     4     5     6    2
     5     7     8    1
     6     6     9    1
     7     9    12    1
     8    13    14    1
     9     4    15    1
    10    12    15    1
    11     4    18    1
    12    18    21    1
    13    12    21    1
    14    23    24   ar
    15    24    25   ar
    16    25    26    1
    17    26    27    1
    18    27    28    1
    19    25    29   ar
    20    28    29    1
    21    29    30   ar
    22    30    31   ar
    23    23    31   ar
    24     3     4    1
    25     6     7    1
    26    12    13    1
    27    15    16    1
    28    15    17    1
    29    21    22    1
    30    21    23    1
    31     9    11    1
    32     9    10    1
    33    18    20    1
    34    18    19    1
    35     1    32    1
    36     1    33    1
    37     2    34    1
    38     3    35    1
    39     3    36    1
    40     5    37    1
    41     8    38    1
    42     8    39    1
    43     8    40    1
    44    11    41    1
    45    14    42    1
    46    14    43    1
    47    14    44    1
    48    16    45    1
    49    20    46    1
    50    20    47    1
    51    20    48    1
    52    24    49    1
    53    27    50    1
    54    27    51    1
    55    30    52    1
    56    31    53    1
