REMARK  Name = NuBBE_1006
REMARK  3 active torsions:
REMARK  status: ('A' for Active; 'I' for Inactive)
REMARK    1  A    between atoms: C_4  and  O_5
REMARK    2  A    between atoms: C_11  and  O_13
REMARK    3  A    between atoms: C_14  and  C_16
REMARK                            x       y       z     vdW  Elec       q    Type
REMARK                         _______ _______ _______ _____ _____    ______ ____
ROOT
ATOM      1  O   LIG A   1      -2.563   0.764   1.387  0.00  0.00    -0.245 OA
ATOM      2  C   LIG A   1      -1.416   0.833   0.967  0.00  0.00    +0.343 C 
ATOM      3  C   LIG A   1      -0.648  -0.401   0.653  0.00  0.00    +0.106 A 
ATOM      4  C   LIG A   1      -1.260  -1.655   0.798  0.00  0.00    +0.131 A 
ATOM      5  C   LIG A   1      -0.536  -2.825   0.587  0.00  0.00    +0.046 A 
ATOM      6  C   LIG A   1       0.811  -2.756   0.241  0.00  0.00    +0.004 A 
ATOM      7  C   LIG A   1       1.428  -1.516   0.081  0.00  0.00    +0.007 A 
ATOM      8  C   LIG A   1       0.699  -0.327   0.258  0.00  0.00    +0.002 A 
ATOM      9  C   LIG A   1       1.357   1.019   0.101  0.00  0.00    +0.186 C 
ATOM     10  C   LIG A   1       0.302   2.110  -0.141  0.00  0.00    +0.206 C 
ATOM     11  C   LIG A   1      -0.289   2.143  -1.552  0.00  0.00    +0.055 C 
ATOM     12  O   LIG A   1      -0.772   2.017   0.813  0.00  0.00    -0.455 OA
ENDROOT
BRANCH   4  13
ATOM     13  O   LIG A   1      -2.573  -1.819   1.153  0.00  0.00    -0.506 OA
ATOM     14  H   LIG A   1      -2.967  -0.935   1.328  0.00  0.00    +0.292 HD
ENDBRANCH   4  13
BRANCH   9  15
ATOM     15  O   LIG A   1       2.315   1.018  -0.955  0.00  0.00    -0.384 OA
ATOM     16  H   LIG A   1       1.958   0.483  -1.686  0.00  0.00    +0.210 HD
ENDBRANCH   9  15
TORSDOF 2
