@<TRIPOS>MOLECULE
NuBBE_1039
 81 85 0 0 0
SMALL
GASTEIGER

@<TRIPOS>ATOM
      1 C           2.3779   -0.6102    1.7477 C.3     1  LIG1       -0.0553
      2 C           1.1178   -0.0848    1.0019 C.3     1  LIG1       -0.0051
      3 C          -0.1690   -0.5853    1.7058 C.2     1  LIG1       -0.0629
      4 C          -1.1639   -1.1992    1.0365 C.2     1  LIG1       -0.0836
      5 C          -1.2381   -1.3499   -0.4512 C.3     1  LIG1       -0.0306
      6 C          -0.2391   -0.4271   -1.1819 C.3     1  LIG1       -0.0257
      7 H          -0.5455    0.5940   -0.9136 H       1  LIG1        0.0315
      8 C           1.1960   -0.5730   -0.5547 C.3     1  LIG1       -0.0194
      9 C           1.6364   -2.0705   -0.6300 C.3     1  LIG1       -0.0585
     10 C           2.2682    0.2401   -1.3553 C.3     1  LIG1       -0.0463
     11 C           1.7448    0.9255   -2.6168 C.3     1  LIG1       -0.0484
     12 C           0.9698   -0.0915   -3.4594 C.3     1  LIG1       -0.0250
     13 H           1.5833   -1.0057   -3.4180 H       1  LIG1        0.0315
     14 C          -0.3784   -0.4619   -2.7626 C.3     1  LIG1       -0.0244
     15 C          -1.5202    0.5484   -3.0899 C.3     1  LIG1       -0.0590
     16 C          -0.8210   -1.8313   -3.3397 C.3     1  LIG1       -0.0418
     17 C          -0.4320   -2.0579   -4.8039 C.3     1  LIG1       -0.0101
     18 C          -0.1623   -0.7838   -5.6014 C.2     1  LIG1        0.0633
     19 N          -0.7394   -0.7283   -6.7673 N.2     1  LIG1       -0.0960
     20 O          -0.3819    0.3894   -7.5137 O.2     1  LIG1       -0.4092
     21 C           0.8496    0.2296   -4.9976 C.3     1  LIG1        0.0098
     22 C           0.4786    1.7050   -5.2606 C.3     1  LIG1       -0.0543
     23 C           2.2131   -0.0477   -5.6715 C.3     1  LIG1       -0.0543
     24 C          -0.3317   -0.1549    3.1718 C.3     1  LIG1       -0.0031
     25 H           0.6060   -0.4351    3.6659 H       1  LIG1        0.0357
     26 C          -0.4534    1.4029    3.2359 C.3     1  LIG1        0.0741
     27 C           0.8179    1.9956    2.5697 C.3     1  LIG1       -0.0359
     28 C           1.0753    1.4757    1.1424 C.3     1  LIG1       -0.0424
     29 C          -1.7289    1.9305    2.5293 C.2     1  LIG1        0.3115
     30 O          -2.6890    1.2516    2.1940 O.2     1  LIG1       -0.2504
     31 O          -1.7718    3.2749    2.3651 O.3     1  LIG1       -0.4802
     32 C          -0.5159    1.8624    4.7128 C.3     1  LIG1       -0.0362
     33 C          -1.6030    1.1466    5.5188 C.3     1  LIG1       -0.0468
     34 C          -1.4864   -0.3909    5.4780 C.3     1  LIG1       -0.0343
     35 C          -1.4164   -0.8753    4.0093 C.3     1  LIG1       -0.0403
     36 C          -2.7344   -1.0029    6.1447 C.3     1  LIG1       -0.0598
     37 C          -0.2538   -0.8618    6.2752 C.3     1  LIG1       -0.0598
     38 H           2.3283   -1.6927    1.9100 H       1  LIG1        0.0238
     39 H           2.5182   -0.1616    2.7345 H       1  LIG1        0.0238
     40 H           3.2919   -0.3905    1.1852 H       1  LIG1        0.0238
     41 H          -2.0701   -1.5103    1.5501 H       1  LIG1        0.0572
     42 H          -1.0925   -2.4058   -0.6978 H       1  LIG1        0.0310
     43 H          -2.2586   -1.0962   -0.7605 H       1  LIG1        0.0310
     44 H           1.0472   -2.7194    0.0242 H       1  LIG1        0.0235
     45 H           2.6852   -2.1993   -0.3392 H       1  LIG1        0.0235
     46 H           1.5552   -2.4634   -1.6469 H       1  LIG1        0.0235
     47 H           3.0841   -0.4285   -1.6648 H       1  LIG1        0.0271
     48 H           2.7777    0.9887   -0.7474 H       1  LIG1        0.0271
     49 H           2.6046    1.3230   -3.1665 H       1  LIG1        0.0269
     50 H           1.1187    1.7818   -2.3424 H       1  LIG1        0.0269
     51 H          -1.2105    1.5803   -2.8937 H       1  LIG1        0.0235
     52 H          -2.4073    0.3576   -2.4751 H       1  LIG1        0.0235
     53 H          -1.8665    0.4827   -4.1240 H       1  LIG1        0.0235
     54 H          -1.9070   -1.9530   -3.2353 H       1  LIG1        0.0274
     55 H          -0.3794   -2.6549   -2.7687 H       1  LIG1        0.0274
     56 H          -1.2084   -2.6522   -5.3000 H       1  LIG1        0.0326
     57 H           0.4879   -2.6548   -4.8489 H       1  LIG1        0.0326
     58 H          -0.9140    0.2804   -8.3237 H       1  LIG1        0.3278
     59 H          -0.5985    1.8832   -5.2208 H       1  LIG1        0.0239
     60 H           0.8104    2.0342   -6.2521 H       1  LIG1        0.0239
     61 H           0.9584    2.3919   -4.5584 H       1  LIG1        0.0239
     62 H           2.5333   -1.0843   -5.5153 H       1  LIG1        0.0239
     63 H           2.9977    0.6102   -5.2846 H       1  LIG1        0.0239
     64 H           2.1628    0.1048   -6.7555 H       1  LIG1        0.0239
     65 H           1.6921    1.7697    3.1930 H       1  LIG1        0.0276
     66 H           0.7867    3.0898    2.5324 H       1  LIG1        0.0276
     67 H           2.0263    1.9188    0.8310 H       1  LIG1        0.0274
     68 H           0.3110    1.9021    0.4838 H       1  LIG1        0.0274
     69 H          -1.0237    3.7731    2.7358 H       1  LIG1        0.2951
     70 H          -0.6968    2.9428    4.7742 H       1  LIG1        0.0276
     71 H           0.4548    1.6980    5.1960 H       1  LIG1        0.0276
     72 H          -2.5855    1.4514    5.1352 H       1  LIG1        0.0271
     73 H          -1.5638    1.4990    6.5575 H       1  LIG1        0.0271
     74 H          -2.4050   -0.7389    3.5575 H       1  LIG1        0.0276
     75 H          -1.2251   -1.9570    3.9903 H       1  LIG1        0.0276
     76 H          -3.6511   -0.7060    5.6227 H       1  LIG1        0.0235
     77 H          -2.8264   -0.6769    7.1869 H       1  LIG1        0.0235
     78 H          -2.6886   -2.0978    6.1390 H       1  LIG1        0.0235
     79 H           0.6838   -0.4612    5.8804 H       1  LIG1        0.0235
     80 H          -0.1731   -1.9546    6.2631 H       1  LIG1        0.0235
     81 H          -0.3234   -0.5476    7.3231 H       1  LIG1        0.0235
@<TRIPOS>BOND
     1     1     2    1
     2     2     3    1
     3     3     4    2
     4     4     5    1
     5     5     6    1
     6     6     7    1
     7     6     8    1
     8     2     8    1
     9     8     9    1
    10     8    10    1
    11    10    11    1
    12    11    12    1
    13    12    13    1
    14    12    14    1
    15     6    14    1
    16    14    15    1
    17    14    16    1
    18    16    17    1
    19    17    18    1
    20    18    19    2
    21    19    20    1
    22    18    21    1
    23    12    21    1
    24    21    22    1
    25    21    23    1
    26     3    24    1
    27    24    25    1
    28    24    26    1
    29    26    27    1
    30    27    28    1
    31     2    28    1
    32    26    29    1
    33    29    30    2
    34    29    31    1
    35    26    32    1
    36    32    33    1
    37    33    34    1
    38    34    35    1
    39    24    35    1
    40    34    36    1
    41    34    37    1
    42     1    38    1
    43     1    39    1
    44     1    40    1
    45     4    41    1
    46     5    42    1
    47     5    43    1
    48     9    44    1
    49     9    45    1
    50     9    46    1
    51    10    47    1
    52    10    48    1
    53    11    49    1
    54    11    50    1
    55    15    51    1
    56    15    52    1
    57    15    53    1
    58    16    54    1
    59    16    55    1
    60    17    56    1
    61    17    57    1
    62    20    58    1
    63    22    59    1
    64    22    60    1
    65    22    61    1
    66    23    62    1
    67    23    63    1
    68    23    64    1
    69    27    65    1
    70    27    66    1
    71    28    67    1
    72    28    68    1
    73    31    69    1
    74    32    70    1
    75    32    71    1
    76    33    72    1
    77    33    73    1
    78    35    74    1
    79    35    75    1
    80    36    76    1
    81    36    77    1
    82    36    78    1
    83    37    79    1
    84    37    80    1
    85    37    81    1
