@<TRIPOS>MOLECULE
NuBBE_2252
 85 88 0 0 0
SMALL
GASTEIGER

@<TRIPOS>ATOM
      1 C           1.0258   -1.5939   -0.3651 C.3     1  LIG1       -0.0588
      2 C           0.6131   -0.6069   -1.5043 C.3     1  LIG1       -0.0231
      3 C           0.8591    0.8837   -1.0816 C.3     1  LIG1       -0.0294
      4 H           0.5773    1.4742   -1.9658 H       1  LIG1        0.0312
      5 C           2.3696    1.3086   -0.8472 C.3     1  LIG1       -0.0246
      6 C           2.9684    0.6554    0.4222 C.3     1  LIG1       -0.0590
      7 C           3.1437    0.9615   -2.1701 C.3     1  LIG1       -0.0235
      8 H           2.6000    1.5062   -2.9610 H       1  LIG1        0.0315
      9 C           2.9930   -0.5285   -2.5445 C.3     1  LIG1       -0.0483
     10 C           1.5216   -0.9273   -2.7265 C.3     1  LIG1       -0.0466
     11 C           4.6058    1.5029   -2.2741 C.3     1  LIG1        0.0267
     12 C           5.6361    0.7714   -1.4040 C.3     1  LIG1       -0.0528
     13 C           5.0839    1.3942   -3.7444 C.3     1  LIG1       -0.0528
     14 C           4.6190    2.9971   -1.8946 C.2     1  LIG1        0.1392
     15 O           5.3291    3.8081   -2.4688 O.2     1  LIG1       -0.2968
     16 C           3.8342    3.4287   -0.6741 C.3     1  LIG1        0.0069
     17 C           2.4276    2.8540   -0.6658 C.3     1  LIG1       -0.0404
     18 C          -0.1169    1.3771    0.0063 C.3     1  LIG1       -0.0489
     19 C          -1.2099    0.4012    0.4144 C.3     1  LIG1       -0.0491
     20 C          -1.9042   -0.3605   -0.7135 C.3     1  LIG1       -0.0297
     21 H          -2.6900    0.3016   -1.1037 H       1  LIG1        0.0310
     22 C          -0.9409   -0.7653   -1.8869 C.3     1  LIG1       -0.0232
     23 C          -1.3716    0.1134   -3.1021 C.3     1  LIG1       -0.0588
     24 C          -1.3155   -2.2245   -2.2508 C.3     1  LIG1       -0.0465
     25 C          -2.6034   -2.5321   -1.5090 C.3     1  LIG1       -0.0468
     26 C          -2.5803   -1.6738   -0.2285 C.3     1  LIG1       -0.0090
     27 H          -1.9180   -2.1691    0.4923 H       1  LIG1        0.0331
     28 C          -4.0022   -1.5478    0.4140 C.3     1  LIG1        0.0667
     29 C          -4.1231   -0.5916    1.6314 C.3     1  LIG1       -0.0203
     30 C          -3.2725   -0.9476    2.8696 C.3     1  LIG1       -0.0292
     31 C          -3.3081    0.0498    4.0243 C.2     1  LIG1       -0.0740
     32 C          -4.4130    0.7614    4.3180 C.2     1  LIG1       -0.0992
     33 C          -2.0369    0.2226    4.8649 C.3     1  LIG1       -0.0258
     34 C          -1.5105   -1.0877    5.4626 C.3     1  LIG1       -0.0590
     35 C          -0.9260    0.9113    4.0680 C.3     1  LIG1       -0.0590
     36 C          -4.5330   -2.9425    0.7976 C.3     1  LIG1       -0.0358
     37 O          -4.8872   -1.0236   -0.5940 O.3     1  LIG1       -0.3886
     38 H           2.0293   -2.0030   -0.5122 H       1  LIG1        0.0235
     39 H           0.3760   -2.4646   -0.2779 H       1  LIG1        0.0235
     40 H           1.0307   -1.1310    0.6212 H       1  LIG1        0.0235
     41 H           2.2403    0.5905    1.2358 H       1  LIG1        0.0235
     42 H           3.7947    1.2287    0.8466 H       1  LIG1        0.0235
     43 H           3.3552   -0.3491    0.2420 H       1  LIG1        0.0235
     44 H           3.4833   -1.1718   -1.8097 H       1  LIG1        0.0269
     45 H           3.4911   -0.7394   -3.4959 H       1  LIG1        0.0269
     46 H           1.4710   -1.9966   -2.9676 H       1  LIG1        0.0271
     47 H           1.1710   -0.4013   -3.6196 H       1  LIG1        0.0271
     48 H           6.6508    1.1204   -1.6306 H       1  LIG1        0.0239
     49 H           5.6199   -0.3094   -1.5759 H       1  LIG1        0.0239
     50 H           5.4990    0.9494   -0.3369 H       1  LIG1        0.0239
     51 H           5.2104    0.3528   -4.0576 H       1  LIG1        0.0239
     52 H           6.0525    1.8830   -3.8928 H       1  LIG1        0.0239
     53 H           4.3723    1.8726   -4.4272 H       1  LIG1        0.0239
     54 H           3.7660    4.5232   -0.6834 H       1  LIG1        0.0342
     55 H           4.4033    3.1550    0.2167 H       1  LIG1        0.0342
     56 H           1.8543    3.3345   -1.4700 H       1  LIG1        0.0275
     57 H           1.9477    3.1517    0.2738 H       1  LIG1        0.0275
     58 H          -0.5901    2.3016   -0.3509 H       1  LIG1        0.0268
     59 H           0.4117    1.6636    0.9209 H       1  LIG1        0.0268
     60 H          -1.9426    0.9710    0.9911 H       1  LIG1        0.0268
     61 H          -0.7824   -0.3147    1.1176 H       1  LIG1        0.0268
     62 H          -1.2757    1.1833   -2.8963 H       1  LIG1        0.0235
     63 H          -2.4287   -0.0581   -3.3460 H       1  LIG1        0.0235
     64 H          -0.8136   -0.1167   -4.0126 H       1  LIG1        0.0235
     65 H          -0.5534   -2.9529   -1.9654 H       1  LIG1        0.0271
     66 H          -1.4529   -2.3699   -3.3292 H       1  LIG1        0.0271
     67 H          -2.6537   -3.6009   -1.2761 H       1  LIG1        0.0269
     68 H          -3.4589   -2.2929   -2.1505 H       1  LIG1        0.0269
     69 H          -3.9223    0.4368    1.3084 H       1  LIG1        0.0296
     70 H          -5.1823   -0.5656    1.9221 H       1  LIG1        0.0296
     71 H          -2.2370   -1.0770    2.5530 H       1  LIG1        0.0311
     72 H          -3.5886   -1.9165    3.2709 H       1  LIG1        0.0311
     73 H          -5.3375    0.6522    3.7603 H       1  LIG1        0.0534
     74 H          -4.4412    1.4767    5.1352 H       1  LIG1        0.0534
     75 H          -2.2635    0.8795    5.7169 H       1  LIG1        0.0340
     76 H          -1.2158   -1.8043    4.6889 H       1  LIG1        0.0235
     77 H          -2.2597   -1.5626    6.1043 H       1  LIG1        0.0235
     78 H          -0.6241   -0.8951    6.0800 H       1  LIG1        0.0235
     79 H          -0.5968    0.3004    3.2252 H       1  LIG1        0.0235
     80 H          -0.0449    1.0835    4.6956 H       1  LIG1        0.0235
     81 H          -1.2595    1.8801    3.6821 H       1  LIG1        0.0235
     82 H          -5.5901   -2.8968    1.0832 H       1  LIG1        0.0257
     83 H          -3.9647   -3.3819    1.6218 H       1  LIG1        0.0257
     84 H          -4.4912   -3.6394   -0.0449 H       1  LIG1        0.0257
     85 H          -5.8035   -1.1407   -0.2892 H       1  LIG1        0.2102
@<TRIPOS>BOND
     1     1     2    1
     2     2     3    1
     3     3     4    1
     4     3     5    1
     5     5     6    1
     6     5     7    1
     7     7     8    1
     8     7     9    1
     9     9    10    1
    10     2    10    1
    11     7    11    1
    12    11    12    1
    13    11    13    1
    14    11    14    1
    15    14    15    2
    16    14    16    1
    17    16    17    1
    18     5    17    1
    19     3    18    1
    20    18    19    1
    21    19    20    1
    22    20    21    1
    23    20    22    1
    24     2    22    1
    25    22    23    1
    26    22    24    1
    27    24    25    1
    28    25    26    1
    29    26    27    1
    30    20    26    1
    31    29    30    1
    32    30    31    1
    33    31    32    2
    34    31    33    1
    35    33    34    1
    36    33    35    1
    37    28    36    1
    38    28    37    1
    39    28    29    1
    40    28    26    1
    41     1    38    1
    42     1    39    1
    43     1    40    1
    44     6    41    1
    45     6    42    1
    46     6    43    1
    47     9    44    1
    48     9    45    1
    49    10    46    1
    50    10    47    1
    51    12    48    1
    52    12    49    1
    53    12    50    1
    54    13    51    1
    55    13    52    1
    56    13    53    1
    57    16    54    1
    58    16    55    1
    59    17    56    1
    60    17    57    1
    61    18    58    1
    62    18    59    1
    63    19    60    1
    64    19    61    1
    65    23    62    1
    66    23    63    1
    67    23    64    1
    68    24    65    1
    69    24    66    1
    70    25    67    1
    71    25    68    1
    72    29    69    1
    73    29    70    1
    74    30    71    1
    75    30    72    1
    76    32    73    1
    77    32    74    1
    78    33    75    1
    79    34    76    1
    80    34    77    1
    81    34    78    1
    82    35    79    1
    83    35    80    1
    84    35    81    1
    85    36    82    1
    86    36    83    1
    87    36    84    1
    88    37    85    1
