@<TRIPOS>MOLECULE
NuBBE_1519
 89 93 0 0 0
SMALL
GASTEIGER

@<TRIPOS>ATOM
      1 C          -0.4257    0.5959   -1.6029 C.3     1  LIG1       -0.0553
      2 C           1.0558    0.6679   -1.1147 C.3     1  LIG1       -0.0051
      3 C           1.3342    0.1829    0.3539 C.3     1  LIG1       -0.0197
      4 C           2.8380    0.4141    0.7763 C.3     1  LIG1       -0.0585
      5 C           0.4977    1.1705    1.2174 C.3     1  LIG1       -0.0273
      6 H           0.9891    1.2875    2.1937 H       1  LIG1        0.0311
      7 C           0.6874    2.5164    0.4226 C.3     1  LIG1       -0.0485
      8 C           1.3450    2.1731   -0.9469 C.3     1  LIG1       -0.0431
      9 C          -1.0014    0.8688    1.5242 C.3     1  LIG1        0.0159
     10 H          -1.6075    0.8770    0.6169 H       1  LIG1        0.0353
     11 C          -1.3813   -0.4001    2.2902 C.3     1  LIG1        0.1623
     12 H          -1.4630   -1.2659    1.6273 H       1  LIG1        0.0912
     13 O          -0.4786   -0.6749    3.3527 O.3     1  LIG1       -0.3542
     14 C          -0.8163   -1.8935    4.0095 C.3     1  LIG1        0.0394
     15 O          -2.6871   -0.1462    2.8195 O.3     1  LIG1       -0.3452
     16 C          -2.8399    1.2730    3.0389 C.3     1  LIG1        0.0906
     17 H          -3.7394    1.5456    2.4765 H       1  LIG1        0.0624
     18 C          -1.6024    1.9288    2.4375 C.3     1  LIG1       -0.0163
     19 C          -3.0552    1.5633    4.5502 C.3     1  LIG1        0.1097
     20 H          -2.1855    1.1610    5.0875 H       1  LIG1        0.0648
     21 C          -3.2438    3.0828    4.9130 C.3     1  LIG1        0.0917
     22 O          -2.0832    3.7857    4.4428 O.3     1  LIG1       -0.3745
     23 C          -2.0174    5.1877    4.6347 C.3     1  LIG1        0.0372
     24 C          -4.5312    3.6236    4.2679 C.3     1  LIG1       -0.0336
     25 C          -3.3407    3.2291    6.4438 C.3     1  LIG1       -0.0336
     26 O          -4.2011    0.8101    4.9960 O.3     1  LIG1       -0.3864
     27 C           1.0764   -1.3202    0.5030 C.3     1  LIG1       -0.0460
     28 C           1.9414   -2.1276   -0.4729 C.3     1  LIG1       -0.0455
     29 C           1.6463   -1.7094   -1.9287 C.3     1  LIG1       -0.0136
     30 H           0.5743   -1.8922   -2.0389 H       1  LIG1        0.0351
     31 C           1.7954   -0.1998   -2.1404 C.2     1  LIG1       -0.0634
     32 C           2.3145    0.2998   -3.2743 C.2     1  LIG1       -0.0836
     33 C           2.6967   -0.5385   -4.4581 C.3     1  LIG1       -0.0302
     34 C           2.2066   -2.0124   -4.4349 C.3     1  LIG1       -0.0198
     35 H           2.9396   -2.5421   -5.0647 H       1  LIG1        0.0318
     36 C           2.3469   -2.6241   -2.9942 C.3     1  LIG1       -0.0212
     37 C           3.8632   -2.7759   -2.6906 C.3     1  LIG1       -0.0587
     38 C           1.7034   -4.0437   -2.9168 C.3     1  LIG1       -0.0401
     39 C           1.4754   -4.6793   -4.2759 C.3     1  LIG1        0.0069
     40 C           0.5216   -3.8155   -5.0727 C.2     1  LIG1        0.1392
     41 O          -0.4341   -4.3133   -5.6422 O.2     1  LIG1       -0.2968
     42 C           0.8289   -2.3056   -5.1457 C.3     1  LIG1        0.0270
     43 C           0.9175   -1.9600   -6.6489 C.3     1  LIG1       -0.0528
     44 C          -0.3861   -1.5614   -4.5769 C.3     1  LIG1       -0.0528
     45 H          -1.0508    1.4045   -1.2168 H       1  LIG1        0.0238
     46 H          -0.9094   -0.3542   -1.3642 H       1  LIG1        0.0238
     47 H          -0.4830    0.7370   -2.6887 H       1  LIG1        0.0238
     48 H           3.0717    1.4640    0.9855 H       1  LIG1        0.0235
     49 H           3.5472    0.0851    0.0112 H       1  LIG1        0.0235
     50 H           3.0626   -0.1274    1.7036 H       1  LIG1        0.0235
     51 H           1.3282    3.2088    0.9809 H       1  LIG1        0.0268
     52 H          -0.2645    3.0306    0.2558 H       1  LIG1        0.0268
     53 H           2.4201    2.3869   -0.9230 H       1  LIG1        0.0274
     54 H           0.9259    2.7913   -1.7490 H       1  LIG1        0.0274
     55 H          -0.3728   -1.8751    5.0077 H       1  LIG1        0.0525
     56 H          -0.4061   -2.7436    3.4559 H       1  LIG1        0.0525
     57 H          -1.8983   -2.0215    4.1225 H       1  LIG1        0.0525
     58 H          -0.8723    2.1831    3.2122 H       1  LIG1        0.0295
     59 H          -1.8677    2.8467    1.9034 H       1  LIG1        0.0295
     60 H          -1.0770    5.5362    4.1972 H       1  LIG1        0.0524
     61 H          -2.0012    5.4443    5.6959 H       1  LIG1        0.0524
     62 H          -2.8331    5.7015    4.1218 H       1  LIG1        0.0524
     63 H          -4.4429    3.6611    3.1773 H       1  LIG1        0.0258
     64 H          -4.7453    4.6453    4.5979 H       1  LIG1        0.0258
     65 H          -5.4032    3.0142    4.5279 H       1  LIG1        0.0258
     66 H          -2.4025    2.9201    6.9186 H       1  LIG1        0.0258
     67 H          -4.1604    2.6437    6.8698 H       1  LIG1        0.0258
     68 H          -3.5123    4.2702    6.7367 H       1  LIG1        0.0258
     69 H          -4.1334    0.7198    5.9607 H       1  LIG1        0.2100
     70 H           0.0355   -1.5650    0.2876 H       1  LIG1        0.0271
     71 H           1.2858   -1.6517    1.5260 H       1  LIG1        0.0271
     72 H           1.7168   -3.1900   -0.3269 H       1  LIG1        0.0271
     73 H           3.0022   -2.0066   -0.2315 H       1  LIG1        0.0271
     74 H           2.3630    1.3760   -3.4250 H       1  LIG1        0.0572
     75 H           3.7917   -0.5257   -4.5311 H       1  LIG1        0.0311
     76 H           2.3405   -0.0344   -5.3613 H       1  LIG1        0.0311
     77 H           4.3705   -1.8089   -2.6203 H       1  LIG1        0.0235
     78 H           4.3608   -3.3579   -3.4756 H       1  LIG1        0.0235
     79 H           4.0425   -3.3072   -1.7500 H       1  LIG1        0.0235
     80 H           0.7283   -3.9936   -2.4142 H       1  LIG1        0.0275
     81 H           2.3131   -4.7159   -2.3002 H       1  LIG1        0.0275
     82 H           1.0185   -5.6667   -4.1410 H       1  LIG1        0.0342
     83 H           2.4064   -4.8126   -4.8343 H       1  LIG1        0.0342
     84 H           1.7671   -2.4624   -7.1225 H       1  LIG1        0.0239
     85 H           1.0108   -0.8837   -6.8175 H       1  LIG1        0.0239
     86 H           0.0165   -2.2847   -7.1853 H       1  LIG1        0.0239
     87 H          -0.6835   -1.9316   -3.5939 H       1  LIG1        0.0239
     88 H          -1.2694   -1.7078   -5.2118 H       1  LIG1        0.0239
     89 H          -0.2110   -0.4853   -4.5272 H       1  LIG1        0.0239
@<TRIPOS>BOND
     1     2     3    1
     2     3     5    1
     3     5     7    1
     4     7     8    1
     5     2     8    1
     6     9    10    1
     7     9    11    1
     8    11    12    1
     9    11    13    1
    10    13    14    1
    11    11    15    1
    12    15    16    1
    13    16    18    1
    14     9    18    1
    15    19    20    1
    16    19    21    1
    17    21    22    1
    18    22    23    1
    19    21    24    1
    20    21    25    1
    21    19    26    1
    22     3    27    1
    23    27    28    1
    24    28    29    1
    25    29    31    1
    26     2    31    1
    27    31    32    2
    28    32    33    1
    29    33    34    1
    30    34    36    1
    31    29    36    1
    32    36    38    1
    33    38    39    1
    34    39    40    1
    35    40    42    1
    36    34    42    1
    37     1     2    1
    38     3     4    1
    39     5     6    1
    40     5     9    1
    41    29    30    1
    42    34    35    1
    43    36    37    1
    44    40    41    2
    45    42    43    1
    46    42    44    1
    47    16    19    1
    48    16    17    1
    49     1    45    1
    50     1    46    1
    51     1    47    1
    52     4    48    1
    53     4    49    1
    54     4    50    1
    55     7    51    1
    56     7    52    1
    57     8    53    1
    58     8    54    1
    59    14    55    1
    60    14    56    1
    61    14    57    1
    62    18    58    1
    63    18    59    1
    64    23    60    1
    65    23    61    1
    66    23    62    1
    67    24    63    1
    68    24    64    1
    69    24    65    1
    70    25    66    1
    71    25    67    1
    72    25    68    1
    73    26    69    1
    74    27    70    1
    75    27    71    1
    76    28    72    1
    77    28    73    1
    78    32    74    1
    79    33    75    1
    80    33    76    1
    81    37    77    1
    82    37    78    1
    83    37    79    1
    84    38    80    1
    85    38    81    1
    86    39    82    1
    87    39    83    1
    88    43    84    1
    89    43    85    1
    90    43    86    1
    91    44    87    1
    92    44    88    1
    93    44    89    1
