REMARK  Name = NuBBE_2124
REMARK  4 active torsions:
REMARK  status: ('A' for Active; 'I' for Inactive)
REMARK    1  A    between atoms: C_2  and  C_3
REMARK    2  A    between atoms: C_3  and  C_4
REMARK    3  A    between atoms: C_4  and  C_5
REMARK    4  A    between atoms: C_5  and  C_6
REMARK                            x       y       z     vdW  Elec       q    Type
REMARK                         _______ _______ _______ _____ _____    ______ ____
ROOT
ATOM      1  C   LIG A   1      -1.110  -0.122  -0.192  0.00  0.00    +0.026 C 
ENDROOT
BRANCH   1   3
ATOM      2  C   LIG A   1      -2.368   1.285  -1.850  0.00  0.00    +0.004 C 
ATOM      3  C   LIG A   1      -1.580   0.238  -1.573  0.00  0.00    -0.035 C 
ENDBRANCH   1   3
BRANCH   1   4
ATOM      4  C   LIG A   1       0.418  -0.133  -0.101  0.00  0.00    +0.004 C 
BRANCH   4   5
ATOM      5  C   LIG A   1       0.890  -0.490   1.310  0.00  0.00    -0.003 C 
ATOM      6  C   LIG A   1       2.408  -0.503   1.404  0.00  0.00    +0.004 C 
ENDBRANCH   4   5
ENDBRANCH   1   4
TORSDOF 3
