@<TRIPOS>MOLECULE
NuBBE_409
 37 39 0 0 0
SMALL
GASTEIGER

@<TRIPOS>ATOM
      1 C           1.7010   -0.8431    1.9957 C.3     1  LIG1        0.0788
      2 O           1.5317   -1.2801    0.6503 O.3     1  LIG1       -0.4944
      3 C           1.8142   -0.3357   -0.3089 C.ar    1  LIG1        0.1309
      4 C           1.0868   -0.4177   -1.5263 C.ar    1  LIG1        0.0205
      5 C           0.0963   -1.4797   -1.7563 C.2     1  LIG1       -0.0461
      6 C          -1.2185   -1.4343   -1.4909 C.2     1  LIG1        0.0010
      7 C          -1.9308   -0.2755   -0.9014 C.2     1  LIG1        0.2395
      8 N          -2.4065   -0.4815    0.3744 N.am    1  LIG1       -0.2980
      9 C          -2.1759   -1.6496    1.2099 C.3     1  LIG1        0.0150
     10 C          -3.0801   -1.4397    2.4142 C.3     1  LIG1       -0.0357
     11 C          -3.1279    0.0774    2.5426 C.3     1  LIG1       -0.0357
     12 C          -3.1414    0.5450    1.0921 C.3     1  LIG1        0.0150
     13 O          -2.1198    0.7426   -1.5536 O.2     1  LIG1       -0.2706
     14 C           1.3453    0.4983   -2.5599 C.ar    1  LIG1       -0.0055
     15 C           2.3275    1.4463   -2.3590 C.ar    1  LIG1        0.1670
     16 O           2.7167    2.3963   -3.2519 O.3     1  LIG1       -0.4526
     17 C           3.7756    3.0457   -2.5183 C.3     1  LIG1        0.2332
     18 O           3.9748    2.4998   -1.1977 O.3     1  LIG1       -0.4525
     19 C           3.0430    1.5079   -1.1885 C.ar    1  LIG1        0.1697
     20 C           2.8139    0.6346   -0.1470 C.ar    1  LIG1        0.0261
     21 H           1.2807   -1.6124    2.6504 H       1  LIG1        0.0660
     22 H           1.1565    0.0894    2.1816 H       1  LIG1        0.0660
     23 H           2.7597   -0.7405    2.2520 H       1  LIG1        0.0660
     24 H           0.5136   -2.3997   -2.1581 H       1  LIG1        0.0626
     25 H          -1.8407   -2.2986   -1.6802 H       1  LIG1        0.0670
     26 H          -1.1218   -1.6504    1.5007 H       1  LIG1        0.0465
     27 H          -2.4032   -2.5752    0.6751 H       1  LIG1        0.0465
     28 H          -2.7030   -1.9364    3.3124 H       1  LIG1        0.0281
     29 H          -4.0840   -1.8265    2.2019 H       1  LIG1        0.0281
     30 H          -2.2197    0.4338    3.0436 H       1  LIG1        0.0281
     31 H          -3.9933    0.4293    3.1111 H       1  LIG1        0.0281
     32 H          -2.6823    1.5293    0.9594 H       1  LIG1        0.0465
     33 H          -4.1619    0.5717    0.6937 H       1  LIG1        0.0465
     34 H           0.7993    0.4678   -3.4969 H       1  LIG1        0.0662
     35 H           3.5429    4.1131   -2.4269 H       1  LIG1        0.1166
     36 H           4.7089    2.9388   -3.0837 H       1  LIG1        0.1166
     37 H           3.4224    0.7093    0.7445 H       1  LIG1        0.0692
@<TRIPOS>BOND
     1     1     2    1
     2     2     3    1
     3     3     4   ar
     4     4     5    1
     5     5     6    2
     6     6     7    1
     7     7     8   am
     8     8     9    1
     9     9    10    1
    10    10    11    1
    11    11    12    1
    12     8    12    1
    13     7    13    2
    14     4    14   ar
    15    14    15   ar
    16    15    16    1
    17    16    17    1
    18    17    18    1
    19    15    19   ar
    20    18    19    1
    21    19    20   ar
    22     3    20   ar
    23     1    21    1
    24     1    22    1
    25     1    23    1
    26     5    24    1
    27     6    25    1
    28     9    26    1
    29     9    27    1
    30    10    28    1
    31    10    29    1
    32    11    30    1
    33    11    31    1
    34    12    32    1
    35    12    33    1
    36    14    34    1
    37    17    35    1
    38    17    36    1
    39    20    37    1
