@<TRIPOS>MOLECULE
NuBBE_532
 52 55 0 0 0
SMALL
GASTEIGER

@<TRIPOS>ATOM
      1 C          -2.2018    2.1270   -4.3457 C.3     1  LIG1        0.0790
      2 O          -1.2066    1.1642   -4.0029 O.3     1  LIG1       -0.4914
      3 C          -0.8511    1.1031   -2.6799 C.ar    1  LIG1        0.1624
      4 C          -0.4501   -0.1327   -2.1289 C.ar    1  LIG1        0.1697
      5 O          -0.4064   -1.3154   -2.8299 O.3     1  LIG1       -0.4908
      6 C          -1.4089   -1.5465   -3.8170 C.3     1  LIG1        0.0790
      7 C          -0.0117   -0.2091   -0.7780 C.ar    1  LIG1        0.0401
      8 C           0.4254   -1.4680   -0.0801 C.ar    1  LIG1        0.0347
      9 C           1.2447   -2.4850   -0.6144 C.ar    1  LIG1        0.1667
     10 O           1.8125   -2.3624   -1.8606 O.3     1  LIG1       -0.5029
     11 C           1.6144   -3.6179    0.1372 C.ar    1  LIG1        0.1619
     12 O           2.4326   -4.5381   -0.4706 O.3     1  LIG1       -0.4914
     13 C           3.2395   -5.3293    0.3949 C.3     1  LIG1        0.0790
     14 C           1.1208   -3.7803    1.4340 C.ar    1  LIG1       -0.0160
     15 C           0.3703   -2.7667    2.0167 C.ar    1  LIG1       -0.0541
     16 C           0.0880   -1.6043    1.2963 C.ar    1  LIG1       -0.0301
     17 C          -0.4967   -0.4112    2.0172 C.3     1  LIG1        0.0207
     18 C          -0.0731    0.9804    0.0082 C.ar    1  LIG1        0.0154
     19 C           0.2343    0.8489    1.4940 C.3     1  LIG1        0.0113
     20 N          -0.0731    2.1129    2.3489 N.4     1  LIG1        0.2449
     21 C          -1.5483    2.2411    2.7098 C.3     1  LIG1       -0.0409
     22 C           0.7462    2.0653    3.6415 C.3     1  LIG1       -0.0409
     23 C           0.4018    3.3408    1.5490 C.3     1  LIG1       -0.0259
     24 C          -0.3628    3.4892    0.2361 C.3     1  LIG1        0.0134
     25 C          -0.3948    2.2159   -0.5634 C.ar    1  LIG1       -0.0296
     26 C          -0.7876    2.2654   -1.9029 C.ar    1  LIG1       -0.0124
     27 H          -2.5689    1.8900   -5.3484 H       1  LIG1        0.0660
     28 H          -1.7777    3.1357   -4.3820 H       1  LIG1        0.0660
     29 H          -3.0540    2.0859   -3.6571 H       1  LIG1        0.0660
     30 H          -1.4141   -2.6197   -4.0334 H       1  LIG1        0.0660
     31 H          -1.1636   -1.0426   -4.7556 H       1  LIG1        0.0660
     32 H          -2.4066   -1.2738   -3.4572 H       1  LIG1        0.0660
     33 H           1.1672   -1.9200   -2.4406 H       1  LIG1        0.2923
     34 H           3.9612   -5.8764   -0.2186 H       1  LIG1        0.0660
     35 H           2.6375   -6.0698    0.9312 H       1  LIG1        0.0660
     36 H           3.8046   -4.7040    1.0976 H       1  LIG1        0.0660
     37 H           1.3298   -4.6690    2.0157 H       1  LIG1        0.0655
     38 H           0.0475   -2.8833    3.0503 H       1  LIG1        0.0622
     39 H          -0.3479   -0.5255    3.0958 H       1  LIG1        0.0372
     40 H          -1.5760   -0.3787    1.8243 H       1  LIG1        0.0372
     41 H           1.3239    0.7172    1.5743 H       1  LIG1        0.0908
     42 H          -1.7123    3.2367    3.1323 H       1  LIG1        0.0778
     43 H          -1.7959    1.4803    3.4556 H       1  LIG1        0.0778
     44 H          -2.1563    2.0986    1.8134 H       1  LIG1        0.0778
     45 H           0.5601    2.9880    4.1991 H       1  LIG1        0.0778
     46 H           1.8065    1.9866    3.3826 H       1  LIG1        0.0778
     47 H           0.4319    1.2009    4.2309 H       1  LIG1        0.0778
     48 H           0.2671    4.2263    2.1808 H       1  LIG1        0.0818
     49 H           1.4749    3.2044    1.3622 H       1  LIG1        0.0818
     50 H           0.1196    4.2792   -0.3527 H       1  LIG1        0.0365
     51 H          -1.3919    3.8143    0.4288 H       1  LIG1        0.0365
     52 H          -1.0240    3.2313   -2.3390 H       1  LIG1        0.0658
@<TRIPOS>BOND
     1     1     2    1
     2     2     3    1
     3     3     4   ar
     4     4     5    1
     5     5     6    1
     6     4     7   ar
     7     7     8    1
     8     8     9   ar
     9     9    10    1
    10     9    11   ar
    11    11    12    1
    12    12    13    1
    13    11    14   ar
    14    14    15   ar
    15     8    16   ar
    16    15    16   ar
    17    16    17    1
    18     7    18   ar
    19    18    19    1
    20    17    19    1
    21    19    20    1
    22    20    21    1
    23    20    22    1
    24    20    23    1
    25    23    24    1
    26    18    25   ar
    27    24    25    1
    28    25    26   ar
    29     3    26   ar
    30     1    27    1
    31     1    28    1
    32     1    29    1
    33     6    30    1
    34     6    31    1
    35     6    32    1
    36    10    33    1
    37    13    34    1
    38    13    35    1
    39    13    36    1
    40    14    37    1
    41    15    38    1
    42    17    39    1
    43    17    40    1
    44    19    41    1
    45    21    42    1
    46    21    43    1
    47    21    44    1
    48    22    45    1
    49    22    46    1
    50    22    47    1
    51    23    48    1
    52    23    49    1
    53    24    50    1
    54    24    51    1
    55    26    52    1
