@<TRIPOS>MOLECULE
NuBBE_322
 27 27 0 0 0
SMALL
GASTEIGER

@<TRIPOS>ATOM
      1 O          -1.6058    0.1907    2.0334 O.3     1  LIG1       -0.3865
      2 C          -0.1754    0.1439    1.9212 C.3     1  LIG1        0.1118
      3 H           0.2329    0.3246    2.9227 H       1  LIG1        0.0647
      4 C           0.3271    1.1951    0.9290 C.3     1  LIG1        0.1121
      5 H          -0.0439    2.1858    1.2187 H       1  LIG1        0.0647
      6 C          -0.1059    0.9153   -0.5269 C.3     1  LIG1        0.1149
      7 H          -1.1879    1.0723   -0.6242 H       1  LIG1        0.0649
      8 C           0.2624   -0.5218   -0.9512 C.3     1  LIG1        0.1121
      9 H           1.3459   -0.6128   -1.0945 H       1  LIG1        0.0647
     10 O          -0.3316   -0.8449   -2.2227 O.3     1  LIG1       -0.3865
     11 O           0.5758    1.9238   -1.3106 O.3     1  LIG1       -0.3745
     12 C           0.1545    1.9803   -2.6682 C.3     1  LIG1        0.0370
     13 O           1.7576    1.2576    0.9946 O.3     1  LIG1       -0.3865
     14 C           0.2275   -1.2682    1.4800 C.3     1  LIG1        0.1118
     15 H           1.3119   -1.4094    1.5522 H       1  LIG1        0.0647
     16 C          -0.2467   -1.5588    0.0556 C.3     1  LIG1        0.1118
     17 H          -1.3418   -1.6169    0.0172 H       1  LIG1        0.0647
     18 O           0.2126   -2.8599   -0.3553 O.3     1  LIG1       -0.3865
     19 O          -0.3761   -2.2424    2.3513 O.3     1  LIG1       -0.3865
     20 H          -1.8284    1.0200    2.4972 H       1  LIG1        0.2100
     21 H          -0.1730   -1.8053   -2.3332 H       1  LIG1        0.2100
     22 H           0.4901    2.9346   -3.0841 H       1  LIG1        0.0524
     23 H          -0.9352    1.9321   -2.7521 H       1  LIG1        0.0524
     24 H           0.6272    1.1841   -3.2481 H       1  LIG1        0.0524
     25 H           2.0198    1.8130    0.2294 H       1  LIG1        0.2100
     26 H           0.0792   -3.4355    0.4258 H       1  LIG1        0.2100
     27 H          -1.2726   -1.8978    2.5427 H       1  LIG1        0.2100
@<TRIPOS>BOND
     1     1     2    1
     2     2     3    1
     3     2     4    1
     4     4     5    1
     5     4     6    1
     6     6     7    1
     7     6     8    1
     8     6    11    1
     9    11    12    1
    10     4    13    1
    11     2    14    1
    12    14    15    1
    13    14    16    1
    14    16    17    1
    15     8    16    1
    16    16    18    1
    17    14    19    1
    18     8    10    1
    19     8     9    1
    20     1    20    1
    21    10    21    1
    22    12    22    1
    23    12    23    1
    24    12    24    1
    25    13    25    1
    26    18    26    1
    27    19    27    1
