@<TRIPOS>MOLECULE
NuBBE_1468
 65 69 0 0 0
SMALL
GASTEIGER

@<TRIPOS>ATOM
      1 O          -1.7544   -2.9022   -2.7115 O.2     1  LIG1       -0.2920
      2 C          -1.1870   -1.9573   -2.1670 C.2     1  LIG1        0.1651
      3 C          -1.8518   -0.5794   -1.9917 C.3     1  LIG1        0.0320
      4 C          -0.7881    0.5635   -2.2153 C.3     1  LIG1       -0.0027
      5 H          -1.1913    1.4460   -1.7059 H       1  LIG1        0.0328
      6 C          -0.7710    1.0695   -3.6884 C.3     1  LIG1        0.0498
      7 C          -0.4615    0.0591   -4.7751 C.2     1  LIG1        0.3072
      8 O          -1.0130    0.4893   -5.9380 O.3     1  LIG1       -0.4679
      9 C          -0.3809   -0.0034   -7.1218 C.3     1  LIG1        0.0817
     10 O           0.2833   -0.9235   -4.6487 O.2     1  LIG1       -0.2509
     11 C           0.6572    0.2908   -1.5539 C.3     1  LIG1        0.0545
     12 C           1.8197    0.6848   -2.5072 C.3     1  LIG1       -0.0485
     13 C           0.9046    0.8138   -0.1191 C.2     1  LIG1       -0.0107
     14 C           2.0738   -0.0064    0.4521 C.3     1  LIG1        0.1517
     15 C           3.4493    0.6236    0.0940 C.3     1  LIG1       -0.0169
     16 O           1.9206   -1.3013   -0.2054 O.2     1  LIG1       -0.4805
     17 C           0.9071   -1.1601   -1.1913 C.2     1  LIG1        0.1130
     18 C           0.1244   -2.1948   -1.5127 C.2     1  LIG1        0.0198
     19 C           0.0076    1.4527    0.6617 C.2     1  LIG1       -0.0507
     20 C          -0.0968    1.1961    2.1552 C.3     1  LIG1        0.0866
     21 H          -1.1659    1.1207    2.3869 H       1  LIG1        0.0648
     22 O           0.3860    2.3603    2.8078 O.3     1  LIG1       -0.3868
     23 C           0.5967   -0.1268    2.6380 C.3     1  LIG1        0.0641
     24 C          -0.1641   -1.3994    2.1911 C.3     1  LIG1       -0.0493
     25 C           1.9940   -0.1219    2.0076 C.2     1  LIG1       -0.0035
     26 C           3.0622    0.0331    2.8230 C.2     1  LIG1        0.0266
     27 C           2.9736    0.3974    4.2551 C.2     1  LIG1        0.3327
     28 O           1.7294    0.5905    4.7392 O.3     1  LIG1       -0.4524
     29 C           0.7273   -0.2704    4.1925 C.3     1  LIG1        0.1430
     30 H           1.0948   -1.2897    4.4025 H       1  LIG1        0.0796
     31 C          -0.5588   -0.1604    4.9706 C.ar    1  LIG1        0.0314
     32 C          -1.2127   -1.1972    5.6131 C.ar    1  LIG1        0.0984
     33 O          -2.3529   -0.7658    6.2052 O.2     1  LIG1       -0.4706
     34 C          -2.4324    0.5681    5.9775 C.ar    1  LIG1        0.0921
     35 C          -1.3493    0.9938    5.2447 C.ar    1  LIG1       -0.0172
     36 O           3.9885    0.6476    4.8924 O.2     1  LIG1       -0.2456
     37 C          -2.4644   -0.5056   -0.5772 C.3     1  LIG1       -0.0525
     38 C          -3.0879   -0.4772   -2.9227 C.3     1  LIG1       -0.0525
     39 H          -1.7490    1.5183   -3.9116 H       1  LIG1        0.0381
     40 H          -0.0617    1.9012   -3.7952 H       1  LIG1        0.0381
     41 H          -1.1089   -0.0158   -7.9344 H       1  LIG1        0.0661
     42 H           0.0357   -1.0093   -7.0065 H       1  LIG1        0.0661
     43 H           0.4154    0.7021   -7.3753 H       1  LIG1        0.0661
     44 H           2.1125    1.7311   -2.3829 H       1  LIG1        0.0242
     45 H           1.6251    0.5437   -3.5645 H       1  LIG1        0.0242
     46 H           2.6955    0.0352   -2.3833 H       1  LIG1        0.0242
     47 H           3.6243    1.5496    0.6573 H       1  LIG1        0.0275
     48 H           3.5950    0.9109   -0.9415 H       1  LIG1        0.0275
     49 H           4.2639   -0.0836    0.2902 H       1  LIG1        0.0275
     50 H           0.3282   -3.2088   -1.1942 H       1  LIG1        0.0686
     51 H          -0.8496    1.9741    0.2487 H       1  LIG1        0.0599
     52 H           1.2683    2.5667    2.4569 H       1  LIG1        0.2102
     53 H          -1.1925   -1.4092    2.5654 H       1  LIG1        0.0240
     54 H           0.3351   -2.3080    2.5516 H       1  LIG1        0.0240
     55 H          -0.2235   -1.5140    1.1174 H       1  LIG1        0.0240
     56 H           4.0857    0.0769    2.4663 H       1  LIG1        0.0690
     57 H          -1.0039   -2.2522    5.7311 H       1  LIG1        0.1033
     58 H          -3.2957    1.0633    6.4001 H       1  LIG1        0.1029
     59 H          -1.1568    2.0138    4.9396 H       1  LIG1        0.0653
     60 H          -1.7172   -0.5400    0.2037 H       1  LIG1        0.0239
     61 H          -3.1455   -1.3449   -0.3926 H       1  LIG1        0.0239
     62 H          -3.0324    0.4221   -0.4369 H       1  LIG1        0.0239
     63 H          -2.8447   -0.6134   -3.9786 H       1  LIG1        0.0239
     64 H          -3.5950    0.4883   -2.8035 H       1  LIG1        0.0239
     65 H          -3.8244   -1.2560   -2.6849 H       1  LIG1        0.0239
@<TRIPOS>BOND
     1     1     2    2
     2     2     3    1
     3     3     4    1
     4     6     7    1
     5     7     8    1
     6     8     9    1
     7     7    10    2
     8     4    11    1
     9    11    12    1
    10    11    13    1
    11    13    14    1
    12    14    15    1
    13    14    16    1
    14    16    17    1
    15    11    17    1
    16    17    18    2
    17     2    18    1
    18    13    19    2
    19    19    20    1
    20    20    23    1
    21    23    24    1
    22    23    25    1
    23    14    25    1
    24    25    26    2
    25    26    27    1
    26    27    28    1
    27    28    29    1
    28    29    30    1
    29    23    29    1
    30    29    31    1
    31    31    32   ar
    32    32    33   ar
    33    33    34   ar
    34    34    35   ar
    35    31    35   ar
    36    27    36    2
    37     3    37    1
    38     3    38    1
    39     4     6    1
    40     4     5    1
    41    20    22    1
    42    20    21    1
    43     6    39    1
    44     6    40    1
    45     9    41    1
    46     9    42    1
    47     9    43    1
    48    12    44    1
    49    12    45    1
    50    12    46    1
    51    15    47    1
    52    15    48    1
    53    15    49    1
    54    18    50    1
    55    19    51    1
    56    22    52    1
    57    24    53    1
    58    24    54    1
    59    24    55    1
    60    26    56    1
    61    32    57    1
    62    34    58    1
    63    35    59    1
    64    37    60    1
    65    37    61    1
    66    37    62    1
    67    38    63    1
    68    38    64    1
    69    38    65    1
