REMARK  Name = NuBBE_476
REMARK  10 active torsions:
REMARK  status: ('A' for Active; 'I' for Inactive)
REMARK    1  A    between atoms: C_2  and  C_3
REMARK    2  A    between atoms: C_2  and  O_26
REMARK    3  A    between atoms: C_6  and  O_22
REMARK    4  A    between atoms: C_10  and  O_16
REMARK    5  A    between atoms: C_13  and  C_15
REMARK    6  A    between atoms: O_16  and  C_17
REMARK    7  A    between atoms: C_17  and  C_18
REMARK    8  A    between atoms: O_22  and  C_23
REMARK    9  A    between atoms: C_23  and  C_24
REMARK   10  A    between atoms: O_26  and  C_27
REMARK                            x       y       z     vdW  Elec       q    Type
REMARK                         _______ _______ _______ _____ _____    ______ ____
ROOT
ATOM      1  C   LIG A   1      -1.015   1.401   0.035  0.00  0.00    +0.078 C 
ATOM      2  C   LIG A   1      -0.681   2.252  -0.953  0.00  0.00    +0.202 C 
ATOM      3  O   LIG A   1       0.296   2.050  -1.892  0.00  0.00    -0.460 OA
ATOM      4  C   LIG A   1       1.223   0.997  -1.586  0.00  0.00    +0.370 C 
ATOM      5  C   LIG A   1       0.503  -0.255  -1.078  0.00  0.00    +0.085 C 
ATOM      6  C   LIG A   1      -0.337   0.058   0.183  0.00  0.00    +0.080 C 
ATOM      7  C   LIG A   1      -1.206  -1.218   0.262  0.00  0.00    +0.185 C 
ATOM      8  C   LIG A   1      -1.543  -1.591  -1.187  0.00  0.00    +0.049 C 
ATOM      9  C   LIG A   1      -0.529  -0.843  -2.066  0.00  0.00    +0.000 C 
ATOM     10  C   LIG A   1       0.092  -1.730  -3.135  0.00  0.00    +0.008 C 
ENDROOT
BRANCH   1  12
ATOM     11  O   LIG A   1      -2.205   3.142   1.182  0.00  0.00    -0.245 OA
ATOM     12  C   LIG A   1      -1.958   1.946   1.044  0.00  0.00    +0.338 C 
BRANCH  12  13
ATOM     13  O   LIG A   1      -2.473   0.950   1.787  0.00  0.00    -0.465 OA
ATOM     14  C   LIG A   1      -3.300   1.387   2.867  0.00  0.00    +0.280 C 
ENDBRANCH  12  13
ENDBRANCH   1  12
BRANCH   7  15
ATOM     15  O   LIG A   1      -0.407  -2.322   0.758  0.00  0.00    -0.461 OA
BRANCH  15  16
ATOM     16  C   LIG A   1      -0.179  -2.370   2.098  0.00  0.00    +0.304 C 
ATOM     17  C   LIG A   1       0.658  -3.574   2.412  0.00  0.00    +0.136 C 
ATOM     18  O   LIG A   1      -0.595  -1.573   2.920  0.00  0.00    -0.251 OA
ENDBRANCH  15  16
ENDBRANCH   7  15
BRANCH   4  19
ATOM     19  O   LIG A   1       2.169   1.394  -0.574  0.00  0.00    -0.425 OA
BRANCH  19  20
ATOM     20  C   LIG A   1       3.184   2.183  -1.010  0.00  0.00    +0.307 C 
ATOM     21  C   LIG A   1       4.118   2.498   0.121  0.00  0.00    +0.136 C 
ATOM     22  O   LIG A   1       3.370   2.535  -2.166  0.00  0.00    -0.251 OA
ENDBRANCH  19  20
ENDBRANCH   4  19
TORSDOF 6
