REMARK  Name = NuBBE_305
REMARK  15 active torsions:
REMARK  status: ('A' for Active; 'I' for Inactive)
REMARK    1  A    between atoms: CA_3  and  C_4
REMARK    2  A    between atoms: C_4  and  O_5
REMARK    3  A    between atoms: C_6  and  O_7
REMARK    4  A    between atoms: C_10  and  C_11
REMARK    5  A    between atoms: C_11  and  C_12
REMARK    6  A    between atoms: C_12  and  C_13
REMARK    7  A    between atoms: C_13  and  C_14
REMARK    8  A    between atoms: C_14  and  C_15
REMARK    9  A    between atoms: C_15  and  C_16
REMARK   10  A    between atoms: C_16  and  C_17
REMARK   11  A    between atoms: C_17  and  C_18
REMARK   12  A    between atoms: C_18  and  C_19
REMARK   13  A    between atoms: C_19  and  C_20
REMARK   14  A    between atoms: C_20  and  C_21
REMARK   15  A    between atoms: C_21  and  C_22
REMARK                            x       y       z     vdW  Elec       q    Type
REMARK                         _______ _______ _______ _____ _____    ______ ____
ROOT
ATOM      1  C   LIG A   1      -1.439  -4.758   0.396  0.00  0.00    +0.019 C 
ENDROOT
BRANCH   1   8
ATOM      2  H   LIG A   1      -1.375  -2.456   0.875  0.00  0.00    +0.123 HD
ATOM      3  N   LIG A   1      -2.359  -2.594   0.997  0.00  0.00    -0.306 NA
ATOM      4  CA  LIG A   1      -3.128  -1.388   0.663  0.00  0.00    +0.108 C 
ATOM      5  C   LIG A   1      -3.589  -1.307  -0.813  0.00  0.00    +0.134 C 
ATOM      6  C   LIG A   1      -4.200  -2.626  -1.261  0.00  0.00    +0.034 C 
ATOM      7  C   LIG A   1      -3.149  -3.703  -1.132  0.00  0.00    +0.021 C 
ATOM      8  C   LIG A   1      -2.683  -3.842   0.321  0.00  0.00    +0.054 C 
BRANCH   5   9
ATOM      9  O   LIG A   1      -4.554  -0.268  -0.984  0.00  0.00    -0.390 OA
ATOM     10  H   LIG A   1      -5.403  -0.603  -0.636  0.00  0.00    +0.210 HD
ENDBRANCH   5   9
BRANCH   4  11
ATOM     11  C   LIG A   1      -2.376  -0.071   1.037  0.00  0.00    +0.177 C 
BRANCH  11  12
ATOM     12  O   LIG A   1      -3.193   1.087   0.880  0.00  0.00    -0.393 OA
ATOM     13  H   LIG A   1      -3.614   1.012  -0.004  0.00  0.00    +0.209 HD
ENDBRANCH  11  12
ENDBRANCH   4  11
ENDBRANCH   1   8
BRANCH   1  14
ATOM     14  C   LIG A   1      -0.222  -4.404  -0.510  0.00  0.00    +0.002 C 
BRANCH  14  15
ATOM     15  C   LIG A   1       0.800  -3.232  -0.249  0.00  0.00    +0.000 C 
BRANCH  15  16
ATOM     16  C   LIG A   1       0.481  -1.693  -0.263  0.00  0.00    -0.000 C 
BRANCH  16  17
ATOM     17  C   LIG A   1       1.693  -0.778   0.075  0.00  0.00    -0.000 C 
BRANCH  17  18
ATOM     18  C   LIG A   1       1.477   0.779   0.168  0.00  0.00    -0.000 C 
BRANCH  18  19
ATOM     19  C   LIG A   1       2.845   1.458   0.440  0.00  0.00    +0.000 C 
BRANCH  19  20
ATOM     20  C   LIG A   1       2.929   2.989   0.616  0.00  0.00    +0.000 C 
BRANCH  20  21
ATOM     21  C   LIG A   1       2.562   3.852  -0.596  0.00  0.00    +0.007 C 
BRANCH  21  22
ATOM     22  C   LIG A   1       2.721   5.351  -0.304  0.00  0.00    +0.074 C 
BRANCH  22  23
ATOM     23  C   LIG A   1       4.108   5.803   0.025  0.00  0.00    +0.130 C 
ATOM     24  C   LIG A   1       4.311   6.991   0.882  0.00  0.00    +0.086 C 
ATOM     25  O   LIG A   1       5.105   5.216  -0.487  0.00  0.00    -0.298 OA
ENDBRANCH  22  23
ENDBRANCH  21  22
ENDBRANCH  20  21
ENDBRANCH  19  20
ENDBRANCH  18  19
ENDBRANCH  17  18
ENDBRANCH  16  17
ENDBRANCH  15  16
ENDBRANCH  14  15
ENDBRANCH   1  14
TORSDOF 14
