@<TRIPOS>MOLECULE
NuBBE_1619
 45 46 0 0 0
SMALL
GASTEIGER

@<TRIPOS>ATOM
      1 O           1.6437    0.4171    1.4854 O.3     1  LIG1       -0.4878
      2 C           1.1589    0.0363    0.1922 C.3     1  LIG1        0.1081
      3 C          -0.2560    0.5257    0.0323 C.2     1  LIG1       -0.0480
      4 C          -1.3698   -0.1843   -0.2588 C.2     1  LIG1       -0.0706
      5 C          -2.7067    0.5292   -0.4604 C.3     1  LIG1       -0.0022
      6 C          -3.0736    0.8432   -1.9344 C.3     1  LIG1        0.0772
      7 C          -4.3724    1.6138   -2.0173 C.2     1  LIG1       -0.0569
      8 C          -5.6313    1.1562   -2.1841 C.2     1  LIG1       -0.0772
      9 C          -6.0434   -0.2813   -2.3388 C.3     1  LIG1       -0.0440
     10 C          -6.7974    2.1141   -2.1851 C.3     1  LIG1       -0.0440
     11 O          -2.0659    1.6577   -2.5448 O.3     1  LIG1       -0.3874
     12 C          -1.4232   -1.6858   -0.3853 C.3     1  LIG1       -0.0436
     13 C           2.9433    0.0729    1.7623 C.ar    1  LIG1        0.1245
     14 C           3.6493   -0.9639    1.1546 C.ar    1  LIG1        0.0231
     15 C           4.9686   -1.2113    1.5364 C.ar    1  LIG1        0.1425
     16 C           5.6087   -0.4610    2.5193 C.ar    1  LIG1        0.0178
     17 C           4.8981    0.5664    3.1388 C.ar    1  LIG1       -0.0476
     18 C           3.5699    0.8241    2.7652 C.ar    1  LIG1       -0.0191
     19 C           6.9844   -0.7866    2.8657 C.ar    1  LIG1       -0.0443
     20 C           7.6034   -1.7878    2.2325 C.ar    1  LIG1        0.0236
     21 C           6.9511   -2.5894    1.1797 C.ar    1  LIG1        0.3372
     22 O           7.5502   -3.4865    0.6154 O.2     1  LIG1       -0.2452
     23 O           5.6332   -2.2650    0.8783 O.2     1  LIG1       -0.4220
     24 H           1.2122   -1.0453    0.0652 H       1  LIG1        0.0742
     25 H           1.7745    0.5207   -0.5770 H       1  LIG1        0.0742
     26 H          -0.3457    1.6069    0.1258 H       1  LIG1        0.0605
     27 H          -2.6962    1.4640    0.1165 H       1  LIG1        0.0338
     28 H          -3.5026   -0.0860   -0.0195 H       1  LIG1        0.0338
     29 H          -3.1223   -0.0764   -2.5249 H       1  LIG1        0.0641
     30 H          -4.2539    2.6923   -1.9137 H       1  LIG1        0.0597
     31 H          -5.2227   -0.9878   -2.1981 H       1  LIG1        0.0274
     32 H          -6.4694   -0.4435   -3.3354 H       1  LIG1        0.0274
     33 H          -6.8183   -0.5262   -1.6028 H       1  LIG1        0.0274
     34 H          -6.4807    3.1618   -2.1637 H       1  LIG1        0.0274
     35 H          -7.4208    1.9364   -1.3019 H       1  LIG1        0.0274
     36 H          -7.4145    1.9709   -3.0781 H       1  LIG1        0.0274
     37 H          -2.0197    2.4961   -2.0568 H       1  LIG1        0.2102
     38 H          -0.4413   -2.1478   -0.5089 H       1  LIG1        0.0274
     39 H          -2.0195   -1.9777   -1.2550 H       1  LIG1        0.0274
     40 H          -1.8855   -2.1258    0.5063 H       1  LIG1        0.0274
     41 H           3.2090   -1.6065    0.4020 H       1  LIG1        0.0691
     42 H           5.3595    1.1753    3.9130 H       1  LIG1        0.0626
     43 H           3.0219    1.6248    3.2576 H       1  LIG1        0.0654
     44 H           7.4875   -0.2141    3.6378 H       1  LIG1        0.0627
     45 H           8.6251   -2.0659    2.4623 H       1  LIG1        0.0689
@<TRIPOS>BOND
     1     1     2    1
     2     2     3    1
     3     3     4    2
     4     4     5    1
     5     5     6    1
     6     6     7    1
     7     7     8    2
     8     8     9    1
     9     8    10    1
    10     6    11    1
    11     4    12    1
    12     1    13    1
    13    13    14   ar
    14    14    15   ar
    15    15    16   ar
    16    16    17   ar
    17    17    18   ar
    18    13    18   ar
    19    16    19   ar
    20    19    20   ar
    21    20    21   ar
    22    21    22    2
    23    21    23   ar
    24    15    23   ar
    25     2    24    1
    26     2    25    1
    27     3    26    1
    28     5    27    1
    29     5    28    1
    30     6    29    1
    31     7    30    1
    32     9    31    1
    33     9    32    1
    34     9    33    1
    35    10    34    1
    36    10    35    1
    37    10    36    1
    38    11    37    1
    39    12    38    1
    40    12    39    1
    41    12    40    1
    42    14    41    1
    43    17    42    1
    44    18    43    1
    45    19    44    1
    46    20    45    1
