@<TRIPOS>MOLECULE
NuBBE_130
 126 132 0 0 0
SMALL
GASTEIGER

@<TRIPOS>ATOM
      1 C          -6.6545    0.7523    4.6088 C.3     1  LIG1       -0.0598
      2 C          -6.0456    1.7293    3.5826 C.3     1  LIG1       -0.0343
      3 C          -7.0589    1.8977    2.4261 C.3     1  LIG1       -0.0468
      4 C          -6.4675    2.3829    1.1043 C.3     1  LIG1       -0.0362
      5 C          -5.1819    1.6199    0.6864 C.3     1  LIG1        0.0744
      6 C          -4.6914    2.1994   -0.6640 C.3     1  LIG1       -0.0359
      7 C          -3.3946    3.0080   -0.5656 C.3     1  LIG1       -0.0424
      8 C          -2.1982    2.3386    0.1972 C.3     1  LIG1       -0.0051
      9 C          -1.2393    1.4602   -0.7550 C.3     1  LIG1       -0.0194
     10 C          -0.7108    2.3108   -1.9593 C.3     1  LIG1       -0.0463
     11 C           0.7820    2.4350   -2.1858 C.3     1  LIG1       -0.0486
     12 C           1.5801    1.2198   -1.7155 C.3     1  LIG1       -0.0278
     13 H           1.0972    0.3359   -2.1615 H       1  LIG1        0.0312
     14 C           3.0512    1.1991   -2.2880 C.3     1  LIG1       -0.0052
     15 C           2.9655    0.7470   -3.7810 C.3     1  LIG1       -0.0572
     16 C           3.9627    0.1520   -1.5553 C.3     1  LIG1        0.0672
     17 H           3.7080   -0.8355   -1.9594 H       1  LIG1        0.0602
     18 C           3.7442    0.1024   -0.0421 C.3     1  LIG1       -0.0255
     19 C           2.2810   -0.1108    0.3041 C.3     1  LIG1       -0.0447
     20 C           1.3891    1.0581   -0.1736 C.3     1  LIG1       -0.0250
     21 C          -0.1277    0.6694    0.0685 C.3     1  LIG1       -0.0257
     22 H          -0.1572   -0.3457   -0.3622 H       1  LIG1        0.0315
     23 C          -0.4979    0.3734    1.5490 C.3     1  LIG1       -0.0306
     24 C          -1.9269    0.5913    1.9475 C.2     1  LIG1       -0.0836
     25 C          -2.7308    1.4987    1.3653 C.2     1  LIG1       -0.0629
     26 C          -4.1501    1.8282    1.8240 C.3     1  LIG1       -0.0031
     27 H          -4.1059    2.9056    2.0475 H       1  LIG1        0.0357
     28 C          -4.6674    1.1743    3.1257 C.3     1  LIG1       -0.0403
     29 C           1.8044    2.3107    0.6291 C.3     1  LIG1       -0.0590
     30 O           5.3316    0.4349   -1.8933 O.3     1  LIG1       -0.3449
     31 C           6.3337   -0.4132   -1.3271 C.3     1  LIG1        0.1882
     32 H           6.3046   -0.2701   -0.2409 H       1  LIG1        0.0937
     33 O           7.6168    0.0453   -1.7730 O.3     1  LIG1       -0.3405
     34 C           8.6917   -0.5901   -1.0552 C.3     1  LIG1        0.1132
     35 H           8.7280   -0.1023   -0.0752 H       1  LIG1        0.0647
     36 C           8.4533   -2.1071   -0.8384 C.3     1  LIG1        0.1119
     37 H           9.3850   -2.6825   -0.8570 H       1  LIG1        0.0647
     38 O           7.8648   -2.3033    0.4704 O.3     1  LIG1       -0.3865
     39 C          10.0217   -0.3063   -1.7768 C.3     1  LIG1        0.0761
     40 O          11.1303   -0.9632   -1.1530 O.3     1  LIG1       -0.3803
     41 C          11.5317   -0.3938    0.0846 C.3     1  LIG1        0.0366
     42 C           6.1256   -1.9019   -1.7233 C.3     1  LIG1        0.1341
     43 H           5.5515   -1.9655   -2.6532 H       1  LIG1        0.0671
     44 C           7.4631   -2.6455   -1.8775 C.3     1  LIG1        0.1141
     45 H           7.2922   -3.7134   -1.6943 H       1  LIG1        0.0648
     46 O           8.0079   -2.5215   -3.1899 O.3     1  LIG1       -0.3864
     47 O           5.3457   -2.5774   -0.7134 O.3     1  LIG1       -0.3841
     48 C           3.7171    2.5976   -2.3166 C.3     1  LIG1       -0.0572
     49 C          -2.0677    0.3216   -1.4506 C.3     1  LIG1       -0.0585
     50 C          -1.4062    3.5069    0.8513 C.3     1  LIG1       -0.0553
     51 C          -5.5257    0.1454    0.5038 C.2     1  LIG1        0.3161
     52 O          -4.4871   -0.6926    0.6240 O.3     1  LIG1       -0.4318
     53 C          -4.7186   -2.1167    0.6985 C.3     1  LIG1        0.2337
     54 H          -5.2498   -2.3087    1.6410 H       1  LIG1        0.1085
     55 O          -3.4504   -2.7930    0.7612 O.3     1  LIG1       -0.3312
     56 C          -3.5856   -4.2188    0.9815 C.3     1  LIG1        0.1140
     57 H          -3.9033   -4.3805    2.0200 H       1  LIG1        0.0647
     58 C          -4.6109   -4.8578    0.0109 C.3     1  LIG1        0.1120
     59 H          -4.2221   -5.7882   -0.4146 H       1  LIG1        0.0647
     60 C          -4.9507   -3.8844   -1.1262 C.3     1  LIG1        0.1152
     61 H          -5.7144   -4.3372   -1.7685 H       1  LIG1        0.0648
     62 O          -3.8113   -3.6156   -1.9501 O.3     1  LIG1       -0.3864
     63 O          -5.7922   -5.2112    0.7526 O.3     1  LIG1       -0.3865
     64 C          -2.1896   -4.8455    0.8039 C.3     1  LIG1        0.0731
     65 O          -2.2215   -6.2524    1.0033 O.3     1  LIG1       -0.3924
     66 C          -5.5240   -2.5943   -0.5382 C.3     1  LIG1        0.1455
     67 H          -5.5425   -1.8260   -1.3189 H       1  LIG1        0.0683
     68 O          -6.8886   -2.8389   -0.1312 O.3     1  LIG1       -0.3829
     69 O          -6.6816   -0.2499    0.2652 O.2     1  LIG1       -0.2501
     70 C          -5.8413    3.0886    4.2775 C.3     1  LIG1       -0.0598
     71 H          -6.7757   -0.2482    4.1755 H       1  LIG1        0.0235
     72 H          -7.6447    1.0890    4.9364 H       1  LIG1        0.0235
     73 H          -6.0180    0.6560    5.4942 H       1  LIG1        0.0235
     74 H          -7.8501    2.6010    2.7198 H       1  LIG1        0.0271
     75 H          -7.5807    0.9493    2.2489 H       1  LIG1        0.0271
     76 H          -6.2550    3.4552    1.1736 H       1  LIG1        0.0276
     77 H          -7.2378    2.2798    0.3236 H       1  LIG1        0.0276
     78 H          -5.4493    2.8749   -1.0843 H       1  LIG1        0.0276
     79 H          -4.6021    1.4104   -1.4139 H       1  LIG1        0.0276
     80 H          -3.6604    3.9484   -0.0593 H       1  LIG1        0.0274
     81 H          -3.1101    3.3247   -1.5732 H       1  LIG1        0.0274
     82 H          -1.0984    3.3333   -1.9329 H       1  LIG1        0.0271
     83 H          -1.1233    1.9107   -2.8969 H       1  LIG1        0.0271
     84 H           1.1328    3.3484   -1.6937 H       1  LIG1        0.0268
     85 H           0.9347    2.6123   -3.2563 H       1  LIG1        0.0268
     86 H           2.3969   -0.1860   -3.8807 H       1  LIG1        0.0236
     87 H           3.9594    0.5650   -4.2043 H       1  LIG1        0.0236
     88 H           2.4753    1.4974   -4.4099 H       1  LIG1        0.0236
     89 H           4.1665    0.9891    0.4397 H       1  LIG1        0.0290
     90 H           4.2949   -0.7319    0.3996 H       1  LIG1        0.0290
     91 H           2.1938   -0.2507    1.3881 H       1  LIG1        0.0271
     92 H           1.9486   -1.0540   -0.1520 H       1  LIG1        0.0271
     93 H           0.1173    0.9482    2.2466 H       1  LIG1        0.0310
     94 H          -0.2582   -0.6796    1.7526 H       1  LIG1        0.0310
     95 H          -2.2745   -0.0014    2.7887 H       1  LIG1        0.0572
     96 H          -3.9345    1.3260    3.9299 H       1  LIG1        0.0276
     97 H          -4.7380    0.0875    3.0022 H       1  LIG1        0.0276
     98 H           2.8273    2.6231    0.4169 H       1  LIG1        0.0235
     99 H           1.7698    2.1304    1.7082 H       1  LIG1        0.0235
    100 H           1.1801    3.1758    0.4193 H       1  LIG1        0.0235
    101 H           8.5690   -2.1142    1.1197 H       1  LIG1        0.2100
    102 H           9.9705   -0.6668   -2.8106 H       1  LIG1        0.0586
    103 H          10.2086    0.7732   -1.8450 H       1  LIG1        0.0586
    104 H          12.1205   -1.1451    0.6191 H       1  LIG1        0.0524
    105 H          10.6804   -0.1301    0.7161 H       1  LIG1        0.0524
    106 H          12.1539    0.4892   -0.0846 H       1  LIG1        0.0524
    107 H           7.3019   -2.7258   -3.8283 H       1  LIG1        0.2100
    108 H           5.9269   -2.6304    0.0775 H       1  LIG1        0.2101
    109 H           3.9619    2.9611   -1.3181 H       1  LIG1        0.0236
    110 H           3.0877    3.3477   -2.8064 H       1  LIG1        0.0236
    111 H           4.6471    2.5837   -2.8973 H       1  LIG1        0.0236
    112 H          -2.8496    0.7119   -2.1023 H       1  LIG1        0.0235
    113 H          -2.5112   -0.3692   -0.7337 H       1  LIG1        0.0235
    114 H          -1.4208   -0.2817   -2.1022 H       1  LIG1        0.0235
    115 H          -0.9252    4.1479    0.1074 H       1  LIG1        0.0238
    116 H          -0.6416    3.1529    1.5472 H       1  LIG1        0.0238
    117 H          -2.0622    4.1522    1.4491 H       1  LIG1        0.0238
    118 H          -3.1070   -3.2442   -1.3812 H       1  LIG1        0.2100
    119 H          -6.5135   -4.5896    0.5187 H       1  LIG1        0.2100
    120 H          -1.7971   -4.6402   -0.1980 H       1  LIG1        0.0584
    121 H          -1.4851   -4.4096    1.5203 H       1  LIG1        0.0584
    122 H          -1.3390   -6.6008    0.7874 H       1  LIG1        0.2095
    123 H          -7.2596   -1.9479    0.0618 H       1  LIG1        0.2102
    124 H          -5.4448    3.8425    3.5909 H       1  LIG1        0.0235
    125 H          -5.1421    2.9977    5.1163 H       1  LIG1        0.0235
    126 H          -6.7863    3.4716    4.6785 H       1  LIG1        0.0235
@<TRIPOS>BOND
     1     2     3    1
     2     3     4    1
     3     4     5    1
     4     5     6    1
     5     6     7    1
     6     7     8    1
     7     8     9    1
     8     9    10    1
     9    10    11    1
    10    11    12    1
    11    12    14    1
    12    14    16    1
    13    16    18    1
    14    18    19    1
    15    19    20    1
    16    20    21    1
    17    21    23    1
    18    23    24    1
    19    24    25    2
    20    25    26    1
    21    26    28    1
    22    12    20    1
    23    30    31    1
    24    31    32    1
    25    31    33    1
    26    33    34    1
    27    34    36    1
    28    36    37    1
    29    36    38    1
    30    39    40    1
    31    40    41    1
    32    31    42    1
    33    42    44    1
    34    36    44    1
    35    21     9    1
    36    25     8    1
    37    26     5    1
    38    51    52    1
    39    52    53    1
    40    53    54    1
    41    53    55    1
    42    55    56    1
    43    56    58    1
    44    58    59    1
    45    58    60    1
    46    58    63    1
    47    64    65    1
    48    53    66    1
    49    60    66    1
    50    51    69    2
    51    28     2    1
    52     1     2    1
    53     2    70    1
    54     5    51    1
    55     8    50    1
    56     9    49    1
    57    12    13    1
    58    14    15    1
    59    14    48    1
    60    16    17    1
    61    16    30    1
    62    20    29    1
    63    21    22    1
    64    26    27    1
    65    34    39    1
    66    34    35    1
    67    66    68    1
    68    66    67    1
    69    42    47    1
    70    42    43    1
    71    44    46    1
    72    44    45    1
    73    56    64    1
    74    56    57    1
    75    60    62    1
    76    60    61    1
    77     1    71    1
    78     1    72    1
    79     1    73    1
    80     3    74    1
    81     3    75    1
    82     4    76    1
    83     4    77    1
    84     6    78    1
    85     6    79    1
    86     7    80    1
    87     7    81    1
    88    10    82    1
    89    10    83    1
    90    11    84    1
    91    11    85    1
    92    15    86    1
    93    15    87    1
    94    15    88    1
    95    18    89    1
    96    18    90    1
    97    19    91    1
    98    19    92    1
    99    23    93    1
   100    23    94    1
   101    24    95    1
   102    28    96    1
   103    28    97    1
   104    29    98    1
   105    29    99    1
   106    29   100    1
   107    38   101    1
   108    39   102    1
   109    39   103    1
   110    41   104    1
   111    41   105    1
   112    41   106    1
   113    46   107    1
   114    47   108    1
   115    48   109    1
   116    48   110    1
   117    48   111    1
   118    49   112    1
   119    49   113    1
   120    49   114    1
   121    50   115    1
   122    50   116    1
   123    50   117    1
   124    62   118    1
   125    63   119    1
   126    64   120    1
   127    64   121    1
   128    65   122    1
   129    68   123    1
   130    70   124    1
   131    70   125    1
   132    70   126    1
