REMARK  Name = NuBBE_2479
REMARK  9 active torsions:
REMARK  status: ('A' for Active; 'I' for Inactive)
REMARK    1  A    between atoms: C_1  and  C_2
REMARK    2  A    between atoms: C_4  and  C_19
REMARK    3  A    between atoms: C_10  and  O_17
REMARK    4  A    between atoms: C_11  and  O_13
REMARK    5  A    between atoms: O_13  and  C_14
REMARK    6  A    between atoms: C_14  and  C_15
REMARK    7  A    between atoms: O_17  and  C_18
REMARK    8  A    between atoms: C_23  and  O_25
REMARK    9  A    between atoms: O_25  and  C_26
REMARK                            x       y       z     vdW  Elec       q    Type
REMARK                         _______ _______ _______ _____ _____    ______ ____
ROOT
ATOM      1  C   LIG A   1      -0.844  -2.409   2.170  0.00  0.00    +0.016 C 
ATOM      2  C   LIG A   1       0.124  -2.273   0.999  0.00  0.00    +0.065 C 
ATOM      3  C   LIG A   1       1.411  -1.402   1.102  0.00  0.00    +0.211 C 
ATOM      4  O   LIG A   1       1.700  -0.886  -0.242  0.00  0.00    -0.483 OA
ATOM      5  C   LIG A   1       0.505  -0.969  -0.916  0.00  0.00    +0.129 A 
ATOM      6  C   LIG A   1      -0.464  -1.680  -0.230  0.00  0.00    +0.005 A 
ATOM      7  C   LIG A   1      -1.737  -1.810  -0.743  0.00  0.00    +0.057 A 
ATOM      8  C   LIG A   1      -2.027  -1.248  -1.988  0.00  0.00    +0.162 A 
ATOM      9  C   LIG A   1      -1.026  -0.536  -2.708  0.00  0.00    +0.166 A 
ATOM     10  C   LIG A   1       0.257  -0.401  -2.155  0.00  0.00    +0.095 A 
ENDROOT
BRANCH   3  11
ATOM     11  C   LIG A   1       1.458  -0.229   2.068  0.00  0.00    +0.000 A 
ATOM     12  C   LIG A   1       2.681   0.170   2.640  0.00  0.00    +0.057 A 
ATOM     13  C   LIG A   1       2.677   1.234   3.525  0.00  0.00    +0.170 A 
ATOM     14  C   LIG A   1       1.522   1.908   3.859  0.00  0.00    +0.207 A 
ATOM     15  C   LIG A   1       0.311   1.567   3.297  0.00  0.00    +0.166 A 
ATOM     16  C   LIG A   1       0.300   0.516   2.377  0.00  0.00    +0.057 A 
ATOM     17  O   LIG A   1       1.754   2.889   4.771  0.00  0.00    -0.449 OA
ATOM     18  C   LIG A   1       3.175   2.792   4.942  0.00  0.00    +0.467 C 
ATOM     19  O   LIG A   1       3.771   1.732   4.169  0.00  0.00    -0.453 OA
BRANCH  15  20
ATOM     20  O   LIG A   1      -0.912   2.102   3.572  0.00  0.00    -0.491 OA
ATOM     21  C   LIG A   1      -0.917   3.489   3.879  0.00  0.00    +0.277 C 
ENDBRANCH  15  20
ENDBRANCH   3  11
BRANCH   8  22
ATOM     22  O   LIG A   1      -3.329  -1.489  -2.351  0.00  0.00    -0.491 OA
ATOM     23  C   LIG A   1      -3.746  -1.113  -3.653  0.00  0.00    +0.277 C 
ENDBRANCH   8  22
BRANCH   9  24
ATOM     24  O   LIG A   1      -1.426   0.030  -3.876  0.00  0.00    -0.484 OA
BRANCH  24  25
ATOM     25  C   LIG A   1      -0.497   0.515  -4.857  0.00  0.00    +0.256 C 
BRANCH  25  26
ATOM     26  C   LIG A   1      -0.222  -0.604  -5.810  0.00  0.00    +0.006 C 
ATOM     27  C   LIG A   1       0.990  -0.865  -6.290  0.00  0.00    +0.007 C 
ENDBRANCH  25  26
ENDBRANCH  24  25
ENDBRANCH   9  24
TORSDOF 6
