@<TRIPOS>MOLECULE
NuBBE_508
 53 56 0 0 0
SMALL
GASTEIGER

@<TRIPOS>ATOM
      1 C          -5.6788   -1.3172    3.6612 C.3     1  LIG1       -0.0062
      2 C          -4.2646   -1.2792    3.1716 C.ar    1  LIG1        0.1063
      3 C          -3.4825   -2.3652    3.1485 C.ar    1  LIG1        0.0237
      4 C          -2.1044   -2.2403    2.6565 C.ar    1  LIG1        0.1963
      5 C          -1.6586   -0.9041    2.2294 C.ar    1  LIG1        0.1060
      6 C          -2.5689    0.1498    2.3009 C.ar    1  LIG1        0.1486
      7 O          -3.8575   -0.0256    2.7525 O.2     1  LIG1       -0.4592
      8 C          -2.1828    1.4459    1.9257 C.ar    1  LIG1        0.0344
      9 C          -3.1613    2.5886    1.9951 C.3     1  LIG1       -0.0327
     10 C          -0.8491    1.6503    1.5185 C.ar    1  LIG1        0.1302
     11 O          -0.3871    2.9106    1.2662 O.3     1  LIG1       -0.5060
     12 C           0.0809    0.5969    1.3999 C.ar    1  LIG1        0.0410
     13 C           1.5003    0.8448    0.8868 C.3     1  LIG1        0.0085
     14 C           1.6422    0.7055   -0.6240 C.2     1  LIG1        0.0102
     15 C           1.4156    1.9817   -1.4049 C.2     1  LIG1        0.1940
     16 C           1.4806    1.9753   -2.9328 C.3     1  LIG1        0.1548
     17 C           2.8497    2.4851   -3.3919 C.3     1  LIG1       -0.0259
     18 C           1.1249    0.5845   -3.4456 C.3     1  LIG1        0.1191
     19 H           0.0716    0.3663   -3.2214 H       1  LIG1        0.0678
     20 O           1.2402    0.5295   -4.8710 O.3     1  LIG1       -0.3837
     21 O           0.5009    2.9047   -3.4422 O.3     1  LIG1       -0.3780
     22 O           1.2590    3.0691   -0.8423 O.2     1  LIG1       -0.2892
     23 C           2.0662   -0.3889   -1.3079 C.2     1  LIG1       -0.0064
     24 C           1.9762   -0.4498   -2.7767 C.2     1  LIG1        0.0265
     25 C           2.5952   -1.4592   -3.4109 C.2     1  LIG1        0.0983
     26 O           3.2696   -2.4790   -2.7719 O.2     1  LIG1       -0.4677
     27 C           3.1807   -2.5506   -1.3836 C.2     1  LIG1        0.1023
     28 C           3.7712   -3.7927   -0.7980 C.3     1  LIG1       -0.0064
     29 C           2.6046   -1.5798   -0.6486 C.2     1  LIG1       -0.0159
     30 C          -0.3481   -0.6861    1.7737 C.ar    1  LIG1        0.1382
     31 O           0.5580   -1.7141    1.7173 O.3     1  LIG1       -0.5055
     32 O          -1.3551   -3.2081    2.6104 O.2     1  LIG1       -0.2869
     33 H          -5.9757   -2.3193    3.9874 H       1  LIG1        0.0308
     34 H          -6.3623   -1.0054    2.8650 H       1  LIG1        0.0308
     35 H          -5.8031   -0.6364    4.5095 H       1  LIG1        0.0308
     36 H          -3.8059   -3.3447    3.4759 H       1  LIG1        0.0689
     37 H          -4.1933    2.2558    2.1400 H       1  LIG1        0.0280
     38 H          -3.1525    3.1524    1.0557 H       1  LIG1        0.0280
     39 H          -2.9011    3.2554    2.8228 H       1  LIG1        0.0280
     40 H          -1.0802    3.5799    1.3525 H       1  LIG1        0.2922
     41 H           2.1908    0.1769    1.4140 H       1  LIG1        0.0365
     42 H           1.8437    1.8345    1.2138 H       1  LIG1        0.0365
     43 H           3.6687    1.8417   -3.0562 H       1  LIG1        0.0263
     44 H           3.0380    3.4916   -2.9986 H       1  LIG1        0.0263
     45 H           2.8934    2.5717   -4.4832 H       1  LIG1        0.0263
     46 H           0.7484    1.3108   -5.1918 H       1  LIG1        0.2104
     47 H           0.5430    3.6755   -2.8376 H       1  LIG1        0.2109
     48 H           2.5921   -1.6100   -4.4822 H       1  LIG1        0.1033
     49 H           3.2921   -4.6773   -1.2304 H       1  LIG1        0.0308
     50 H           3.6404   -3.8388    0.2880 H       1  LIG1        0.0308
     51 H           4.8433   -3.8412   -1.0131 H       1  LIG1        0.0308
     52 H           2.5792   -1.6759    0.4284 H       1  LIG1        0.0657
     53 H           0.1123   -2.5457    1.9997 H       1  LIG1        0.2922
@<TRIPOS>BOND
     1     1     2    1
     2     2     3   ar
     3     3     4   ar
     4     4     5   ar
     5     5     6   ar
     6     6     7   ar
     7     2     7   ar
     8     6     8   ar
     9     8     9    1
    10     8    10   ar
    11    10    11    1
    12    10    12   ar
    13    12    13    1
    14    13    14    1
    15    14    15    1
    16    15    16    1
    17    16    18    1
    18    18    19    1
    19    18    20    1
    20    15    22    2
    21    14    23    2
    22    23    24    1
    23    18    24    1
    24    24    25    2
    25    25    26    1
    26    26    27    1
    27    27    28    1
    28    27    29    2
    29    23    29    1
    30    12    30   ar
    31     5    30   ar
    32    30    31    1
    33     4    32    2
    34    16    21    1
    35    16    17    1
    36     1    33    1
    37     1    34    1
    38     1    35    1
    39     3    36    1
    40     9    37    1
    41     9    38    1
    42     9    39    1
    43    11    40    1
    44    13    41    1
    45    13    42    1
    46    17    43    1
    47    17    44    1
    48    17    45    1
    49    20    46    1
    50    21    47    1
    51    25    48    1
    52    28    49    1
    53    28    50    1
    54    28    51    1
    55    29    52    1
    56    31    53    1
