REMARK  Name = NuBBE_1202
REMARK  3 active torsions:
REMARK  status: ('A' for Active; 'I' for Inactive)
REMARK    1  A    between atoms: C_2  and  C_3
REMARK    2  A    between atoms: C_2  and  C_4
REMARK    3  A    between atoms: C_4  and  O_5
REMARK                            x       y       z     vdW  Elec       q    Type
REMARK                         _______ _______ _______ _____ _____    ______ ____
ROOT
ATOM      1  C   LIG A   1       0.587   1.017  -0.412  0.00  0.00    +0.332 C 
ATOM      2  O   LIG A   1       1.802   1.086  -0.469  0.00  0.00    -0.245 OA
ENDROOT
BRANCH   1   4
ATOM      3  C   LIG A   1      -1.525  -0.163   0.096  0.00  0.00    +0.019 C 
ATOM      4  C   LIG A   1      -0.182  -0.157   0.065  0.00  0.00    +0.026 C 
ATOM      5  C   LIG A   1       0.643  -1.327   0.506  0.00  0.00    +0.051 C 
ENDBRANCH   1   4
BRANCH   1   6
ATOM      6  O   LIG A   1      -0.183   2.050  -0.794  0.00  0.00    -0.477 OA
ATOM      7  H   LIG A   1       0.466   2.727  -1.074  0.00  0.00    +0.295 HD
ENDBRANCH   1   6
TORSDOF 2
