@<TRIPOS>MOLECULE
NuBBE_1177
 83 87 0 0 0
SMALL
GASTEIGER

@<TRIPOS>ATOM
      1 C          -2.3828   -0.3472    0.5790 C.3     1  LIG1       -0.0585
      2 C          -1.0128   -0.6165   -0.1274 C.3     1  LIG1       -0.0194
      3 C          -1.2395   -1.8221   -1.0702 C.3     1  LIG1       -0.0463
      4 C          -0.0812   -2.8137   -1.2250 C.3     1  LIG1       -0.0485
      5 H           0.6406   -2.4070   -1.9428 H       1  LIG1        0.0268
      6 H          -0.5277   -3.6668   -1.7363 H       1  LIG1        0.0268
      7 C           0.7237   -3.2540    0.0464 C.3     1  LIG1       -0.0253
      8 C           0.8837   -4.8325    0.1802 C.3     1  LIG1        0.0227
      9 C           2.0932   -5.2075    1.0898 C.3     1  LIG1       -0.0547
     10 C           1.2207   -5.4764   -1.2018 C.3     1  LIG1        0.0523
     11 O           1.3160   -6.8967   -1.0943 O.3     1  LIG1       -0.3944
     12 C          -0.4034   -5.4427    0.7949 C.3     1  LIG1        0.0888
     13 H          -0.2482   -6.4969    1.0589 H       1  LIG1        0.0625
     14 O          -1.4858   -5.4318   -0.1533 O.3     1  LIG1       -0.3886
     15 C          -0.8959   -4.7012    2.0617 C.3     1  LIG1        0.0822
     16 H          -0.2321   -4.9061    2.9055 H       1  LIG1        0.0619
     17 O          -2.1795   -5.2309    2.4239 O.3     1  LIG1       -0.3892
     18 C          -1.0486   -3.1822    1.8694 C.3     1  LIG1       -0.0184
     19 C           0.2295   -2.4929    1.3426 C.3     1  LIG1       -0.0225
     20 C           1.2847   -2.5358    2.4812 C.3     1  LIG1       -0.0589
     21 C           0.0961   -0.9706    0.9169 C.3     1  LIG1       -0.0257
     22 C           0.1224    0.1120    2.0089 C.3     1  LIG1       -0.0306
     23 C           0.2499    1.4833    1.3937 C.2     1  LIG1       -0.0836
     24 C           0.0128    1.7953    0.1012 C.2     1  LIG1       -0.0626
     25 C          -0.5403    0.7353   -0.9006 C.3     1  LIG1       -0.0051
     26 C           0.5720    0.3944   -1.9391 C.3     1  LIG1       -0.0553
     27 C          -1.7293    1.3894   -1.6716 C.3     1  LIG1       -0.0424
     28 C          -1.3966    2.7261   -2.3453 C.3     1  LIG1       -0.0359
     29 C          -0.8045    3.7854   -1.3778 C.3     1  LIG1        0.0743
     30 C          -1.9802    4.3667   -0.5879 C.2     1  LIG1        0.3115
     31 O          -2.3090    3.6884    0.5230 O.3     1  LIG1       -0.4802
     32 O          -2.6590    5.3295   -0.9140 O.2     1  LIG1       -0.2504
     33 C           0.3377    3.1733   -0.5106 C.3     1  LIG1       -0.0008
     34 C           1.1038    4.2374    0.3523 C.3     1  LIG1       -0.0337
     35 H           1.9590    3.7220    0.8132 H       1  LIG1        0.0307
     36 C           0.3138    4.8809    1.5014 C.3     1  LIG1       -0.0616
     37 C           1.6987    5.3062   -0.6085 C.3     1  LIG1       -0.0407
     38 H           2.3867    4.7847   -1.2896 H       1  LIG1        0.0301
     39 C           2.5354    6.3667    0.1097 C.3     1  LIG1       -0.0622
     40 C           0.6098    5.9604   -1.4693 C.3     1  LIG1       -0.0492
     41 C          -0.2009    4.9253   -2.2521 C.3     1  LIG1       -0.0364
     42 H          -2.6168   -1.0903    1.3430 H       1  LIG1        0.0235
     43 H          -3.2093   -0.3722   -0.1410 H       1  LIG1        0.0235
     44 H          -2.4196    0.6265    1.0778 H       1  LIG1        0.0235
     45 H          -1.5489   -1.4821   -2.0652 H       1  LIG1        0.0271
     46 H          -2.1056   -2.4033   -0.7316 H       1  LIG1        0.0271
     47 H           1.7443   -2.8870   -0.1473 H       1  LIG1        0.0313
     48 H           2.5129   -6.1880    0.8394 H       1  LIG1        0.0237
     49 H           1.8301   -5.2963    2.1441 H       1  LIG1        0.0237
     50 H           2.9111   -4.4864    0.9850 H       1  LIG1        0.0237
     51 H           0.4715   -5.2974   -1.9719 H       1  LIG1        0.0563
     52 H           2.1787   -5.0912   -1.5714 H       1  LIG1        0.0563
     53 H           1.7576   -7.2126   -1.9031 H       1  LIG1        0.2094
     54 H          -1.3129   -6.1787   -0.7580 H       1  LIG1        0.2099
     55 H          -2.6531   -5.3271    1.5721 H       1  LIG1        0.2099
     56 H          -1.3630   -2.7287    2.8185 H       1  LIG1        0.0296
     57 H          -1.8976   -3.0398    1.2016 H       1  LIG1        0.0296
     58 H           0.9420   -1.9731    3.3567 H       1  LIG1        0.0235
     59 H           2.2418   -2.1159    2.1535 H       1  LIG1        0.0235
     60 H           1.4771   -3.5269    2.8779 H       1  LIG1        0.0235
     61 H           1.0587   -0.8097    0.4083 H       1  LIG1        0.0315
     62 H           1.0067   -0.0049    2.6432 H       1  LIG1        0.0310
     63 H          -0.7504    0.0622    2.6678 H       1  LIG1        0.0310
     64 H           0.6439    2.2231    2.0818 H       1  LIG1        0.0572
     65 H           1.4434   -0.0800   -1.4803 H       1  LIG1        0.0238
     66 H           0.9534    1.2703   -2.4698 H       1  LIG1        0.0238
     67 H           0.1963   -0.2697   -2.7235 H       1  LIG1        0.0238
     68 H          -2.5762    1.5772   -1.0043 H       1  LIG1        0.0274
     69 H          -2.1015    0.7014   -2.4403 H       1  LIG1        0.0274
     70 H          -2.3130    3.1140   -2.8109 H       1  LIG1        0.0276
     71 H          -0.7050    2.5407   -3.1755 H       1  LIG1        0.0276
     72 H          -3.0750    4.1774    0.8872 H       1  LIG1        0.2951
     73 H           1.1159    2.9019   -1.2402 H       1  LIG1        0.0359
     74 H           1.0009    5.3741    2.1983 H       1  LIG1        0.0233
     75 H          -0.2502    4.1543    2.0884 H       1  LIG1        0.0233
     76 H          -0.3886    5.6432    1.1568 H       1  LIG1        0.0233
     77 H           1.9207    7.0240    0.7294 H       1  LIG1        0.0233
     78 H           3.0601    6.9942   -0.6195 H       1  LIG1        0.0233
     79 H           3.2931    5.8961    0.7462 H       1  LIG1        0.0233
     80 H           1.0757    6.6505   -2.1842 H       1  LIG1        0.0268
     81 H          -0.0601    6.5695   -0.8527 H       1  LIG1        0.0268
     82 H           0.4655    4.4860   -3.0073 H       1  LIG1        0.0276
     83 H          -0.9878    5.4433   -2.8154 H       1  LIG1        0.0276
@<TRIPOS>BOND
     1     2     3    1
     2     3     4    1
     3     4     7    1
     4     7     8    1
     5    10    11    1
     6     8    12    1
     7    12    15    1
     8    15    18    1
     9    18    19    1
    10     7    19    1
    11    19    21    1
    12     2    21    1
    13    21    22    1
    14    22    23    1
    15    23    24    2
    16    24    25    1
    17     2    25    1
    18    25    27    1
    19    27    28    1
    20    28    29    1
    21    30    31    1
    22    30    32    2
    23    29    33    1
    24    24    33    1
    25    33    34    1
    26    34    37    1
    27    37    40    1
    28    40    41    1
    29    29    41    1
    30     1     2    1
    31     4     5    1
    32     4     6    1
    33     8     9    1
    34     8    10    1
    35    12    13    1
    36    12    14    1
    37    19    20    1
    38    25    26    1
    39    29    30    1
    40    34    35    1
    41    34    36    1
    42    37    38    1
    43    37    39    1
    44    15    17    1
    45    15    16    1
    46     1    42    1
    47     1    43    1
    48     1    44    1
    49     3    45    1
    50     3    46    1
    51     7    47    1
    52     9    48    1
    53     9    49    1
    54     9    50    1
    55    10    51    1
    56    10    52    1
    57    11    53    1
    58    14    54    1
    59    17    55    1
    60    18    56    1
    61    18    57    1
    62    20    58    1
    63    20    59    1
    64    20    60    1
    65    21    61    1
    66    22    62    1
    67    22    63    1
    68    23    64    1
    69    26    65    1
    70    26    66    1
    71    26    67    1
    72    27    68    1
    73    27    69    1
    74    28    70    1
    75    28    71    1
    76    31    72    1
    77    33    73    1
    78    36    74    1
    79    36    75    1
    80    36    76    1
    81    39    77    1
    82    39    78    1
    83    39    79    1
    84    40    80    1
    85    40    81    1
    86    41    82    1
    87    41    83    1
