REMARK  Name = NuBBE_1851
REMARK  7 active torsions:
REMARK  status: ('A' for Active; 'I' for Inactive)
REMARK    1  A    between atoms: C_2  and  C_3
REMARK    2  A    between atoms: C_3  and  C_4
REMARK    3  A    between atoms: C_7  and  C_9
REMARK    4  A    between atoms: C_10  and  C_12
REMARK    5  A    between atoms: C_23  and  O_24
REMARK    6  A    between atoms: O_24  and  C_25
REMARK    7  A    between atoms: C_26  and  O_27
REMARK                            x       y       z     vdW  Elec       q    Type
REMARK                         _______ _______ _______ _____ _____    ______ ____
ROOT
ATOM      1  C   LIG A   1      -1.496   1.737  -0.644  0.00  0.00    +0.043 A 
ATOM      2  C   LIG A   1      -0.602   0.676  -0.556  0.00  0.00    +0.132 A 
ATOM      3  C   LIG A   1       0.694   0.741  -1.058  0.00  0.00    +0.005 A 
ATOM      4  C   LIG A   1       1.413  -0.531  -0.758  0.00  0.00    +0.065 C 
ATOM      5  C   LIG A   1       2.137  -1.137  -1.955  0.00  0.00    +0.016 C 
ATOM      6  C   LIG A   1       0.221  -1.397  -0.285  0.00  0.00    +0.211 C 
ATOM      7  O   LIG A   1      -0.892  -0.522   0.047  0.00  0.00    -0.483 OA
ATOM      8  C   LIG A   1       1.164   1.890  -1.679  0.00  0.00    +0.057 A 
ATOM      9  C   LIG A   1       0.298   2.979  -1.789  0.00  0.00    +0.162 A 
ATOM     10  C   LIG A   1      -1.019   2.886  -1.284  0.00  0.00    +0.166 A 
ENDROOT
BRANCH   6  11
ATOM     11  C   LIG A   1       0.558  -2.272   0.911  0.00  0.00    -0.003 A 
ATOM     12  C   LIG A   1       0.394  -1.792   2.224  0.00  0.00    +0.056 A 
ATOM     13  C   LIG A   1       0.691  -2.635   3.274  0.00  0.00    +0.167 A 
ATOM     14  C   LIG A   1       1.151  -3.913   3.070  0.00  0.00    +0.166 A 
ATOM     15  O   LIG A   1       1.375  -4.576   4.236  0.00  0.00    -0.453 OA
ATOM     16  C   LIG A   1       0.992  -3.570   5.197  0.00  0.00    +0.466 C 
ATOM     17  O   LIG A   1       0.567  -2.332   4.593  0.00  0.00    -0.453 OA
ATOM     18  C   LIG A   1       1.344  -4.418   1.802  0.00  0.00    +0.050 A 
ATOM     19  C   LIG A   1       1.045  -3.587   0.715  0.00  0.00    +0.011 A 
ENDBRANCH   6  11
BRANCH   9  20
ATOM     20  O   LIG A   1       0.604   4.174  -2.395  0.00  0.00    -0.491 OA
ATOM     21  C   LIG A   1       1.979   4.545  -2.363  0.00  0.00    +0.277 C 
ENDBRANCH   9  20
BRANCH  10  22
ATOM     22  O   LIG A   1      -1.844   3.978  -1.407  0.00  0.00    -0.503 OA
ATOM     23  H   LIG A   1      -1.321   4.636  -1.904  0.00  0.00    +0.292 HD
ENDBRANCH  10  22
BRANCH   1  24
ATOM     24  C   LIG A   1      -2.897   1.645  -0.096  0.00  0.00    +0.069 C 
BRANCH  24  26
ATOM     25  C   LIG A   1      -4.997   1.762  -1.495  0.00  0.00    +0.004 C 
ATOM     26  C   LIG A   1      -3.899   1.111  -1.089  0.00  0.00    -0.030 C 
ENDBRANCH  24  26
ENDBRANCH   1  24
TORSDOF 5
