REMARK  Name = NuBBE_2259
REMARK  7 active torsions:
REMARK  status: ('A' for Active; 'I' for Inactive)
REMARK    1  A    between atoms: C_1  and  C_2
REMARK    2  A    between atoms: C_7  and  O_16
REMARK    3  A    between atoms: C_9  and  C_12
REMARK    4  A    between atoms: C_12  and  C_13
REMARK    5  A    between atoms: C_12  and  C_14
REMARK    6  A    between atoms: C_12  and  O_15
REMARK    7  A    between atoms: C_17  and  C_20
REMARK                            x       y       z     vdW  Elec       q    Type
REMARK                         _______ _______ _______ _____ _____    ______ ____
ROOT
ATOM      1  C   LIG A   1      -2.399  -2.568   0.020  0.00  0.00    +0.044 C 
ATOM      2  C   LIG A   1      -0.894  -2.502  -0.014  0.00  0.00    -0.047 A 
ATOM      3  C   LIG A   1      -0.193  -1.274  -0.106  0.00  0.00    -0.033 A 
ATOM      4  C   LIG A   1       1.218  -1.280  -0.175  0.00  0.00    +0.026 A 
ATOM      5  C   LIG A   1       1.933   0.022  -0.343  0.00  0.00    +0.192 C 
ATOM      6  O   LIG A   1       3.164   0.092  -0.374  0.00  0.00    -0.289 OA
ATOM      7  C   LIG A   1       1.118   1.302  -0.521  0.00  0.00    +0.191 C 
ATOM      8  C   LIG A   1      -0.206   1.279   0.243  0.00  0.00    +0.061 C 
ATOM      9  C   LIG A   1      -0.975   0.019  -0.195  0.00  0.00    +0.045 C 
ATOM     10  C   LIG A   1       1.929  -2.502  -0.093  0.00  0.00    -0.040 A 
ATOM     11  C   LIG A   1       1.212  -3.700   0.037  0.00  0.00    +0.004 A 
ATOM     12  C   LIG A   1      -0.178  -3.700   0.073  0.00  0.00    +0.004 A 
ATOM     13  C   LIG A   1       3.432  -2.595  -0.143  0.00  0.00    +0.044 C 
ENDROOT
BRANCH   8  14
ATOM     14  C   LIG A   1      -1.080   2.565   0.036  0.00  0.00    +0.066 C 
ATOM     15  C   LIG A   1      -2.384   2.497   0.852  0.00  0.00    +0.041 C 
ATOM     16  C   LIG A   1      -0.364   3.872   0.405  0.00  0.00    +0.041 C 
BRANCH  14  17
ATOM     17  O   LIG A   1      -1.452   2.642  -1.346  0.00  0.00    -0.389 OA
ATOM     18  H   LIG A   1      -1.896   3.497  -1.489  0.00  0.00    +0.210 HD
ENDBRANCH  14  17
ENDBRANCH   8  14
BRANCH   7  19
ATOM     19  O   LIG A   1       1.962   2.353  -0.029  0.00  0.00    -0.384 OA
ATOM     20  H   LIG A   1       2.874   2.101  -0.284  0.00  0.00    +0.210 HD
ENDBRANCH   7  19
TORSDOF 3
