REMARK  Name = NuBBE_2012
REMARK  7 active torsions:
REMARK  status: ('A' for Active; 'I' for Inactive)
REMARK    1  A    between atoms: C_1  and  O_2
REMARK    2  A    between atoms: C_1  and  C_4
REMARK    3  A    between atoms: O_2  and  C_3
REMARK    4  A    between atoms: C_9  and  C_10
REMARK    5  A    between atoms: C_9  and  C_11
REMARK    6  A    between atoms: C_12  and  O_15
REMARK    7  A    between atoms: C_16  and  C_19
REMARK                            x       y       z     vdW  Elec       q    Type
REMARK                         _______ _______ _______ _____ _____    ______ ____
ROOT
ATOM      1  C   LIG A   1      -1.145  -1.797   0.414  0.00  0.00    -0.011 A 
ATOM      2  C   LIG A   1      -0.429  -0.576   0.376  0.00  0.00    +0.029 A 
ATOM      3  C   LIG A   1       0.992  -0.559   0.408  0.00  0.00    -0.029 A 
ATOM      4  C   LIG A   1       1.780   0.745   0.328  0.00  0.00    +0.069 C 
ATOM      5  C   LIG A   1       0.949   1.959  -0.049  0.00  0.00    -0.031 C 
ATOM      6  C   LIG A   1       1.334   2.865  -0.986  0.00  0.00    -0.073 C 
ATOM      7  C   LIG A   1       2.692   2.866  -1.651  0.00  0.00    +0.038 C 
ATOM      8  C   LIG A   1       0.460   3.993  -1.481  0.00  0.00    +0.038 C 
ATOM      9  C   LIG A   1      -0.327   1.958   0.768  0.00  0.00    +0.212 C 
ATOM     10  C   LIG A   1      -1.140   0.738   0.334  0.00  0.00    +0.196 C 
ATOM     11  O   LIG A   1      -2.324   0.847   0.012  0.00  0.00    -0.289 OA
ATOM     12  C   LIG A   1       1.695  -1.780   0.529  0.00  0.00    -0.046 A 
ATOM     13  C   LIG A   1       0.982  -2.982   0.567  0.00  0.00    +0.004 A 
ATOM     14  C   LIG A   1      -0.410  -2.988   0.508  0.00  0.00    +0.007 A 
ATOM     15  C   LIG A   1       3.200  -1.843   0.570  0.00  0.00    +0.044 C 
ENDROOT
BRANCH   9  16
ATOM     16  O   LIG A   1      -1.076   3.154   0.668  0.00  0.00    -0.380 OA
ATOM     17  H   LIG A   1      -1.949   2.889   0.313  0.00  0.00    +0.211 HD
ENDBRANCH   9  16
BRANCH   1  18
ATOM     18  C   LIG A   1      -2.662  -1.848   0.366  0.00  0.00    +0.195 C 
BRANCH  18  19
ATOM     19  O   LIG A   1      -3.141  -3.196   0.464  0.00  0.00    -0.378 OA
ATOM     20  C   LIG A   1      -4.559  -3.257   0.413  0.00  0.00    +0.194 C 
ENDBRANCH  18  19
ENDBRANCH   1  18
TORSDOF 3
