@<TRIPOS>MOLECULE
NuBBE_1507
 57 61 0 0 0
SMALL
GASTEIGER

@<TRIPOS>ATOM
      1 O          -3.6628    0.7002   -4.1948 O.3     1  LIG1       -0.3626
      2 C          -2.6024    0.0498   -3.5192 C.3     1  LIG1        0.1942
      3 C          -2.3263    0.6388   -2.1443 C.3     1  LIG1        0.0120
      4 C          -0.9010    0.1106   -1.9234 C.3     1  LIG1        0.0052
      5 C          -0.3332    0.4651   -3.3120 C.3     1  LIG1        0.0573
      6 O          -1.3881    0.2345   -4.2581 O.3     1  LIG1       -0.3459
      7 C          -0.1726    0.8505   -0.7747 C.3     1  LIG1       -0.0297
      8 H          -0.3452    1.9277   -0.9237 H       1  LIG1        0.0310
      9 C          -0.7859    0.4927    0.5966 C.3     1  LIG1       -0.0339
     10 H          -1.7979    0.9285    0.5929 H       1  LIG1        0.0307
     11 C          -0.0793    1.2573    1.7637 C.3     1  LIG1       -0.0252
     12 H          -0.4593    2.2877    1.7113 H       1  LIG1        0.0313
     13 C           1.4750    1.3002    1.7181 C.3     1  LIG1       -0.0191
     14 C           2.0204    1.5099    0.2944 C.3     1  LIG1       -0.0464
     15 C           1.3539    0.6692   -0.7853 C.3     1  LIG1       -0.0488
     16 C           1.9976    2.4883    2.5732 C.3     1  LIG1       -0.0586
     17 C           1.8730   -0.0654    2.3493 C.3     1  LIG1        0.0229
     18 H           1.7116   -0.8713    1.6257 H       1  LIG1        0.0383
     19 C           0.7940   -0.2023    3.4204 C.2     1  LIG1        0.1372
     20 O           0.8549   -0.9601    4.3800 O.2     1  LIG1       -0.2971
     21 C          -0.3926    0.7014    3.1605 C.3     1  LIG1        0.0097
     22 C           3.2956   -0.1514    2.9079 C.3     1  LIG1       -0.0459
     23 C           3.7468   -1.5913    3.1253 C.3     1  LIG1       -0.0646
     24 C          -1.0503   -1.0224    0.7744 C.3     1  LIG1       -0.0494
     25 C          -0.5486   -1.9249   -0.3461 C.3     1  LIG1       -0.0493
     26 C          -0.9187   -1.4498   -1.7591 C.3     1  LIG1       -0.0303
     27 H          -0.1586   -1.8808   -2.4258 H       1  LIG1        0.0308
     28 C          -2.2627   -2.0895   -2.1748 C.3     1  LIG1       -0.0184
     29 C          -2.8954   -1.4674   -3.4224 C.3     1  LIG1        0.1090
     30 H          -2.5222   -1.9756   -4.3193 H       1  LIG1        0.0647
     31 O          -4.3088   -1.7062   -3.3572 O.3     1  LIG1       -0.3865
     32 H          -3.3803    1.6261   -4.2785 H       1  LIG1        0.2128
     33 H          -3.0571    0.3386   -1.3867 H       1  LIG1        0.0324
     34 H          -2.3435    1.7361   -2.1847 H       1  LIG1        0.0324
     35 H           0.5423   -0.1259   -3.5979 H       1  LIG1        0.0567
     36 H          -0.0635    1.5256   -3.3827 H       1  LIG1        0.0567
     37 H           3.1014    1.3265    0.2711 H       1  LIG1        0.0271
     38 H           1.8905    2.5643    0.0127 H       1  LIG1        0.0271
     39 H           1.6547   -0.3726   -0.6704 H       1  LIG1        0.0268
     40 H           1.7608    0.9896   -1.7516 H       1  LIG1        0.0268
     41 H           1.5649    3.4350    2.2294 H       1  LIG1        0.0235
     42 H           3.0865    2.5845    2.4962 H       1  LIG1        0.0235
     43 H           1.7536    2.3852    3.6352 H       1  LIG1        0.0235
     44 H          -0.3930    1.4962    3.9124 H       1  LIG1        0.0345
     45 H          -1.3367    0.1555    3.2121 H       1  LIG1        0.0345
     46 H           4.0007    0.3140    2.2103 H       1  LIG1        0.0269
     47 H           3.3736    0.3849    3.8608 H       1  LIG1        0.0269
     48 H           3.7165   -2.1562    2.1880 H       1  LIG1        0.0230
     49 H           3.1188   -2.1067    3.8571 H       1  LIG1        0.0230
     50 H           4.7766   -1.6098    3.4962 H       1  LIG1        0.0230
     51 H          -2.1369   -1.1630    0.8573 H       1  LIG1        0.0268
     52 H          -0.6495   -1.4157    1.7096 H       1  LIG1        0.0268
     53 H          -0.9230   -2.9434   -0.1784 H       1  LIG1        0.0268
     54 H           0.5384   -2.0234   -0.2659 H       1  LIG1        0.0268
     55 H          -2.9754   -2.0212   -1.3409 H       1  LIG1        0.0295
     56 H          -2.1308   -3.1673   -2.3373 H       1  LIG1        0.0295
     57 H          -4.7004   -1.0110   -3.9269 H       1  LIG1        0.2100
@<TRIPOS>BOND
     1     2     3    1
     2     3     4    1
     3     4     5    1
     4     5     6    1
     5     2     6    1
     6     4     7    1
     7     7     9    1
     8     9    11    1
     9    11    13    1
    10    13    14    1
    11    14    15    1
    12     7    15    1
    13    13    17    1
    14    17    19    1
    15    19    21    1
    16    11    21    1
    17    22    23    1
    18     9    24    1
    19    24    25    1
    20    25    26    1
    21     4    26    1
    22    26    28    1
    23    28    29    1
    24     2    29    1
    25     1     2    1
    26     7     8    1
    27     9    10    1
    28    11    12    1
    29    13    16    1
    30    19    20    2
    31    26    27    1
    32    29    30    1
    33    29    31    1
    34    17    22    1
    35    17    18    1
    36     1    32    1
    37     3    33    1
    38     3    34    1
    39     5    35    1
    40     5    36    1
    41    14    37    1
    42    14    38    1
    43    15    39    1
    44    15    40    1
    45    16    41    1
    46    16    42    1
    47    16    43    1
    48    21    44    1
    49    21    45    1
    50    22    46    1
    51    22    47    1
    52    23    48    1
    53    23    49    1
    54    23    50    1
    55    24    51    1
    56    24    52    1
    57    25    53    1
    58    25    54    1
    59    28    55    1
    60    28    56    1
    61    31    57    1
