@<TRIPOS>MOLECULE
NuBBE_199
 61 66 0 0 0
SMALL
GASTEIGER

@<TRIPOS>ATOM
      1 O          -2.8556   -2.5205   -4.0752 O.3     1  LIG1       -0.5065
      2 C          -1.7826   -2.9918   -3.3781 C.ar    1  LIG1        0.1239
      3 C          -1.4118   -4.3309   -3.4419 C.ar    1  LIG1        0.0223
      4 C          -0.2967   -4.7644   -2.7178 C.ar    1  LIG1        0.1347
      5 O           0.0721   -6.0761   -2.7980 O.3     1  LIG1       -0.5058
      6 C           0.4354   -3.8663   -1.9374 C.ar    1  LIG1        0.1055
      7 C           1.6141   -4.2659   -1.1520 C.ar    1  LIG1        0.1966
      8 C           2.3118   -3.1815   -0.4357 C.ar    1  LIG1        0.0288
      9 C           1.8614   -1.9211   -0.4710 C.ar    1  LIG1        0.1392
     10 C           2.5613   -0.8055    0.2331 C.ar    1  LIG1        0.0182
     11 C           2.0867    0.5353    0.1935 C.ar    1  LIG1       -0.0396
     12 C           2.7112    1.6247    0.8712 C.ar    1  LIG1        0.0313
     13 C           2.1112    3.0337    0.8311 C.ar    1  LIG1        0.0702
     14 C           2.9109    4.2092    0.8262 C.ar    1  LIG1        0.1317
     15 O           4.2846    4.1374    0.8753 O.3     1  LIG1       -0.5059
     16 C           2.3841    5.5067    0.7813 C.ar    1  LIG1        0.0229
     17 C           1.0148    5.6967    0.7386 C.ar    1  LIG1        0.1347
     18 O           0.5345    6.9723    0.6903 O.3     1  LIG1       -0.5058
     19 C           0.1619    4.5932    0.7522 C.ar    1  LIG1        0.1061
     20 C           0.6977    3.2829    0.8005 C.ar    1  LIG1        0.1541
     21 O          -0.1542    2.1938    0.8493 O.2     1  LIG1       -0.4537
     22 C          -1.5294    2.3682    0.7736 C.ar    1  LIG1        0.1393
     23 C          -2.3134    1.1123    0.8085 C.ar    1  LIG1        0.0176
     24 C          -1.7765   -0.0070    1.4559 C.ar    1  LIG1       -0.0476
     25 C          -2.4727   -1.2165    1.5108 C.ar    1  LIG1       -0.0193
     26 C          -3.7263   -1.3383    0.9159 C.ar    1  LIG1        0.1201
     27 O          -4.4899   -2.4736    0.9041 O.3     1  LIG1       -0.4951
     28 C          -3.9062   -3.6180    1.5189 C.3     1  LIG1        0.0788
     29 C          -4.2767   -0.2345    0.2657 C.ar    1  LIG1       -0.0193
     30 C          -3.5761    0.9781    0.2056 C.ar    1  LIG1       -0.0476
     31 C          -2.1260    3.5607    0.7257 C.ar    1  LIG1        0.0288
     32 C          -1.3102    4.7776    0.7200 C.ar    1  LIG1        0.1966
     33 O          -1.8831    5.8576    0.6849 O.2     1  LIG1       -0.2869
     34 C           3.8925    1.2691    1.5669 C.ar    1  LIG1        0.1248
     35 O           4.6659    2.1332    2.2918 O.3     1  LIG1       -0.5062
     36 C           4.4000   -0.0283    1.5979 C.ar    1  LIG1       -0.0189
     37 C           3.7340   -1.0543    0.9534 C.ar    1  LIG1       -0.0476
     38 O           0.7125   -1.5564   -1.1597 O.2     1  LIG1       -0.4544
     39 O           2.0404   -5.3988   -1.0606 O.2     1  LIG1       -0.2869
     40 C           0.0461   -2.5175   -1.8865 C.ar    1  LIG1        0.1462
     41 C          -1.0655   -2.0816   -2.6087 C.ar    1  LIG1        0.0231
     42 H          -3.2592   -3.2473   -4.5775 H       1  LIG1        0.2921
     43 H          -1.9750   -5.0306   -4.0492 H       1  LIG1        0.0691
     44 H          -0.5388   -6.5772   -3.3590 H       1  LIG1        0.2922
     45 H           3.1936   -3.5241    0.0865 H       1  LIG1        0.0693
     46 H           1.1919    0.7282   -0.3959 H       1  LIG1        0.0632
     47 H           4.6438    5.0108    1.1249 H       1  LIG1        0.2922
     48 H           3.0466    6.3669    0.7743 H       1  LIG1        0.0691
     49 H           1.2514    7.6214    0.6230 H       1  LIG1        0.2922
     50 H          -0.8016    0.0455    1.9362 H       1  LIG1        0.0626
     51 H          -1.9979   -2.0422    2.0283 H       1  LIG1        0.0654
     52 H          -4.6088   -4.4510    1.4301 H       1  LIG1        0.0660
     53 H          -3.7315   -3.4424    2.5862 H       1  LIG1        0.0660
     54 H          -2.9797   -3.9062    1.0096 H       1  LIG1        0.0660
     55 H          -5.2531   -0.3181   -0.2073 H       1  LIG1        0.0654
     56 H          -4.0367    1.8039   -0.3323 H       1  LIG1        0.0626
     57 H          -3.1980    3.7136    0.7085 H       1  LIG1        0.0693
     58 H           4.6261    2.9748    1.8047 H       1  LIG1        0.2922
     59 H           5.3259   -0.2401    2.1278 H       1  LIG1        0.0654
     60 H           4.1763   -2.0407    1.0391 H       1  LIG1        0.0626
     61 H          -1.3675   -1.0389   -2.5775 H       1  LIG1        0.0691
@<TRIPOS>BOND
     1     1     2    1
     2     2     3   ar
     3     3     4   ar
     4     4     5    1
     5     4     6   ar
     6     6     7   ar
     7     7     8   ar
     8     8     9   ar
     9     9    10    1
    10    10    11   ar
    11    11    12   ar
    12    12    13    1
    13    13    14   ar
    14    14    15    1
    15    14    16   ar
    16    16    17   ar
    17    17    18    1
    18    17    19   ar
    19    19    20   ar
    20    13    20   ar
    21    20    21   ar
    22    21    22   ar
    23    22    23    1
    24    23    24   ar
    25    24    25   ar
    26    25    26   ar
    27    26    27    1
    28    27    28    1
    29    26    29   ar
    30    29    30   ar
    31    23    30   ar
    32    22    31   ar
    33    31    32   ar
    34    19    32   ar
    35    32    33    2
    36    12    34   ar
    37    34    35    1
    38    34    36   ar
    39    36    37   ar
    40    10    37   ar
    41     9    38   ar
    42     7    39    2
    43     6    40   ar
    44    38    40   ar
    45    40    41   ar
    46     2    41   ar
    47     1    42    1
    48     3    43    1
    49     5    44    1
    50     8    45    1
    51    11    46    1
    52    15    47    1
    53    16    48    1
    54    18    49    1
    55    24    50    1
    56    25    51    1
    57    28    52    1
    58    28    53    1
    59    28    54    1
    60    29    55    1
    61    30    56    1
    62    31    57    1
    63    35    58    1
    64    36    59    1
    65    37    60    1
    66    41    61    1
