REMARK  Name = NuBBE_1094
REMARK  4 active torsions:
REMARK  status: ('A' for Active; 'I' for Inactive)
REMARK    1  A    between atoms: C_4  and  O_5
REMARK    2  A    between atoms: C_7  and  O_8
REMARK    3  A    between atoms: O_8  and  C_9
REMARK    4  A    between atoms: N_12  and  C_13
REMARK                            x       y       z     vdW  Elec       q    Type
REMARK                         _______ _______ _______ _____ _____    ______ ____
ROOT
ATOM      1  O   LIG A   1      -3.205  -0.686   0.441  0.00  0.00    -0.286 OA
ATOM      2  C   LIG A   1      -1.986  -0.696   0.278  0.00  0.00    +0.201 A 
ATOM      3  C   LIG A   1      -1.253   0.580   0.139  0.00  0.00    +0.087 A 
ATOM      4  C   LIG A   1      -1.956   1.792   0.086  0.00  0.00    +0.133 A 
ATOM      5  C   LIG A   1      -1.275   2.990  -0.082  0.00  0.00    +0.091 A 
ATOM      6  C   LIG A   1       0.112   2.992  -0.207  0.00  0.00    +0.126 A 
ATOM      7  C   LIG A   1       0.813   1.780  -0.149  0.00  0.00    +0.072 A 
ATOM      8  C   LIG A   1       0.152   0.549   0.047  0.00  0.00    +0.060 A 
ATOM      9  N   LIG A   1       0.832  -0.691   0.131  0.00  0.00    -0.343 N 
ATOM     10  C   LIG A   1       2.286  -0.688   0.309  0.00  0.00    +0.149 C 
ATOM     11  C   LIG A   1       0.160  -1.933   0.090  0.00  0.00    +0.053 A 
ATOM     12  C   LIG A   1      -1.243  -1.968   0.179  0.00  0.00    +0.046 A 
ATOM     13  C   LIG A   1      -1.959  -3.175   0.164  0.00  0.00    +0.014 A 
ATOM     14  C   LIG A   1      -1.280  -4.381   0.039  0.00  0.00    +0.001 A 
ATOM     15  C   LIG A   1       0.105  -4.377  -0.080  0.00  0.00    +0.002 A 
ATOM     16  C   LIG A   1       0.814  -3.168  -0.059  0.00  0.00    +0.026 A 
ENDROOT
BRANCH   4  17
ATOM     17  O   LIG A   1      -3.320   1.874   0.186  0.00  0.00    -0.506 OA
ATOM     18  H   LIG A   1      -3.663   0.961   0.319  0.00  0.00    +0.292 HD
ENDBRANCH   4  17
BRANCH   6  19
ATOM     19  O   LIG A   1       0.663   4.232  -0.387  0.00  0.00    -0.495 OA
ATOM     20  C   LIG A   1       2.079   4.310  -0.488  0.00  0.00    +0.277 C 
ENDBRANCH   6  19
TORSDOF 2
