@<TRIPOS>MOLECULE
NuBBE_9
 49 52 0 0 0
SMALL
GASTEIGER

@<TRIPOS>ATOM
      1 O          -0.8967   -1.2470   -2.2015 O.2     1  LIG1       -0.2830
      2 C           0.0421   -1.1835   -1.4168 C.ar    1  LIG1        0.2382
      3 C           0.7349   -2.4083   -1.0343 C.ar    1  LIG1        0.1092
      4 C           0.1417   -3.6645   -1.1998 C.ar    1  LIG1        0.1348
      5 C           0.8362   -4.8126   -0.8439 C.ar    1  LIG1        0.0223
      6 C           2.1324   -4.6875   -0.3502 C.ar    1  LIG1        0.1239
      7 C           2.7239   -3.4355   -0.1693 C.ar    1  LIG1        0.0231
      8 C           2.0067   -2.2857   -0.4940 C.ar    1  LIG1        0.1465
      9 O           2.5894   -1.0618   -0.2745 O.2     1  LIG1       -0.4507
     10 C           1.7705    0.0730   -0.2805 C.ar    1  LIG1        0.1810
     11 C           2.4320    1.2728    0.3147 C.ar    1  LIG1        0.0247
     12 C           2.1615    2.5763   -0.1458 C.ar    1  LIG1       -0.0057
     13 C           2.7895    3.6777    0.4315 C.ar    1  LIG1        0.1589
     14 O           2.5139    4.9562    0.0287 O.3     1  LIG1       -0.5033
     15 C           3.7230    3.5052    1.4447 C.ar    1  LIG1        0.1583
     16 C           4.0369    2.2359    1.8997 C.ar    1  LIG1       -0.0159
     17 C           3.3918    1.1251    1.3378 C.ar    1  LIG1       -0.0473
     18 O           4.3378    4.5908    1.9980 O.3     1  LIG1       -0.5033
     19 C           0.5075    0.0747   -0.7650 C.ar    1  LIG1        0.2138
     20 O          -0.3258    1.1787   -0.6654 O.3     1  LIG1       -0.4532
     21 C          -1.7443    0.9493   -0.5711 C.3     1  LIG1        0.2308
     22 H          -2.0776    0.4982   -1.5079 H       1  LIG1        0.1084
     23 O          -2.3937    2.2253   -0.4899 O.3     1  LIG1       -0.3369
     24 C          -3.8183    2.1174   -0.6327 C.3     1  LIG1        0.0802
     25 C          -4.4136    0.8409   -0.0105 C.3     1  LIG1        0.1070
     26 H          -5.4491    1.0237    0.2948 H       1  LIG1        0.0643
     27 C          -3.5559    0.3886    1.1726 C.3     1  LIG1        0.1148
     28 H          -3.9852   -0.5297    1.5930 H       1  LIG1        0.0648
     29 O          -3.5848    1.3759    2.2035 O.3     1  LIG1       -0.3864
     30 O          -4.4318   -0.2237   -0.9789 O.3     1  LIG1       -0.3869
     31 C          -2.1204    0.1032    0.6874 C.3     1  LIG1        0.1454
     32 H          -1.4044    0.3054    1.4916 H       1  LIG1        0.0683
     33 O          -2.0269   -1.3073    0.4134 O.3     1  LIG1       -0.3829
     34 O           2.8661   -5.7916   -0.0288 O.3     1  LIG1       -0.5065
     35 O          -1.1238   -3.8321   -1.6947 O.3     1  LIG1       -0.5058
     36 H           0.3590   -5.7798   -0.9644 H       1  LIG1        0.0691
     37 H           3.7327   -3.3656    0.2265 H       1  LIG1        0.0691
     38 H           1.4621    2.7365   -0.9603 H       1  LIG1        0.0662
     39 H           1.7814    4.9172   -0.6116 H       1  LIG1        0.2923
     40 H           4.7747    2.1091    2.6865 H       1  LIG1        0.0655
     41 H           3.6509    0.1379    1.7159 H       1  LIG1        0.0626
     42 H           3.9573    5.3562    1.5217 H       1  LIG1        0.2923
     43 H          -4.0538    2.1783   -1.7008 H       1  LIG1        0.0588
     44 H          -4.2430    2.9994   -0.1428 H       1  LIG1        0.0588
     45 H          -2.9699    1.0858    2.9016 H       1  LIG1        0.2100
     46 H          -5.0650    0.0272   -1.6773 H       1  LIG1        0.2100
     47 H          -2.6792   -1.4876   -0.2979 H       1  LIG1        0.2102
     48 H           2.3486   -6.5844   -0.2526 H       1  LIG1        0.2921
     49 H          -1.4413   -2.9540   -2.0006 H       1  LIG1        0.2922
@<TRIPOS>BOND
     1     1     2    2
     2     2     3   ar
     3     3     4   ar
     4     4     5   ar
     5     5     6   ar
     6     6     7   ar
     7     7     8   ar
     8     3     8   ar
     9     8     9   ar
    10     9    10   ar
    11    10    11    1
    12    11    12   ar
    13    12    13   ar
    14    13    14    1
    15    13    15   ar
    16    15    16   ar
    17    16    17   ar
    18    11    17   ar
    19    15    18    1
    20    10    19   ar
    21     2    19   ar
    22    19    20    1
    23    20    21    1
    24    21    22    1
    25    21    23    1
    26    23    24    1
    27    24    25    1
    28    25    26    1
    29    25    27    1
    30    25    30    1
    31    21    31    1
    32    27    31    1
    33     6    34    1
    34     4    35    1
    35    27    29    1
    36    27    28    1
    37    31    33    1
    38    31    32    1
    39     5    36    1
    40     7    37    1
    41    12    38    1
    42    14    39    1
    43    16    40    1
    44    17    41    1
    45    18    42    1
    46    24    43    1
    47    24    44    1
    48    29    45    1
    49    30    46    1
    50    33    47    1
    51    34    48    1
    52    35    49    1
