REMARK  Name = NuBBE_2510
REMARK  1 active torsions:
REMARK  status: ('A' for Active; 'I' for Inactive)
REMARK    1  A    between atoms: O_1  and  C_2
REMARK                            x       y       z     vdW  Elec       q    Type
REMARK                         _______ _______ _______ _____ _____    ______ ____
ROOT
ATOM      1  C   LIG A   1      -4.527   0.300  -1.154  0.00  0.00    +0.120 A 
ATOM      2  C   LIG A   1      -3.957  -0.914  -1.519  0.00  0.00    +0.046 A 
ATOM      3  C   LIG A   1      -2.571  -1.021  -1.578  0.00  0.00    +0.014 A 
ATOM      4  C   LIG A   1      -1.755   0.073  -1.241  0.00  0.00    +0.035 A 
ATOM      5  C   LIG A   1      -0.264  -0.086  -1.242  0.00  0.00    +0.218 C 
ATOM      6  C   LIG A   1       0.514   1.128  -0.694  0.00  0.00    +0.105 C 
ATOM      7  C   LIG A   1       1.558   0.409   0.093  0.00  0.00    +0.008 A 
ATOM      8  C   LIG A   1       2.740   0.866   0.661  0.00  0.00    +0.057 A 
ATOM      9  C   LIG A   1       3.475  -0.077   1.367  0.00  0.00    +0.167 A 
ATOM     10  O   LIG A   1       4.676   0.142   1.971  0.00  0.00    -0.453 OA
ATOM     11  C   LIG A   1       4.987  -1.184   2.454  0.00  0.00    +0.466 C 
ATOM     12  O   LIG A   1       3.915  -2.128   2.270  0.00  0.00    -0.453 OA
ATOM     13  C   LIG A   1       3.049  -1.384   1.534  0.00  0.00    +0.170 A 
ATOM     14  C   LIG A   1       1.878  -1.847   0.985  0.00  0.00    +0.095 A 
ATOM     15  C   LIG A   1       1.173  -0.925   0.238  0.00  0.00    +0.129 A 
ATOM     16  O   LIG A   1       0.024  -1.247  -0.423  0.00  0.00    -0.483 OA
ATOM     17  C   LIG A   1      -0.391   2.014   0.156  0.00  0.00    +0.241 C 
ATOM     18  O   LIG A   1      -1.599   2.377  -0.533  0.00  0.00    -0.491 OA
ATOM     19  C   LIG A   1      -2.346   1.278  -0.873  0.00  0.00    +0.131 A 
ATOM     20  C   LIG A   1      -3.735   1.405  -0.852  0.00  0.00    +0.091 A 
ENDROOT
BRANCH   1  21
ATOM     21  O   LIG A   1      -5.881   0.435  -1.063  0.00  0.00    -0.507 OA
ATOM     22  H   LIG A   1      -6.287  -0.435  -1.215  0.00  0.00    +0.292 HD
ENDBRANCH   1  21
TORSDOF 1
