REMARK  Name = NuBBE_1366
REMARK  14 active torsions:
REMARK  status: ('A' for Active; 'I' for Inactive)
REMARK    1  A    between atoms: C_4  and  O_5
REMARK    2  A    between atoms: C_6  and  O_7
REMARK    3  A    between atoms: C_9  and  C_10
REMARK    4  A    between atoms: C_11  and  O_12
REMARK    5  A    between atoms: C_16  and  O_18
REMARK    6  A    between atoms: C_19  and  O_21
REMARK    7  A    between atoms: C_22  and  C_23
REMARK    8  A    between atoms: C_24  and  C_26
REMARK    9  A    between atoms: C_26  and  C_28
REMARK   10  A    between atoms: C_26  and  O_32
REMARK   11  A    between atoms: C_28  and  O_29
REMARK   12  A    between atoms: O_29  and  C_30
REMARK   13  A    between atoms: C_35  and  C_36
REMARK   14  A    between atoms: C_37  and  C_39
REMARK                            x       y       z     vdW  Elec       q    Type
REMARK                         _______ _______ _______ _____ _____    ______ ____
ROOT
ATOM      1  O   LIG A   1       4.710   1.520   3.173  0.00  0.00    -0.251 OA
ATOM      2  C   LIG A   1       4.028   0.664   2.609  0.00  0.00    +0.311 C 
ATOM      3  C   LIG A   1       3.216   1.031   1.394  0.00  0.00    +0.159 C 
ATOM      4  C   LIG A   1       2.049   0.089   1.121  0.00  0.00    +0.114 C 
ATOM      5  C   LIG A   1       1.314   0.418  -0.229  0.00  0.00    +0.107 C 
ATOM      6  C   LIG A   1       0.080  -0.702  -0.408  0.00  0.00    +0.033 C 
ATOM      7  C   LIG A   1      -0.803  -0.231  -1.635  0.00  0.00    +0.009 C 
ATOM      8  C   LIG A   1      -0.239  -0.917  -2.907  0.00  0.00    +0.015 C 
ATOM      9  C   LIG A   1      -0.470   1.173  -1.252  0.00  0.00    +0.081 C 
ATOM     10  C   LIG A   1      -0.514   1.914  -2.650  0.00  0.00    +0.045 C 
ATOM     11  C   LIG A   1       0.474   1.681  -0.237  0.00  0.00    +0.087 C 
ATOM     12  C   LIG A   1       0.317   3.190  -0.544  0.00  0.00    +0.152 C 
ATOM     13  C   LIG A   1      -1.272   3.513  -1.267  0.00  0.00    +0.150 C 
ATOM     14  C   LIG A   1      -1.886   2.298  -2.341  0.00  0.00    +0.005 C 
ATOM     15  C   LIG A   1      -2.723   2.913  -3.442  0.00  0.00    +0.014 C 
ATOM     16  C   LIG A   1      -2.277   0.541  -2.101  0.00  0.00    +0.046 C 
ATOM     17  C   LIG A   1       0.703  -2.101  -0.465  0.00  0.00    +0.008 C 
ATOM     18  C   LIG A   1       1.406  -2.401   0.867  0.00  0.00    +0.014 C 
ATOM     19  C   LIG A   1       2.540  -1.395   1.217  0.00  0.00    +0.041 C 
ATOM     20  C   LIG A   1       3.731  -1.692   0.249  0.00  0.00    +0.018 C 
ATOM     21  C   LIG A   1       3.092  -1.622   2.663  0.00  0.00    +0.218 C 
ATOM     22  O   LIG A   1       4.090  -0.622   3.002  0.00  0.00    -0.456 OA
ENDROOT
BRANCH  21  23
ATOM     23  C   LIG A   1       2.108  -1.785   3.805  0.00  0.00    +0.031 A 
ATOM     24  C   LIG A   1       1.595  -0.804   4.636  0.00  0.00    +0.202 A 
ATOM     25  O   LIG A   1       0.726  -1.317   5.539  0.00  0.00    -0.471 OA
ATOM     26  C   LIG A   1       0.704  -2.656   5.340  0.00  0.00    +0.195 A 
ATOM     27  C   LIG A   1       1.545  -3.001   4.307  0.00  0.00    +0.048 A 
ENDBRANCH  21  23
BRANCH   4  28
ATOM     28  O   LIG A   1       1.053   0.281   2.144  0.00  0.00    -0.385 OA
ATOM     29  H   LIG A   1       1.111   1.182   2.513  0.00  0.00    +0.210 HD
ENDBRANCH   4  28
BRANCH   5  30
ATOM     30  O   LIG A   1       2.198   0.418  -1.338  0.00  0.00    -0.385 OA
ATOM     31  H   LIG A   1       2.481   1.340  -1.509  0.00  0.00    +0.210 HD
ENDBRANCH   5  30
BRANCH   9  32
ATOM     32  O   LIG A   1      -1.632   1.423  -0.192  0.00  0.00    -0.388 OA
ATOM     33  H   LIG A   1      -1.567   0.783   0.544  0.00  0.00    +0.210 HD
ENDBRANCH   9  32
BRANCH  12  34
ATOM     34  O   LIG A   1       1.427   3.632  -1.318  0.00  0.00    -0.389 OA
ATOM     35  H   LIG A   1       1.282   4.582  -1.489  0.00  0.00    +0.210 HD
ENDBRANCH  12  34
BRANCH  13  36
ATOM     36  O   LIG A   1      -2.228   3.819  -0.261  0.00  0.00    -0.389 OA
ATOM     37  H   LIG A   1      -2.461   2.940   0.104  0.00  0.00    +0.210 HD
ENDBRANCH  13  36
BRANCH  16  38
ATOM     38  C   LIG A   1      -3.576   0.185  -1.339  0.00  0.00    +0.227 C 
BRANCH  38  39
ATOM     39  C   LIG A   1      -3.697  -1.345  -1.184  0.00  0.00    +0.336 C 
ATOM     40  O   LIG A   1      -3.325  -2.155  -2.016  0.00  0.00    -0.248 OA
BRANCH  39  41
ATOM     41  O   LIG A   1      -4.342  -1.656  -0.011  0.00  0.00    -0.466 OA
ATOM     42  C   LIG A   1      -4.597  -3.050   0.159  0.00  0.00    +0.280 C 
ENDBRANCH  39  41
ENDBRANCH  38  39
BRANCH  38  43
ATOM     43  O   LIG A   1      -4.703   0.695  -2.039  0.00  0.00    -0.380 OA
ATOM     44  H   LIG A   1      -4.785   0.188  -2.867  0.00  0.00    +0.210 HD
ENDBRANCH  38  43
ENDBRANCH  16  38
TORSDOF 10
