REMARK  Name = NuBBE_263
REMARK  11 active torsions:
REMARK  status: ('A' for Active; 'I' for Inactive)
REMARK    1  A    between atoms: C_1  and  O_2
REMARK    2  A    between atoms: O_2  and  C_3
REMARK    3  A    between atoms: C_5  and  C_6
REMARK    4  A    between atoms: C_6  and  C_7
REMARK    5  A    between atoms: C_9  and  O_11
REMARK    6  A    between atoms: C_12  and  C_13
REMARK    7  A    between atoms: C_15  and  C_17
REMARK    8  A    between atoms: C_19  and  O_20
REMARK    9  A    between atoms: O_20  and  C_21
REMARK   10  A    between atoms: C_22  and  O_23
REMARK   11  A    between atoms: O_23  and  C_24
REMARK                            x       y       z     vdW  Elec       q    Type
REMARK                         _______ _______ _______ _____ _____    ______ ____
ROOT
ATOM      1  C   LIG A   1       0.014   1.607   3.275  0.00  0.00    +0.159 C 
ATOM      2  C   LIG A   1       0.587   0.395   3.263  0.00  0.00    +0.032 C 
ATOM      3  C   LIG A   1       0.551  -0.510   2.039  0.00  0.00    +0.026 C 
ATOM      4  C   LIG A   1      -0.833  -0.326   1.371  0.00  0.00    +0.136 C 
ATOM      5  C   LIG A   1       1.523   0.047   0.916  0.00  0.00    +0.007 C 
ATOM      6  C   LIG A   1       2.817   0.699   1.424  0.00  0.00    +0.009 C 
ATOM      7  C   LIG A   1       0.658   1.061   0.080  0.00  0.00    +0.036 C 
ATOM      8  C   LIG A   1      -0.695   1.089   0.827  0.00  0.00    +0.100 C 
ATOM      9  C   LIG A   1      -0.590   2.082   1.971  0.00  0.00    +0.203 C 
ATOM     10  O   LIG A   1      -0.900   3.267   1.776  0.00  0.00    -0.288 OA
ENDROOT
BRANCH   7  11
ATOM     11  C   LIG A   1       0.434   0.697  -1.387  0.00  0.00    -0.040 A 
ATOM     12  C   LIG A   1       0.358  -0.630  -1.839  0.00  0.00    +0.053 A 
ATOM     13  C   LIG A   1       0.007  -0.953  -3.158  0.00  0.00    +0.162 A 
ATOM     14  C   LIG A   1      -0.249   0.072  -4.075  0.00  0.00    +0.162 A 
ATOM     15  C   LIG A   1      -0.136   1.403  -3.653  0.00  0.00    +0.050 A 
ATOM     16  C   LIG A   1       0.198   1.711  -2.326  0.00  0.00    +0.008 A 
BRANCH  13  17
ATOM     17  O   LIG A   1       0.024  -2.304  -3.401  0.00  0.00    -0.491 OA
ATOM     18  C   LIG A   1      -0.880  -2.808  -4.375  0.00  0.00    +0.277 C 
ENDBRANCH  13  17
BRANCH  14  19
ATOM     19  O   LIG A   1      -0.661  -0.270  -5.331  0.00  0.00    -0.491 OA
ATOM     20  C   LIG A   1      -0.302   0.597  -6.395  0.00  0.00    +0.277 C 
ENDBRANCH  14  19
ENDBRANCH   7  11
BRANCH   1  22
ATOM     21  C   LIG A   1      -0.994   3.289   4.614  0.00  0.00    +0.277 C 
ATOM     22  O   LIG A   1       0.098   2.396   4.414  0.00  0.00    -0.492 OA
ENDBRANCH   1  22
BRANCH   4  23
ATOM     23  O   LIG A   1      -1.932  -0.457   2.261  0.00  0.00    -0.390 OA
ATOM     24  H   LIG A   1      -2.752  -0.293   1.765  0.00  0.00    +0.210 HD
ENDBRANCH   4  23
BRANCH   3  25
ATOM     25  C   LIG A   1       0.840  -1.999   2.386  0.00  0.00    +0.040 C 
BRANCH  25  26
ATOM     26  C   LIG A   1      -0.122  -2.655   3.350  0.00  0.00    -0.034 C 
ATOM     27  C   LIG A   1      -0.853  -3.747   3.087  0.00  0.00    +0.004 C 
ENDBRANCH  25  26
ENDBRANCH   3  25
TORSDOF 7
