@<TRIPOS>MOLECULE
NuBBE_1546
 74 77 0 0 0
SMALL
GASTEIGER

@<TRIPOS>ATOM
      1 C          -3.9425   -2.8240    0.9524 C.3     1  LIG1       -0.0588
      2 C          -2.8105   -1.8861    0.5555 C.3     1  LIG1       -0.0192
      3 C          -1.5439   -1.3999    1.8147 C.3     1  LIG1       -0.0320
      4 H          -1.8999   -1.7650    2.7826 H       1  LIG1        0.0309
      5 C           0.3692   -2.2460    1.1393 C.3     1  LIG1       -0.0340
      6 H           1.0149   -2.4728    2.0063 H       1  LIG1        0.0307
      7 C           0.2853   -3.6160    0.2282 C.3     1  LIG1       -0.0493
      8 C          -0.8658   -3.4242   -0.7906 C.3     1  LIG1       -0.0459
      9 C          -1.6038   -2.5499    0.1284 C.3     1  LIG1        0.0056
     10 H          -1.6275   -3.2678    0.9853 H       1  LIG1        0.0343
     11 C          -0.7133   -1.0522    0.2904 C.3     1  LIG1        0.1465
     12 H          -1.5776   -0.4968    0.3075 H       1  LIG1        0.0776
     13 C          -0.5140   -0.2048   -0.7089 C.3     1  LIG1        0.1765
     14 H          -0.0798   -0.8388   -1.4800 H       1  LIG1        0.0809
     15 O           0.6174    0.4796    0.7306 O.3     1  LIG1       -0.4540
     16 C           1.7145    0.7631    1.5841 C.2     1  LIG1        0.3044
     17 C           1.5855    2.0983    2.2566 C.3     1  LIG1        0.0332
     18 O           2.7353    0.1123    1.7695 O.2     1  LIG1       -0.2512
     19 C          -2.1796    0.0150   -1.3573 C.3     1  LIG1        0.1438
     20 H          -2.0700   -0.4275   -2.3538 H       1  LIG1        0.0773
     21 O          -2.7315    1.3464   -1.5442 O.3     1  LIG1       -0.4576
     22 C          -3.1581    1.7357   -2.7852 C.2     1  LIG1        0.3043
     23 C          -3.7648    3.1157   -2.7562 C.3     1  LIG1        0.0332
     24 O          -3.1103    1.0501   -3.7974 O.2     1  LIG1       -0.2512
     25 C          -3.2848   -0.9097   -0.6274 C.3     1  LIG1       -0.0060
     26 O           0.1000   -0.6376    2.0901 O.3     1  LIG1       -0.4574
     27 C           0.0379   -0.4188    3.5123 C.2     1  LIG1        0.3043
     28 C           1.3587   -0.1704    4.2892 C.3     1  LIG1        0.0332
     29 O          -1.0081   -0.3266    4.1589 O.2     1  LIG1       -0.2512
     30 C           1.4655   -1.1305   -0.2218 C.3     1  LIG1       -0.0252
     31 H           1.2894   -1.7579   -1.1181 H       1  LIG1        0.0313
     32 C           1.1837    0.7840   -0.9580 C.3     1  LIG1       -0.0191
     33 C           0.9295    0.8075   -2.5286 C.3     1  LIG1       -0.0586
     34 C           2.6790    1.3694   -0.8399 C.3     1  LIG1        0.0229
     35 H           2.8499    1.8934    0.0963 H       1  LIG1        0.0383
     36 C           3.0629    2.4898   -1.8497 C.3     1  LIG1       -0.0459
     37 C           4.5082    2.9654   -1.7640 C.3     1  LIG1       -0.0646
     38 C           3.6137    0.1040   -0.7620 C.2     1  LIG1        0.1372
     39 C           3.0076   -1.2569   -0.2915 C.3     1  LIG1        0.0097
     40 O           4.8282    0.1892   -0.9602 O.2     1  LIG1       -0.2971
     41 C          -0.4298    1.7161    0.0028 C.3     1  LIG1       -0.0464
     42 C          -1.4831    0.6902    1.4514 C.3     1  LIG1       -0.0489
     43 H          -3.7063   -3.4423    1.8203 H       1  LIG1        0.0235
     44 H          -4.1878   -3.4972    0.1169 H       1  LIG1        0.0235
     45 H          -4.8540   -2.2587    1.1754 H       1  LIG1        0.0235
     46 H           0.0691   -4.4664    0.8899 H       1  LIG1        0.0268
     47 H           1.2375   -3.8282   -0.2671 H       1  LIG1        0.0268
     48 H          -1.3663   -4.3667   -1.0286 H       1  LIG1        0.0269
     49 H          -0.5507   -2.9464   -1.7203 H       1  LIG1        0.0269
     50 H           0.7973    2.0338    2.9957 H       1  LIG1        0.0342
     51 H           1.3958    2.9146    1.5715 H       1  LIG1        0.0342
     52 H           2.5483    2.3321    2.7262 H       1  LIG1        0.0342
     53 H          -3.4485    3.6674   -1.8670 H       1  LIG1        0.0342
     54 H          -4.8542    3.0245   -2.7579 H       1  LIG1        0.0342
     55 H          -3.4497    3.6917   -3.6342 H       1  LIG1        0.0342
     56 H          -3.7041   -1.5404   -1.4283 H       1  LIG1        0.0307
     57 H          -4.1257   -0.3002   -0.2736 H       1  LIG1        0.0307
     58 H           2.2008   -0.7882    3.9819 H       1  LIG1        0.0342
     59 H           1.1884   -0.3749    5.3557 H       1  LIG1        0.0342
     60 H           1.6721    0.8781    4.3233 H       1  LIG1        0.0342
     61 H           1.7804    0.3442   -3.0379 H       1  LIG1        0.0235
     62 H           0.7836    1.8417   -2.8480 H       1  LIG1        0.0235
     63 H           0.0531    0.2889   -2.9218 H       1  LIG1        0.0235
     64 H           2.4186    3.3533   -1.6294 H       1  LIG1        0.0269
     65 H           2.8833    2.2278   -2.8962 H       1  LIG1        0.0269
     66 H           4.8641    2.9933   -0.7314 H       1  LIG1        0.0230
     67 H           4.6034    3.9727   -2.1846 H       1  LIG1        0.0230
     68 H           5.1636    2.3117   -2.3490 H       1  LIG1        0.0230
     69 H           3.4388   -1.5831    0.6582 H       1  LIG1        0.0345
     70 H           3.3054   -2.0156   -1.0259 H       1  LIG1        0.0345
     71 H          -1.0478    2.1246   -0.7831 H       1  LIG1        0.0271
     72 H          -0.0861    2.6289    0.4969 H       1  LIG1        0.0271
     73 H          -2.5403    0.9185    1.2299 H       1  LIG1        0.0268
     74 H          -1.3198    1.2158    2.4050 H       1  LIG1        0.0268
@<TRIPOS>BOND
     1     1     2    1
     2     2     3    1
     3     3     4    1
     4     3     5    1
     5     5     6    1
     6     5     7    1
     7     7     8    1
     8     8     9    1
     9     9    10    1
    10     2     9    1
    11     9    11    1
    12    11    13    1
    13    13    14    1
    14    13    15    1
    15    15    16    1
    16    16    17    1
    17    16    18    2
    18    13    19    1
    19    19    20    1
    20    19    21    1
    21    21    22    1
    22    22    23    1
    23    22    24    2
    24    19    25    1
    25     2    25    1
    26    26    27    1
    27    27    28    1
    28    27    29    2
    29     5    30    1
    30    30    31    1
    31    30    32    1
    32    32    33    1
    33    32    34    1
    34    34    35    1
    35    34    36    1
    36    36    37    1
    37    34    38    1
    38    38    39    1
    39    30    39    1
    40    38    40    2
    41    32    41    1
    42    41    42    1
    43     3    42    1
    44    11    26    1
    45    11    12    1
    46     1    43    1
    47     1    44    1
    48     1    45    1
    49     7    46    1
    50     7    47    1
    51     8    48    1
    52     8    49    1
    53    17    50    1
    54    17    51    1
    55    17    52    1
    56    23    53    1
    57    23    54    1
    58    23    55    1
    59    25    56    1
    60    25    57    1
    61    28    58    1
    62    28    59    1
    63    28    60    1
    64    33    61    1
    65    33    62    1
    66    33    63    1
    67    36    64    1
    68    36    65    1
    69    37    66    1
    70    37    67    1
    71    37    68    1
    72    39    69    1
    73    39    70    1
    74    41    71    1
    75    41    72    1
    76    42    73    1
    77    42    74    1
