@<TRIPOS>MOLECULE
NuBBE_953
 56 58 0 0 0
SMALL
GASTEIGER

@<TRIPOS>ATOM
      1 O          -1.0999    0.4108   -2.2372 O.2     1  LIG1       -0.2864
      2 C          -0.0779    0.5081   -1.5727 C.ar    1  LIG1        0.2010
      3 C           0.6457   -0.7272   -1.2077 C.ar    1  LIG1        0.0876
      4 C           1.9885   -0.6054   -0.8297 C.ar    1  LIG1        0.0600
      5 C           2.6472   -1.7743   -0.4283 C.ar    1  LIG1        0.0046
      6 H           3.6726   -1.7317   -0.0775 H       1  LIG1        0.0675
      7 C           1.9913   -3.0110   -0.4307 C.ar    1  LIG1        0.1258
      8 O           2.6870   -4.1256   -0.0524 O.3     1  LIG1       -0.5063
      9 C           0.6536   -3.1377   -0.8236 C.ar    1  LIG1        0.0399
     10 C          -0.0649   -4.4677   -0.7600 C.3     1  LIG1       -0.0023
     11 C          -0.7962   -4.6782    0.5449 C.2     1  LIG1       -0.0807
     12 C          -0.3902   -5.3769    1.6248 C.2     1  LIG1       -0.0793
     13 C           0.9338   -6.0759    1.7527 C.3     1  LIG1       -0.0440
     14 C          -1.2615   -5.4936    2.8470 C.3     1  LIG1       -0.0440
     15 C          -0.0094   -1.9736   -1.2321 C.ar    1  LIG1        0.1366
     16 O          -1.3128   -2.0884   -1.6517 O.3     1  LIG1       -0.5056
     17 N           2.5987    0.6655   -0.8399 N.ar    1  LIG1       -0.3397
     18 C           4.0616    0.7378   -0.8450 C.3     1  LIG1        0.0125
     19 C           1.8447    1.8675   -0.7945 C.ar    1  LIG1        0.0952
     20 C           2.3645    3.1162   -0.3975 C.ar    1  LIG1        0.1410
     21 O           3.6769    3.2555   -0.0224 O.3     1  LIG1       -0.5047
     22 C           1.5580    4.2517   -0.3228 C.ar    1  LIG1       -0.0178
     23 C           0.1983    4.1691   -0.6066 C.ar    1  LIG1       -0.0540
     24 C          -0.3930    2.9526   -0.9785 C.ar    1  LIG1       -0.0306
     25 C          -1.9009    2.8456   -1.1690 C.3     1  LIG1       -0.0085
     26 C          -2.7084    4.0941   -0.8986 C.2     1  LIG1       -0.0810
     27 C          -3.2865    4.4897    0.2540 C.2     1  LIG1       -0.0793
     28 C          -3.2004    3.7542    1.5634 C.3     1  LIG1       -0.0440
     29 C          -4.0803    5.7700    0.2997 C.3     1  LIG1       -0.0440
     30 C           0.4563    1.8200   -1.1034 C.ar    1  LIG1        0.0529
     31 H           3.5589   -3.8684    0.2863 H       1  LIG1        0.2921
     32 H           0.6285   -5.2879   -0.9729 H       1  LIG1        0.0358
     33 H          -0.7969   -4.5320   -1.5763 H       1  LIG1        0.0358
     34 H          -1.7779   -4.2042    0.5707 H       1  LIG1        0.0575
     35 H           1.5220   -6.0654    0.8358 H       1  LIG1        0.0274
     36 H           0.7851   -7.1278    2.0150 H       1  LIG1        0.0274
     37 H           1.5302   -5.6031    2.5408 H       1  LIG1        0.0274
     38 H          -2.2232   -4.9851    2.7259 H       1  LIG1        0.0274
     39 H          -0.7570   -5.0540    3.7139 H       1  LIG1        0.0274
     40 H          -1.4671   -6.5473    3.0641 H       1  LIG1        0.0274
     41 H          -1.5719   -1.2278   -2.0551 H       1  LIG1        0.2922
     42 H           4.5227   -0.1522   -1.2892 H       1  LIG1        0.0456
     43 H           4.4509    0.8453    0.1736 H       1  LIG1        0.0456
     44 H           4.4241    1.5565   -1.4769 H       1  LIG1        0.0456
     45 H           3.8486    4.1845    0.2025 H       1  LIG1        0.2922
     46 H           1.9636    5.2097   -0.0099 H       1  LIG1        0.0655
     47 H          -0.3955    5.0742   -0.5037 H       1  LIG1        0.0622
     48 H          -2.2785    2.0315   -0.5394 H       1  LIG1        0.0356
     49 H          -2.1085    2.5728   -2.2105 H       1  LIG1        0.0356
     50 H          -2.8411    4.7231   -1.7789 H       1  LIG1        0.0575
     51 H          -2.6865    2.7931    1.4856 H       1  LIG1        0.0274
     52 H          -4.2042    3.5571    1.9553 H       1  LIG1        0.0274
     53 H          -2.6590    4.3588    2.2991 H       1  LIG1        0.0274
     54 H          -4.2065    6.2109   -0.6952 H       1  LIG1        0.0274
     55 H          -3.5757    6.5086    0.9308 H       1  LIG1        0.0274
     56 H          -5.0814    5.5877    0.7038 H       1  LIG1        0.0274
@<TRIPOS>BOND
     1     1     2    2
     2     2     3   ar
     3     3     4   ar
     4     4     5   ar
     5     5     6    1
     6     5     7   ar
     7     7     8    1
     8     7     9   ar
     9     9    10    1
    10    10    11    1
    11    11    12    2
    12    12    13    1
    13    12    14    1
    14     9    15   ar
    15     3    15   ar
    16    15    16    1
    17     4    17   ar
    18    17    18    1
    19    17    19   ar
    20    19    20   ar
    21    20    21    1
    22    20    22   ar
    23    22    23   ar
    24    23    24   ar
    25    24    25    1
    26    25    26    1
    27    26    27    2
    28    27    28    1
    29    27    29    1
    30    24    30   ar
    31    19    30   ar
    32     2    30   ar
    33     8    31    1
    34    10    32    1
    35    10    33    1
    36    11    34    1
    37    13    35    1
    38    13    36    1
    39    13    37    1
    40    14    38    1
    41    14    39    1
    42    14    40    1
    43    16    41    1
    44    18    42    1
    45    18    43    1
    46    18    44    1
    47    21    45    1
    48    22    46    1
    49    23    47    1
    50    25    48    1
    51    25    49    1
    52    26    50    1
    53    28    51    1
    54    28    52    1
    55    28    53    1
    56    29    54    1
    57    29    55    1
    58    29    56    1
