@<TRIPOS>MOLECULE
NuBBE_958
 80 85 0 0 0
SMALL
GASTEIGER

@<TRIPOS>ATOM
      1 C          -1.0865    3.9487   -2.3591 C.3     1  LIG1        0.0817
      2 O          -0.5686    2.6709   -2.7245 O.3     1  LIG1       -0.4679
      3 C          -1.5247    1.7112   -2.8793 C.2     1  LIG1        0.3071
      4 C          -0.8593    0.3456   -2.8277 C.3     1  LIG1        0.0492
      5 C          -1.7175   -0.7906   -2.1964 C.3     1  LIG1       -0.0100
      6 H          -2.6298   -0.7492   -2.8112 H       1  LIG1        0.0322
      7 C          -2.2367   -0.5586   -0.6878 C.3     1  LIG1        0.0361
      8 C          -3.6762    0.0214   -0.7486 C.3     1  LIG1       -0.0522
      9 C          -1.2734    0.3257    0.2197 C.3     1  LIG1        0.0033
     10 H          -0.5964    0.8515   -0.4536 H       1  LIG1        0.0339
     11 C          -0.3395   -0.4182    1.1856 C.3     1  LIG1        0.1044
     12 C          -0.2491   -1.9331    1.1124 C.3     1  LIG1        0.1019
     13 H           0.6077   -2.4915    1.4605 H       1  LIG1        0.0633
     14 C          -1.0973   -2.6928    0.1383 C.3     1  LIG1        0.0844
     15 C          -0.4477   -2.9434   -1.2360 C.3     1  LIG1        0.1204
     16 H          -0.5356   -4.0243   -1.4094 H       1  LIG1        0.0747
     17 O           0.9569   -2.5848   -1.2366 O.3     1  LIG1       -0.4598
     18 C           1.8378   -3.6249   -1.4093 C.2     1  LIG1        0.3100
     19 C           3.1790   -3.0952   -1.8812 C.3     1  LIG1        0.0508
     20 C           4.0681   -2.8376   -0.6784 C.3     1  LIG1       -0.0525
     21 C           3.8410   -4.0611   -2.8617 C.3     1  LIG1       -0.0525
     22 O           1.5720   -4.8052   -1.2430 O.2     1  LIG1       -0.2505
     23 C          -1.1374   -2.2581   -2.4789 C.3     1  LIG1        0.0071
     24 C          -2.3299   -3.1562   -2.9309 C.3     1  LIG1       -0.0561
     25 C          -0.1583   -2.2961   -3.6865 C.3     1  LIG1       -0.0561
     26 C          -2.3883   -1.9503   -0.0681 C.2     1  LIG1        0.1490
     27 O          -3.4704   -2.4690    0.2023 O.2     1  LIG1       -0.2963
     28 O          -1.0125   -1.2653    2.1282 O.3     1  LIG1       -0.3633
     29 C           0.7315    0.4653    1.8365 C.3     1  LIG1        0.0100
     30 H           1.3418    0.8168    0.9907 H       1  LIG1        0.0341
     31 C           0.1254    1.7232    2.5394 C.3     1  LIG1        0.0153
     32 C          -0.8966    2.4082    1.5994 C.3     1  LIG1       -0.0432
     33 C          -1.9527    1.4490    1.0339 C.3     1  LIG1       -0.0460
     34 C          -0.5792    1.3679    3.8747 C.3     1  LIG1       -0.0555
     35 C           1.6926   -0.2296    2.7930 C.3     1  LIG1        0.0511
     36 C           2.7198    0.7026    3.3872 C.2     1  LIG1        0.3081
     37 O           2.3629    1.9857    3.5943 O.3     1  LIG1       -0.4559
     38 C           1.3533    2.6455    2.7974 C.3     1  LIG1        0.1366
     39 H           1.8437    2.8578    1.8356 H       1  LIG1        0.0792
     40 C           1.0491    3.9891    3.3985 C.ar    1  LIG1        0.0309
     41 C           1.1235    4.3455    4.7317 C.ar    1  LIG1        0.0984
     42 O           0.8432    5.6611    4.9016 O.2     1  LIG1       -0.4706
     43 C           0.5940    6.1735    3.6716 C.ar    1  LIG1        0.0921
     44 C           0.7056    5.1937    2.7137 C.ar    1  LIG1       -0.0172
     45 O           3.8068    0.2855    3.7756 O.2     1  LIG1       -0.2508
     46 O          -2.7081    1.9206   -3.0321 O.2     1  LIG1       -0.2509
     47 H          -1.5130    3.8710   -1.3544 H       1  LIG1        0.0661
     48 H          -1.8318    4.3246   -3.0667 H       1  LIG1        0.0661
     49 H          -0.2495    4.6508   -2.3203 H       1  LIG1        0.0661
     50 H           0.1098    0.4168   -2.3197 H       1  LIG1        0.0381
     51 H          -0.6436    0.1299   -3.8813 H       1  LIG1        0.0381
     52 H          -3.7126    1.0228   -1.1740 H       1  LIG1        0.0239
     53 H          -4.1335    0.0738    0.2464 H       1  LIG1        0.0239
     54 H          -4.3356   -0.6100   -1.3577 H       1  LIG1        0.0239
     55 H          -1.3458   -3.6610    0.5927 H       1  LIG1        0.0441
     56 H           3.0014   -2.1548   -2.4176 H       1  LIG1        0.0408
     57 H           3.5618   -2.1791    0.0337 H       1  LIG1        0.0237
     58 H           5.0061   -2.3631   -0.9833 H       1  LIG1        0.0237
     59 H           4.3102   -3.7704   -0.1568 H       1  LIG1        0.0237
     60 H           4.1452   -4.9902   -2.3668 H       1  LIG1        0.0237
     61 H           4.7363   -3.6076   -3.3016 H       1  LIG1        0.0237
     62 H           3.1611   -4.3282   -3.6782 H       1  LIG1        0.0237
     63 H          -1.9930   -4.1750   -3.1548 H       1  LIG1        0.0236
     64 H          -2.7871   -2.7627   -3.8470 H       1  LIG1        0.0236
     65 H          -3.1194   -3.2296   -2.1821 H       1  LIG1        0.0236
     66 H           0.7256   -1.6692   -3.5271 H       1  LIG1        0.0236
     67 H          -0.6451   -1.9617   -4.6093 H       1  LIG1        0.0236
     68 H           0.2008   -3.3162   -3.8683 H       1  LIG1        0.0236
     69 H          -0.3654    2.8703    0.7566 H       1  LIG1        0.0272
     70 H          -1.4143    3.2228    2.1199 H       1  LIG1        0.0272
     71 H          -2.6184    2.0480    0.4059 H       1  LIG1        0.0269
     72 H          -2.5561    1.0287    1.8469 H       1  LIG1        0.0269
     73 H          -1.2046    2.1957    4.2270 H       1  LIG1        0.0236
     74 H           0.1322    1.1441    4.6761 H       1  LIG1        0.0236
     75 H          -1.2357    0.5000    3.7784 H       1  LIG1        0.0236
     76 H           1.1657   -0.7160    3.6217 H       1  LIG1        0.0381
     77 H           2.2469   -1.0048    2.2539 H       1  LIG1        0.0381
     78 H           1.3778    3.8031    5.6327 H       1  LIG1        0.1033
     79 H           0.3677    7.2305    3.6433 H       1  LIG1        0.1029
     80 H           0.5717    5.3359    1.6504 H       1  LIG1        0.0653
@<TRIPOS>BOND
     1     1     2    1
     2     2     3    1
     3     3     4    1
     4     5     7    1
     5     7     9    1
     6     9    11    1
     7    11    12    1
     8    12    14    1
     9    14    15    1
    10    17    18    1
    11    18    19    1
    12    19    20    1
    13    19    21    1
    14    18    22    2
    15    15    23    1
    16     5    23    1
    17    14    26    1
    18     7    26    1
    19    12    28    1
    20    11    28    1
    21    11    29    1
    22    29    31    1
    23    31    32    1
    24    32    33    1
    25     9    33    1
    26    29    35    1
    27    35    36    1
    28    36    37    1
    29    37    38    1
    30    31    38    1
    31    40    41   ar
    32    41    42   ar
    33    42    43   ar
    34    43    44   ar
    35    40    44   ar
    36     3    46    2
    37     4     5    1
    38     5     6    1
    39     7     8    1
    40     9    10    1
    41    12    13    1
    42    23    24    1
    43    23    25    1
    44    26    27    2
    45    29    30    1
    46    31    34    1
    47    36    45    2
    48    38    39    1
    49    38    40    1
    50    15    17    1
    51    15    16    1
    52     1    47    1
    53     1    48    1
    54     1    49    1
    55     4    50    1
    56     4    51    1
    57     8    52    1
    58     8    53    1
    59     8    54    1
    60    14    55    1
    61    19    56    1
    62    20    57    1
    63    20    58    1
    64    20    59    1
    65    21    60    1
    66    21    61    1
    67    21    62    1
    68    24    63    1
    69    24    64    1
    70    24    65    1
    71    25    66    1
    72    25    67    1
    73    25    68    1
    74    32    69    1
    75    32    70    1
    76    33    71    1
    77    33    72    1
    78    34    73    1
    79    34    74    1
    80    34    75    1
    81    35    76    1
    82    35    77    1
    83    41    78    1
    84    43    79    1
    85    44    80    1
