REMARK  Name = NuBBE_680
REMARK  17 active torsions:
REMARK  status: ('A' for Active; 'I' for Inactive)
REMARK    1  A    between atoms: C_1  and  C_2
REMARK    2  A    between atoms: C_2  and  C_3
REMARK    3  A    between atoms: C_3  and  C_5
REMARK    4  A    between atoms: C_3  and  C_6
REMARK    5  A    between atoms: C_7  and  C_8
REMARK    6  A    between atoms: C_14  and  C_16
REMARK    7  A    between atoms: C_21  and  C_22
REMARK    8  A    between atoms: C_22  and  C_23
REMARK    9  A    between atoms: C_23  and  C_25
REMARK   10  A    between atoms: C_23  and  C_26
REMARK   11  A    between atoms: C_26  and  O_28
REMARK   12  A    between atoms: C_26  and  C_41
REMARK   13  A    between atoms: O_28  and  C_29
REMARK   14  A    between atoms: C_29  and  C_30
REMARK   15  A    between atoms: C_30  and  O_32
REMARK   16  A    between atoms: C_30  and  C_34
REMARK   17  A    between atoms: O_32  and  C_33
REMARK                            x       y       z     vdW  Elec       q    Type
REMARK                         _______ _______ _______ _____ _____    ______ ____
ROOT
ATOM      1  C   LIG A   1       2.266   1.003   0.688  0.00  0.00    +0.128 C 
ATOM      2  C   LIG A   1       0.999   1.359   0.421  0.00  0.00    +0.055 C 
ATOM      3  C   LIG A   1       0.600   1.003  -0.927  0.00  0.00    -0.008 C 
ATOM      4  C   LIG A   1      -0.169   1.804  -1.643  0.00  0.00    +0.059 C 
ATOM      5  C   LIG A   1      -0.456   1.350  -3.067  0.00  0.00    +0.204 C 
ATOM      6  C   LIG A   1      -0.072  -0.347  -3.553  0.00  0.00    +0.199 C 
ATOM      7  O   LIG A   1      -0.846  -1.383  -4.298  0.00  0.00    -0.442 OA
ATOM      8  C   LIG A   1       0.974  -0.105  -4.614  0.00  0.00    +0.070 C 
ATOM      9  C   LIG A   1       0.354  -1.148  -2.401  0.00  0.00    +0.031 C 
ATOM     10  C   LIG A   1       1.145  -0.209  -1.569  0.00  0.00    +0.025 C 
ATOM     11  C   LIG A   1       2.437  -0.354  -1.302  0.00  0.00    +0.204 C 
ATOM     12  O   LIG A   1       3.074   0.321  -0.250  0.00  0.00    -0.463 OA
ATOM     13  C   LIG A   1      -0.249  -2.439  -2.344  0.00  0.00    +0.110 C 
ATOM     14  C   LIG A   1      -0.945  -2.599  -3.698  0.00  0.00    +0.344 C 
ATOM     15  O   LIG A   1      -1.862  -3.590  -4.151  0.00  0.00    -0.245 OA
ATOM     16  O   LIG A   1      -1.094   2.167  -3.747  0.00  0.00    -0.288 OA
ENDROOT
BRANCH   1  18
ATOM     17  C   LIG A   1       3.024   2.360   2.529  0.00  0.00    -0.020 C 
ATOM     18  C   LIG A   1       2.857   1.153   1.978  0.00  0.00    +0.042 C 
BRANCH  17  19
ATOM     19  C   LIG A   1       3.723   2.614   3.837  0.00  0.00    +0.008 C 
ATOM     20  C   LIG A   1       3.179   3.905   4.453  0.00  0.00    +0.012 C 
BRANCH  19  22
ATOM     21  C   LIG A   1       4.388   1.558   6.074  0.00  0.00    +0.004 C 
ATOM     22  C   LIG A   1       3.594   1.414   4.794  0.00  0.00    +0.004 C 
ENDBRANCH  19  22
ENDBRANCH  17  19
ENDBRANCH   1  18
BRANCH  13  23
ATOM     23  C   LIG A   1      -0.467  -3.668  -1.347  0.00  0.00    +0.177 C 
ATOM     24  O   LIG A   1      -0.859  -4.763  -1.845  0.00  0.00    -0.291 OA
BRANCH  23  25
ATOM     25  C   LIG A   1      -0.305  -3.734   0.225  0.00  0.00    +0.098 C 
ATOM     26  C   LIG A   1       0.948  -4.601   0.564  0.00  0.00    +0.020 C 
BRANCH  25  27
ATOM     27  C   LIG A   1      -0.150  -2.440   0.991  0.00  0.00    +0.184 C 
ATOM     28  C   LIG A   1       1.142  -1.915   0.500  0.00  0.00    +0.052 C 
BRANCH  27  29
ATOM     29  O   LIG A   1      -1.144  -1.366   0.899  0.00  0.00    -0.459 OA
BRANCH  29  30
ATOM     30  C   LIG A   1      -2.210  -1.304   0.061  0.00  0.00    +0.341 C 
ATOM     31  O   LIG A   1      -2.697  -2.265  -0.481  0.00  0.00    -0.247 OA
BRANCH  30  32
ATOM     32  C   LIG A   1      -2.448   0.162  -0.400  0.00  0.00    +0.256 C 
BRANCH  32  33
ATOM     33  C   LIG A   1      -3.756   0.799  -0.695  0.00  0.00    -0.008 A 
ATOM     34  C   LIG A   1      -4.859   0.141  -0.230  0.00  0.00    +0.007 A 
ATOM     35  C   LIG A   1      -6.090   0.661  -0.529  0.00  0.00    +0.000 A 
ATOM     36  C   LIG A   1      -6.227   1.757  -1.393  0.00  0.00    +0.000 A 
ATOM     37  C   LIG A   1      -5.124   2.362  -1.981  0.00  0.00    +0.000 A 
ATOM     38  C   LIG A   1      -3.876   1.933  -1.581  0.00  0.00    +0.007 A 
ENDBRANCH  32  33
BRANCH  32  39
ATOM     39  O   LIG A   1      -1.919   0.192  -1.699  0.00  0.00    -0.364 OA
ATOM     40  C   LIG A   1      -2.652  -0.329  -2.803  0.00  0.00    +0.195 C 
ENDBRANCH  32  39
ENDBRANCH  30  32
ENDBRANCH  29  30
ENDBRANCH  27  29
ENDBRANCH  25  27
ENDBRANCH  23  25
ENDBRANCH  13  23
TORSDOF 11
