REMARK  Name = NuBBE_2224
REMARK  5 active torsions:
REMARK  status: ('A' for Active; 'I' for Inactive)
REMARK    1  A    between atoms: O_1  and  C_2
REMARK    2  A    between atoms: O_1  and  C_3
REMARK    3  A    between atoms: C_5  and  C_6
REMARK    4  A    between atoms: C_14  and  O_16
REMARK    5  A    between atoms: C_19  and  O_20
REMARK                            x       y       z     vdW  Elec       q    Type
REMARK                         _______ _______ _______ _____ _____    ______ ____
ROOT
ATOM      1  C   LIG A   1       0.323   0.153  -0.504  0.00  0.00    +0.204 C 
ATOM      2  O   LIG A   1      -0.472   1.317  -0.223  0.00  0.00    -0.484 OA
ATOM      3  C   LIG A   1       0.154   2.524  -0.356  0.00  0.00    +0.128 A 
ATOM      4  C   LIG A   1       1.537   2.672  -0.500  0.00  0.00    -0.005 A 
ATOM      5  C   LIG A   1       2.431   1.468  -0.547  0.00  0.00    +0.043 C 
ATOM      6  C   LIG A   1       1.734   0.267   0.075  0.00  0.00    +0.054 C 
ATOM      7  C   LIG A   1       2.078   3.960  -0.626  0.00  0.00    +0.011 A 
ATOM      8  C   LIG A   1       1.250   5.084  -0.577  0.00  0.00    +0.046 A 
ATOM      9  C   LIG A   1      -0.121   4.915  -0.409  0.00  0.00    +0.120 A 
ATOM     10  C   LIG A   1      -0.672   3.646  -0.298  0.00  0.00    +0.091 A 
ENDROOT
BRANCH   1  13
ATOM     11  C   LIG A   1      -0.853  -3.474  -0.031  0.00  0.00    +0.162 A 
ATOM     12  C   LIG A   1      -0.227  -2.324  -0.540  0.00  0.00    +0.056 A 
ATOM     13  C   LIG A   1      -0.387  -1.066   0.064  0.00  0.00    -0.004 A 
ATOM     14  C   LIG A   1      -1.188  -0.978   1.210  0.00  0.00    +0.011 A 
ATOM     15  C   LIG A   1      -1.819  -2.110   1.726  0.00  0.00    +0.049 A 
ATOM     16  C   LIG A   1      -1.650  -3.354   1.112  0.00  0.00    +0.159 A 
BRANCH  11  17
ATOM     17  O   LIG A   1      -0.575  -4.598  -0.762  0.00  0.00    -0.491 OA
ATOM     18  C   LIG A   1      -1.193  -5.818  -0.376  0.00  0.00    +0.277 C 
ENDBRANCH  11  17
BRANCH  16  19
ATOM     19  O   LIG A   1      -2.280  -4.435   1.666  0.00  0.00    -0.503 OA
ATOM     20  H   LIG A   1      -2.776  -4.144   2.448  0.00  0.00    +0.292 HD
ENDBRANCH  16  19
ENDBRANCH   1  13
BRANCH   9  21
ATOM     21  O   LIG A   1      -0.966   5.984  -0.349  0.00  0.00    -0.507 OA
ATOM     22  H   LIG A   1      -0.445   6.798  -0.439  0.00  0.00    +0.292 HD
ENDBRANCH   9  21
TORSDOF 4
