@<TRIPOS>MOLECULE
NuBBE_2114
 27 26 0 0 0
SMALL
GASTEIGER

@<TRIPOS>ATOM
      1 C          -3.1772    0.9551   -2.7544 C.2     1  LIG1       -0.1026
      2 C          -3.0320   -0.1761   -2.0451 C.2     1  LIG1       -0.0911
      3 C          -3.1666   -0.2501   -0.5510 C.3     1  LIG1       -0.0350
      4 C          -1.9232   -0.7934    0.1693 C.3     1  LIG1       -0.0496
      5 C          -0.6704    0.0837    0.0211 C.3     1  LIG1       -0.0528
      6 C           0.5239   -0.5033    0.7882 C.3     1  LIG1       -0.0531
      7 C           1.8043    0.3251    0.6128 C.3     1  LIG1       -0.0533
      8 C           2.9722   -0.2997    1.3843 C.3     1  LIG1       -0.0559
      9 C           4.2612    0.4947    1.2346 C.3     1  LIG1       -0.0653
     10 H          -3.0906    0.9475   -3.8356 H       1  LIG1        0.0532
     11 H          -3.3892    1.9037   -2.2738 H       1  LIG1        0.0532
     12 H          -2.8366   -1.1062   -2.5737 H       1  LIG1        0.0566
     13 H          -4.0103   -0.9176   -0.3318 H       1  LIG1        0.0307
     14 H          -3.4336    0.7290   -0.1353 H       1  LIG1        0.0307
     15 H          -1.7071   -1.8058   -0.1938 H       1  LIG1        0.0268
     16 H          -2.1680   -0.8892    1.2352 H       1  LIG1        0.0268
     17 H          -0.8834    1.0929    0.3933 H       1  LIG1        0.0265
     18 H          -0.4057    0.1743   -1.0381 H       1  LIG1        0.0265
     19 H           0.7103   -1.5272    0.4418 H       1  LIG1        0.0265
     20 H           0.2782   -0.5652    1.8555 H       1  LIG1        0.0265
     21 H           1.6349    1.3490    0.9673 H       1  LIG1        0.0265
     22 H           2.0612    0.3891   -0.4515 H       1  LIG1        0.0265
     23 H           3.1444   -1.3228    1.0299 H       1  LIG1        0.0263
     24 H           2.7188   -0.3653    2.4488 H       1  LIG1        0.0263
     25 H           4.5858    0.5283    0.1898 H       1  LIG1        0.0230
     26 H           5.0608    0.0280    1.8202 H       1  LIG1        0.0230
     27 H           4.1378    1.5217    1.5922 H       1  LIG1        0.0230
@<TRIPOS>BOND
     1     1     2    2
     2     2     3    1
     3     3     4    1
     4     4     5    1
     5     5     6    1
     6     6     7    1
     7     7     8    1
     8     8     9    1
     9     1    10    1
    10     1    11    1
    11     2    12    1
    12     3    13    1
    13     3    14    1
    14     4    15    1
    15     4    16    1
    16     5    17    1
    17     5    18    1
    18     6    19    1
    19     6    20    1
    20     7    21    1
    21     7    22    1
    22     8    23    1
    23     8    24    1
    24     9    25    1
    25     9    26    1
    26     9    27    1
