REMARK  Name = NuBBE_2138
REMARK  3 active torsions:
REMARK  status: ('A' for Active; 'I' for Inactive)
REMARK    1  A    between atoms: C_1  and  C_2
REMARK    2  A    between atoms: C_2  and  C_3
REMARK    3  A    between atoms: C_3  and  C_4
REMARK                            x       y       z     vdW  Elec       q    Type
REMARK                         _______ _______ _______ _____ _____    ______ ____
ROOT
ATOM      1  C   LIG A   1      -0.019   0.266  -0.345  0.00  0.00    -0.073 C 
ATOM      2  C   LIG A   1       0.611   1.446  -0.474  0.00  0.00    -0.028 C 
ATOM      3  C   LIG A   1       2.105   1.597  -0.536  0.00  0.00    +0.027 C 
ATOM      4  C   LIG A   1       2.861   0.328  -0.142  0.00  0.00    +0.004 C 
ATOM      5  C   LIG A   1       2.207  -0.912  -0.739  0.00  0.00    +0.005 C 
ATOM      6  C   LIG A   1       0.747  -1.038  -0.296  0.00  0.00    +0.030 C 
ENDROOT
BRANCH   1   7
ATOM      7  C   LIG A   1      -1.530   0.170  -0.278  0.00  0.00    +0.030 C 
BRANCH   7   9
ATOM      8  C   LIG A   1      -3.553  -0.557   1.048  0.00  0.00    +0.004 C 
ATOM      9  C   LIG A   1      -2.035  -0.442   1.031  0.00  0.00    +0.001 C 
ENDBRANCH   7   9
ENDBRANCH   1   7
TORSDOF 2
