@<TRIPOS>MOLECULE
NuBBE_1295
 131 135 0 0 0
SMALL
GASTEIGER

@<TRIPOS>ATOM
      1 C          -4.2039   -0.6888    2.6005 C.2     1  LIG1       -0.0992
      2 C          -3.0726   -1.2724    2.8658 C.2     1  LIG1       -0.0740
      3 C          -3.1513   -2.8061    2.7962 C.3     1  LIG1       -0.0258
      4 C          -4.1281   -3.3233    3.8479 C.3     1  LIG1       -0.0590
      5 C          -3.4833   -3.4968    1.4456 C.3     1  LIG1       -0.0590
      6 C          -2.0292   -0.1331    3.1316 C.3     1  LIG1       -0.0315
      7 C          -0.6517    0.1633    2.5535 C.3     1  LIG1       -0.0465
      8 C           0.5638   -0.9685    1.8101 C.3     1  LIG1       -0.0402
      9 H           0.9918   -1.3874    2.6531 H       1  LIG1        0.0301
     10 C           2.4057   -1.0386    1.6357 C.3     1  LIG1       -0.0325
     11 H           2.6648   -1.8719    2.3456 H       1  LIG1        0.0309
     12 C           3.5228   -0.1239    2.2759 C.3     1  LIG1       -0.0489
     13 C           4.0665    0.6849    1.1352 C.3     1  LIG1       -0.0466
     14 C           3.7437   -0.0576   -0.2043 C.3     1  LIG1       -0.0231
     15 C           5.0672   -0.3788   -0.8160 C.3     1  LIG1       -0.0588
     16 C           2.8665    0.9034   -1.3225 C.3     1  LIG1       -0.0289
     17 C           3.5247    1.9856   -2.1395 C.3     1  LIG1       -0.0489
     18 C           2.4531    2.9639   -2.7543 C.3     1  LIG1       -0.0488
     19 C           1.4223    2.3997   -3.8067 C.3     1  LIG1       -0.0263
     20 C           1.0167    0.9665   -3.5469 C.3     1  LIG1       -0.0192
     21 C           1.8798    0.1664   -2.3382 C.3     1  LIG1       -0.0194
     22 C           2.1573   -1.2755   -2.3165 C.3     1  LIG1       -0.0460
     23 C           2.1014   -1.7743   -0.8825 C.3     1  LIG1       -0.0463
     24 C           3.0510   -1.4043    0.2468 C.3     1  LIG1       -0.0233
     25 C           3.9364   -2.6795    0.6861 C.3     1  LIG1       -0.0588
     26 C           0.5153    0.7049   -2.2415 C.3     1  LIG1       -0.0401
     27 C          -0.1665    0.4708   -4.4585 C.3     1  LIG1       -0.0432
     28 C          -1.4914    1.3328   -4.2913 C.3     1  LIG1       -0.0146
     29 C          -1.3140    2.8055   -3.8497 C.3     1  LIG1        0.1084
     30 H          -1.9748    3.3839   -4.4991 H       1  LIG1        0.0739
     31 C           0.1572    3.3316   -4.2167 C.3     1  LIG1        0.0055
     32 C           0.1620    3.3461   -5.7916 C.3     1  LIG1       -0.0562
     33 C           0.3242    4.8009   -3.8029 C.3     1  LIG1       -0.0562
     34 O          -2.0051    3.0615   -2.5504 O.3     1  LIG1       -0.4608
     35 C          -1.5436    3.2318   -1.4165 C.2     1  LIG1        0.3074
     36 C          -2.0656    3.4130   -0.0859 C.3     1  LIG1        0.0449
     37 C          -3.5946    3.2905    0.0038 C.3     1  LIG1       -0.0430
     38 C          -4.5401    2.1213   -0.4010 C.3     1  LIG1       -0.0526
     39 C          -4.4362    0.8076    0.3037 C.3     1  LIG1       -0.0530
     40 C          -3.2022   -0.0470   -0.0663 C.3     1  LIG1       -0.0531
     41 C          -1.9894    0.7776    0.1522 C.3     1  LIG1       -0.0531
     42 C          -0.5779    0.3505   -0.0055 C.3     1  LIG1       -0.0531
     43 C           0.8059    1.1070    0.7540 C.3     1  LIG1       -0.0531
     44 C           1.3214    1.4201    2.4670 C.3     1  LIG1       -0.0531
     45 C           1.3606    0.2182    3.9461 C.3     1  LIG1       -0.0531
     46 C           0.3710   -1.1185    4.4550 C.3     1  LIG1       -0.0531
     47 C          -0.0958   -2.5230    3.5111 C.3     1  LIG1       -0.0531
     48 C           0.8124   -3.5375    2.1358 C.3     1  LIG1       -0.0533
     49 C           0.2184   -4.1640    0.4762 C.3     1  LIG1       -0.0559
     50 C           1.2647   -4.9164   -0.2574 C.3     1  LIG1       -0.0653
     51 O          -0.0015    3.2542   -1.3365 O.2     1  LIG1       -0.2508
     52 C          -0.6134   -2.0843    1.1460 C.3     1  LIG1       -0.0621
     53 H          -5.0733   -1.1667    2.1333 H       1  LIG1        0.0534
     54 H          -4.1268    0.3854    2.6150 H       1  LIG1        0.0534
     55 H          -2.2832   -3.3566    3.0839 H       1  LIG1        0.0340
     56 H          -5.1352   -3.4121    3.4335 H       1  LIG1        0.0235
     57 H          -4.1373   -2.6931    4.7422 H       1  LIG1        0.0235
     58 H          -3.7903   -4.3207    4.1506 H       1  LIG1        0.0235
     59 H          -4.5343   -3.3941    1.1834 H       1  LIG1        0.0235
     60 H          -3.2366   -4.5619    1.5599 H       1  LIG1        0.0235
     61 H          -2.9090   -3.1868    0.5690 H       1  LIG1        0.0235
     62 H          -1.9918    0.0352    4.2028 H       1  LIG1        0.0310
     63 H          -2.4452    0.8871    2.9330 H       1  LIG1        0.0310
     64 H          -0.3733    0.8973    3.3047 H       1  LIG1        0.0271
     65 H          -0.7494    0.9973    1.8931 H       1  LIG1        0.0271
     66 H           4.2738   -0.7543    2.7976 H       1  LIG1        0.0268
     67 H           3.3547    0.5655    3.1056 H       1  LIG1        0.0268
     68 H           5.1218    0.8277    1.3755 H       1  LIG1        0.0271
     69 H           3.6158    1.6760    1.1331 H       1  LIG1        0.0271
     70 H           5.5991    0.5575   -0.9706 H       1  LIG1        0.0235
     71 H           4.9006   -0.8968   -1.7530 H       1  LIG1        0.0235
     72 H           5.6555   -1.0131   -0.1486 H       1  LIG1        0.0235
     73 H           2.3473    1.5952   -0.6790 H       1  LIG1        0.0312
     74 H           4.1081    1.4999   -2.9147 H       1  LIG1        0.0268
     75 H           4.1659    2.5575   -1.4596 H       1  LIG1        0.0268
     76 H           3.0200    3.7552   -3.2511 H       1  LIG1        0.0268
     77 H           1.9352    3.4649   -1.9263 H       1  LIG1        0.0268
     78 H           2.0395    2.2962   -4.7048 H       1  LIG1        0.0313
     79 H           3.1384   -1.4755   -2.7450 H       1  LIG1        0.0271
     80 H           1.4191   -1.8347   -2.9004 H       1  LIG1        0.0271
     81 H           2.1525   -2.8089   -1.0471 H       1  LIG1        0.0271
     82 H           1.1378   -1.4941   -0.5512 H       1  LIG1        0.0271
     83 H           3.3637   -3.4191    1.2763 H       1  LIG1        0.0235
     84 H           4.7490   -2.4255    1.3809 H       1  LIG1        0.0235
     85 H           4.3118   -3.2711   -0.1462 H       1  LIG1        0.0235
     86 H           0.5076    1.4600   -1.5075 H       1  LIG1        0.0276
     87 H          -0.4890    0.2972   -2.3316 H       1  LIG1        0.0276
     88 H          -0.4620   -0.5612   -4.2066 H       1  LIG1        0.0272
     89 H           0.1510    0.4240   -5.5010 H       1  LIG1        0.0272
     90 H          -2.1885    0.8455   -3.5949 H       1  LIG1        0.0301
     91 H          -2.0278    1.3191   -5.2544 H       1  LIG1        0.0301
     92 H          -0.0094    2.3590   -6.2272 H       1  LIG1        0.0236
     93 H           1.1220    3.6968   -6.1814 H       1  LIG1        0.0236
     94 H          -0.6239    3.9961   -6.1916 H       1  LIG1        0.0236
     95 H          -0.5514    5.3920   -4.0961 H       1  LIG1        0.0236
     96 H           1.1951    5.2397   -4.2996 H       1  LIG1        0.0236
     97 H           0.4533    4.9369   -2.7297 H       1  LIG1        0.0236
     98 H          -1.7402    4.4003    0.2551 H       1  LIG1        0.0377
     99 H          -1.5739    2.8529    0.7355 H       1  LIG1        0.0377
    100 H          -3.9258    4.0800   -0.6477 H       1  LIG1        0.0270
    101 H          -3.8273    3.5245    1.0579 H       1  LIG1        0.0270
    102 H          -4.5735    1.9070   -1.4622 H       1  LIG1        0.0265
    103 H          -5.5390    2.4838   -0.1004 H       1  LIG1        0.0265
    104 H          -5.3164    0.1663    0.1915 H       1  LIG1        0.0265
    105 H          -4.5550    1.2308    1.3006 H       1  LIG1        0.0265
    106 H          -3.1949   -0.3396   -1.1099 H       1  LIG1        0.0265
    107 H          -3.1699   -0.9801    0.4721 H       1  LIG1        0.0265
    108 H          -2.1941    1.2555    1.0927 H       1  LIG1        0.0265
    109 H          -2.0421    1.3905   -0.7004 H       1  LIG1        0.0265
    110 H          -0.4467   -0.3589   -0.8263 H       1  LIG1        0.0265
    111 H          -0.7423   -0.4582    0.5312 H       1  LIG1        0.0265
    112 H           0.8891    2.0854    0.3096 H       1  LIG1        0.0265
    113 H           1.5555    0.4391    0.3901 H       1  LIG1        0.0265
    114 H           0.7040    2.2987    2.7182 H       1  LIG1        0.0265
    115 H           2.2763    1.9628    2.4469 H       1  LIG1        0.0265
    116 H           1.5722    0.8530    4.8115 H       1  LIG1        0.0265
    117 H           2.2067   -0.4430    3.9036 H       1  LIG1        0.0265
    118 H          -0.5054   -0.6386    4.9075 H       1  LIG1        0.0265
    119 H           0.8404   -1.6366    5.2674 H       1  LIG1        0.0265
    120 H          -0.8133   -1.8955    3.0280 H       1  LIG1        0.0265
    121 H          -0.9011   -3.0263    4.0216 H       1  LIG1        0.0265
    122 H           1.5016   -4.1872    2.6522 H       1  LIG1        0.0265
    123 H           1.4980   -2.9234    1.5701 H       1  LIG1        0.0265
    124 H          -0.0466   -3.5338   -0.4341 H       1  LIG1        0.0263
    125 H          -0.7416   -4.6667    0.5847 H       1  LIG1        0.0263
    126 H           2.0930   -4.3934   -0.7186 H       1  LIG1        0.0230
    127 H           0.7663   -5.3819   -1.1130 H       1  LIG1        0.0230
    128 H           1.7140   -5.4860    0.5257 H       1  LIG1        0.0230
    129 H          -0.9708   -2.9996    1.6235 H       1  LIG1        0.0233
    130 H          -0.2809   -2.1241    0.1545 H       1  LIG1        0.0233
    131 H          -1.6339   -1.7678    1.0242 H       1  LIG1        0.0233
@<TRIPOS>BOND
     1     1     2    2
     2     2     3    1
     3     3     4    1
     4     3     5    1
     5     2     6    1
     6     6     7    1
     7    10    12    1
     8    12    13    1
     9    13    14    1
    10    14    15    1
    11    14    16    1
    12    16    17    1
    13    17    18    1
    14    18    19    1
    15    19    20    1
    16    20    21    1
    17    21    22    1
    18    22    23    1
    19    23    24    1
    20    10    24    1
    21    14    24    1
    22    24    25    1
    23    16    21    1
    24    21    26    1
    25    20    26    1
    26    20    27    1
    27    27    28    1
    28    28    29    1
    29    29    31    1
    30    31    32    1
    31    19    31    1
    32    31    33    1
    33    34    35    1
    34    35    36    1
    35    36    37    1
    36    37    38    1
    37    38    39    1
    38    39    40    1
    39    40    41    1
    40    41    42    1
    41    42    43    1
    42    43    44    1
    43    44    45    1
    44    45    46    1
    45    46    47    1
    46    47    48    1
    47    48    49    1
    48    49    50    1
    49    35    51    2
    50     8    52    1
    51    10    11    1
    52    10     8    1
    53     8     9    1
    54     8     7    1
    55    29    34    1
    56    29    30    1
    57     1    53    1
    58     1    54    1
    59     3    55    1
    60     4    56    1
    61     4    57    1
    62     4    58    1
    63     5    59    1
    64     5    60    1
    65     5    61    1
    66     6    62    1
    67     6    63    1
    68     7    64    1
    69     7    65    1
    70    12    66    1
    71    12    67    1
    72    13    68    1
    73    13    69    1
    74    15    70    1
    75    15    71    1
    76    15    72    1
    77    16    73    1
    78    17    74    1
    79    17    75    1
    80    18    76    1
    81    18    77    1
    82    19    78    1
    83    22    79    1
    84    22    80    1
    85    23    81    1
    86    23    82    1
    87    25    83    1
    88    25    84    1
    89    25    85    1
    90    26    86    1
    91    26    87    1
    92    27    88    1
    93    27    89    1
    94    28    90    1
    95    28    91    1
    96    32    92    1
    97    32    93    1
    98    32    94    1
    99    33    95    1
   100    33    96    1
   101    33    97    1
   102    36    98    1
   103    36    99    1
   104    37   100    1
   105    37   101    1
   106    38   102    1
   107    38   103    1
   108    39   104    1
   109    39   105    1
   110    40   106    1
   111    40   107    1
   112    41   108    1
   113    41   109    1
   114    42   110    1
   115    42   111    1
   116    43   112    1
   117    43   113    1
   118    44   114    1
   119    44   115    1
   120    45   116    1
   121    45   117    1
   122    46   118    1
   123    46   119    1
   124    47   120    1
   125    47   121    1
   126    48   122    1
   127    48   123    1
   128    49   124    1
   129    49   125    1
   130    50   126    1
   131    50   127    1
   132    50   128    1
   133    52   129    1
   134    52   130    1
   135    52   131    1
