@<TRIPOS>MOLECULE
NuBBE_1018
 51 52 0 0 0
SMALL
GASTEIGER

@<TRIPOS>ATOM
      1 O           2.7114    0.1656   -0.8259 O.3     1  LIG1       -0.3860
      2 C           1.9245   -0.6727    0.0472 C.3     1  LIG1        0.1138
      3 H           1.7059   -0.0500    0.9264 H       1  LIG1        0.0651
      4 C           2.8519   -1.8408    0.5262 C.3     1  LIG1        0.0890
      5 O           3.9760   -1.2082    1.1933 O.3     1  LIG1       -0.3865
      6 C           2.2147   -2.7833    1.5506 C.3     1  LIG1       -0.0338
      7 C           3.4539   -2.6357   -0.6392 C.3     1  LIG1       -0.0338
      8 C           0.5584   -1.0776   -0.6081 C.3     1  LIG1        0.1231
      9 H           0.7264   -1.7535   -1.4526 H       1  LIG1        0.0677
     10 O          -0.1659   -1.8229    0.3839 O.3     1  LIG1       -0.3286
     11 C          -1.4949   -1.3919    0.6397 C.3     1  LIG1        0.2075
     12 C          -2.4496   -1.9275   -0.4397 C.3     1  LIG1        0.0008
     13 C          -1.9030   -2.0241    1.9762 C.3     1  LIG1        0.0008
     14 O          -1.5991    0.0226    0.8442 O.3     1  LIG1       -0.4609
     15 C          -0.1963    0.1496   -1.0893 C.ar    1  LIG1        0.0674
     16 C          -1.1160    0.7366   -0.2181 C.ar    1  LIG1        0.1365
     17 C          -1.6129    2.0285   -0.4293 C.ar    1  LIG1       -0.0045
     18 C          -2.4684    2.7312    0.6000 C.3     1  LIG1       -0.0141
     19 C          -1.7369    2.9204    1.9309 C.3     1  LIG1        0.0489
     20 C          -2.5999    3.6261    2.9389 C.2     1  LIG1        0.3050
     21 O          -1.9295    3.8565    4.0891 O.3     1  LIG1       -0.4806
     22 O          -3.7572    3.9666    2.8179 O.2     1  LIG1       -0.2510
     23 C          -1.3086    2.6572   -1.6396 C.ar    1  LIG1       -0.0516
     24 C          -0.5351    2.0031   -2.6032 C.ar    1  LIG1       -0.0191
     25 C           0.0384    0.7565   -2.3306 C.ar    1  LIG1        0.1293
     26 O           0.7745    0.0361   -3.2344 O.3     1  LIG1       -0.4946
     27 C           1.3692    0.7807   -4.2903 C.3     1  LIG1        0.0788
     28 H           3.5030    0.3892   -0.2980 H       1  LIG1        0.2100
     29 H           4.5566   -1.9189    1.5204 H       1  LIG1        0.2102
     30 H           1.8773   -2.2256    2.4315 H       1  LIG1        0.0258
     31 H           2.9448   -3.5157    1.9154 H       1  LIG1        0.0258
     32 H           1.3798   -3.3556    1.1410 H       1  LIG1        0.0258
     33 H           4.1556   -2.0210   -1.2151 H       1  LIG1        0.0258
     34 H           2.6899   -3.0288   -1.3140 H       1  LIG1        0.0258
     35 H           4.0434   -3.4824   -0.2655 H       1  LIG1        0.0258
     36 H          -2.4414   -3.0235   -0.4501 H       1  LIG1        0.0293
     37 H          -2.1555   -1.6177   -1.4473 H       1  LIG1        0.0293
     38 H          -3.4725   -1.5740   -0.2779 H       1  LIG1        0.0293
     39 H          -1.7235   -3.1046    1.9819 H       1  LIG1        0.0293
     40 H          -2.9604   -1.8370    2.1968 H       1  LIG1        0.0293
     41 H          -1.3247   -1.5929    2.8019 H       1  LIG1        0.0293
     42 H          -3.3979    2.1654    0.7383 H       1  LIG1        0.0319
     43 H          -2.7706    3.7163    0.2194 H       1  LIG1        0.0319
     44 H          -0.8275    3.5124    1.7762 H       1  LIG1        0.0381
     45 H          -1.4528    1.9584    2.3683 H       1  LIG1        0.0381
     46 H          -2.5865    4.2982    4.6664 H       1  LIG1        0.2951
     47 H          -1.6952    3.6495   -1.8612 H       1  LIG1        0.0623
     48 H          -0.3933    2.4998   -3.5572 H       1  LIG1        0.0654
     49 H           2.0148    0.1039   -4.8574 H       1  LIG1        0.0660
     50 H           1.9908    1.5900   -3.8938 H       1  LIG1        0.0660
     51 H           0.6139    1.1657   -4.9839 H       1  LIG1        0.0660
@<TRIPOS>BOND
     1     2     4    1
     2     4     5    1
     3     4     6    1
     4     4     7    1
     5     8    10    1
     6    10    11    1
     7    11    12    1
     8    11    13    1
     9    11    14    1
    10     8    15    1
    11    15    16   ar
    12    14    16    1
    13    16    17   ar
    14    17    18    1
    15    18    19    1
    16    19    20    1
    17    20    21    1
    18    20    22    2
    19    17    23   ar
    20    23    24   ar
    21    15    25   ar
    22    24    25   ar
    23    25    26    1
    24    26    27    1
    25     2     3    1
    26     2     1    1
    27     8     9    1
    28     8     2    1
    29     1    28    1
    30     5    29    1
    31     6    30    1
    32     6    31    1
    33     6    32    1
    34     7    33    1
    35     7    34    1
    36     7    35    1
    37    12    36    1
    38    12    37    1
    39    12    38    1
    40    13    39    1
    41    13    40    1
    42    13    41    1
    43    18    42    1
    44    18    43    1
    45    19    44    1
    46    19    45    1
    47    21    46    1
    48    23    47    1
    49    24    48    1
    50    27    49    1
    51    27    50    1
    52    27    51    1
