REMARK  Name = NuBBE_2150
REMARK  10 active torsions:
REMARK  status: ('A' for Active; 'I' for Inactive)
REMARK    1  A    between atoms: C_1  and  O_2
REMARK    2  A    between atoms: O_2  and  C_3
REMARK    3  A    between atoms: C_10  and  C_11
REMARK    4  A    between atoms: C_13  and  C_15
REMARK    5  A    between atoms: C_16  and  C_17
REMARK    6  A    between atoms: C_17  and  C_18
REMARK    7  A    between atoms: C_20  and  O_21
REMARK    8  A    between atoms: C_25  and  O_27
REMARK    9  A    between atoms: C_28  and  O_29
REMARK   10  A    between atoms: O_29  and  C_30
REMARK                            x       y       z     vdW  Elec       q    Type
REMARK                         _______ _______ _______ _____ _____    ______ ____
ROOT
ATOM      1  C   LIG A   1       0.641  -0.151  -0.475  0.00  0.00    +0.060 C 
ATOM      2  C   LIG A   1       0.773   1.243   0.224  0.00  0.00    +0.006 C 
ATOM      3  C   LIG A   1       2.243   1.568   0.513  0.00  0.00    +0.009 C 
ATOM      4  C   LIG A   1      -0.013   2.263  -0.678  0.00  0.00    +0.013 C 
ATOM      5  C   LIG A   1      -1.037   1.334  -1.374  0.00  0.00    +0.157 C 
ATOM      6  C   LIG A   1       0.858   2.938  -1.758  0.00  0.00    +0.087 C 
ATOM      7  C   LIG A   1       1.563   1.909  -2.603  0.00  0.00    +0.165 C 
ATOM      8  C   LIG A   1       0.806   0.635  -2.958  0.00  0.00    +0.215 C 
ATOM      9  C   LIG A   1      -0.139   0.149  -1.806  0.00  0.00    +0.135 C 
ATOM     10  O   LIG A   1       2.701   2.130  -3.044  0.00  0.00    -0.294 OA
ENDROOT
BRANCH   1  18
ATOM     11  C   LIG A   1       0.484  -2.958   2.181  0.00  0.00    +0.166 A 
ATOM     12  C   LIG A   1      -0.875  -3.208   2.202  0.00  0.00    +0.207 A 
ATOM     13  O   LIG A   1      -1.537  -4.176   2.897  0.00  0.00    -0.449 OA
ATOM     14  C   LIG A   1      -2.874  -4.029   2.393  0.00  0.00    +0.467 C 
ATOM     15  O   LIG A   1      -3.041  -2.850   1.587  0.00  0.00    -0.453 OA
ATOM     16  C   LIG A   1      -1.744  -2.454   1.451  0.00  0.00    +0.170 A 
ATOM     17  C   LIG A   1      -1.319  -1.432   0.625  0.00  0.00    +0.053 A 
ATOM     18  C   LIG A   1       0.056  -1.180   0.507  0.00  0.00    -0.034 A 
ATOM     19  C   LIG A   1       0.940  -1.937   1.323  0.00  0.00    +0.053 A 
BRANCH  11  21
ATOM     20  C   LIG A   1       1.007  -4.662   3.747  0.00  0.00    +0.277 C 
ATOM     21  O   LIG A   1       1.453  -3.615   2.888  0.00  0.00    -0.491 OA
ENDBRANCH  11  21
ENDBRANCH   1  18
BRANCH   5  22
ATOM     22  O   LIG A   1      -1.696   1.953  -2.474  0.00  0.00    -0.388 OA
ATOM     23  H   LIG A   1      -2.498   1.417  -2.646  0.00  0.00    +0.210 HD
ENDBRANCH   5  22
BRANCH   8  24
ATOM     24  O   LIG A   1       0.081   0.852  -4.174  0.00  0.00    -0.381 OA
ATOM     25  H   LIG A   1      -0.682   1.421  -3.948  0.00  0.00    +0.210 HD
ENDBRANCH   8  24
BRANCH   9  26
ATOM     26  O   LIG A   1      -0.967  -0.936  -2.265  0.00  0.00    -0.370 OA
ATOM     27  C   LIG A   1      -0.257  -2.094  -2.707  0.00  0.00    +0.195 C 
ENDBRANCH   9  26
BRANCH   4  28
ATOM     28  C   LIG A   1      -0.758   3.342   0.154  0.00  0.00    +0.037 C 
BRANCH  28  29
ATOM     29  C   LIG A   1       0.120   4.213   1.013  0.00  0.00    -0.034 C 
ATOM     30  C   LIG A   1       0.209   5.544   0.906  0.00  0.00    +0.004 C 
ENDBRANCH  28  29
ENDBRANCH   4  28
TORSDOF 7
