REMARK  Name = NuBBE_2075
REMARK  4 active torsions:
REMARK  status: ('A' for Active; 'I' for Inactive)
REMARK    1  A    between atoms: C_3  and  C_4
REMARK    2  A    between atoms: C_5  and  O_6
REMARK    3  A    between atoms: O_6  and  C_7
REMARK    4  A    between atoms: C_17  and  O_19
REMARK                            x       y       z     vdW  Elec       q    Type
REMARK                         _______ _______ _______ _____ _____    ______ ____
ROOT
ATOM      1  O   LIG A   1      -4.203  -1.314   0.275  0.00  0.00    -0.250 OA
ATOM      2  C   LIG A   1      -2.995  -1.249   0.391  0.00  0.00    +0.319 C 
ATOM      3  C   LIG A   1      -2.130  -0.060   0.726  0.00  0.00    +0.125 C 
ATOM      4  C   LIG A   1      -2.005  -0.247   2.270  0.00  0.00    +0.029 C 
ATOM      5  C   LIG A   1      -2.307   1.439   0.345  0.00  0.00    +0.185 C 
ATOM      6  C   LIG A   1      -1.906   1.822  -1.132  0.00  0.00    +0.067 C 
ATOM      7  C   LIG A   1      -0.387   1.481  -1.412  0.00  0.00    +0.015 C 
ATOM      8  C   LIG A   1       0.099   0.573  -0.242  0.00  0.00    +0.005 C 
ATOM      9  C   LIG A   1       0.015   1.576   0.958  0.00  0.00    +0.170 C 
ATOM     10  O   LIG A   1      -1.298   2.149   1.121  0.00  0.00    -0.347 OA
ATOM     11  C   LIG A   1       1.515  -0.068  -0.233  0.00  0.00    +0.003 C 
ATOM     12  C   LIG A   1       2.494   0.529  -1.251  0.00  0.00    +0.004 C 
ATOM     13  C   LIG A   1       3.913   0.011  -1.007  0.00  0.00    +0.003 C 
ATOM     14  C   LIG A   1       3.980  -1.513  -0.962  0.00  0.00    +0.031 C 
ATOM     15  C   LIG A   1       2.972  -2.126   0.017  0.00  0.00    +0.118 C 
ATOM     16  C   LIG A   1       1.551  -1.628  -0.300  0.00  0.00    +0.025 C 
ATOM     17  C   LIG A   1       0.448  -2.285   0.581  0.00  0.00    +0.051 C 
ATOM     18  C   LIG A   1      -0.861  -1.948  -0.100  0.00  0.00    +0.182 C 
ATOM     19  O   LIG A   1      -2.134  -2.365   0.404  0.00  0.00    -0.461 OA
ATOM     20  C   LIG A   1      -1.016  -0.474  -0.208  0.00  0.00    +0.060 C 
ENDROOT
BRANCH   5  21
ATOM     21  O   LIG A   1      -3.614   1.840   0.723  0.00  0.00    -0.351 OA
ATOM     22  C   LIG A   1      -3.895   3.223   0.592  0.00  0.00    +0.197 C 
ENDBRANCH   5  21
BRANCH  15  23
ATOM     23  O   LIG A   1       3.044  -3.540  -0.125  0.00  0.00    -0.392 OA
ATOM     24  H   LIG A   1       2.699  -3.944   0.690  0.00  0.00    +0.210 HD
ENDBRANCH  15  23
TORSDOF 2
