REMARK  Name = NuBBE_1204
REMARK  12 active torsions:
REMARK  status: ('A' for Active; 'I' for Inactive)
REMARK    1  A    between atoms: C_1  and  C_2
REMARK    2  A    between atoms: C_4  and  C_5
REMARK    3  A    between atoms: C_4  and  C_13
REMARK    4  A    between atoms: C_6  and  O_12
REMARK    5  A    between atoms: C_8  and  O_11
REMARK    6  A    between atoms: C_16  and  C_38
REMARK    7  A    between atoms: C_21  and  C_37
REMARK    8  A    between atoms: C_24  and  C_34
REMARK    9  A    between atoms: C_26  and  C_27
REMARK   10  A    between atoms: C_26  and  O_33
REMARK   11  A    between atoms: C_28  and  C_32
REMARK   12  A    between atoms: C_34  and  O_35
REMARK                            x       y       z     vdW  Elec       q    Type
REMARK                         _______ _______ _______ _____ _____    ______ ____
ROOT
ATOM      1  C   LIG A   1      -3.466  -1.215  -1.530  0.00  0.00    +0.012 C 
ATOM      2  C   LIG A   1      -2.219  -1.472  -0.659  0.00  0.00    -0.023 C 
ATOM      3  C   LIG A   1      -1.235  -2.569  -1.215  0.00  0.00    +0.003 C 
ATOM      4  C   LIG A   1      -1.758  -4.047  -1.201  0.00  0.00    -0.003 C 
ATOM      5  C   LIG A   1      -0.596  -5.022  -1.551  0.00  0.00    +0.014 C 
ATOM      6  C   LIG A   1      -2.196  -4.384   0.255  0.00  0.00    +0.149 C 
ATOM      7  C   LIG A   1      -3.163  -3.377   0.890  0.00  0.00    +0.144 C 
ATOM      8  C   LIG A   1      -2.697  -1.926   0.763  0.00  0.00    +0.041 C 
ATOM      9  C   LIG A   1      -2.861  -4.326  -2.238  0.00  0.00    +0.014 C 
ATOM     10  C   LIG A   1      -0.583  -2.112  -2.532  0.00  0.00    +0.005 C 
ATOM     11  C   LIG A   1       0.229  -0.822  -2.336  0.00  0.00    +0.008 C 
ATOM     12  C   LIG A   1      -0.564   0.391  -1.754  0.00  0.00    -0.019 C 
ATOM     13  C   LIG A   1      -1.354  -0.153  -0.503  0.00  0.00    +0.006 C 
ATOM     14  C   LIG A   1      -2.036   1.025   0.206  0.00  0.00    +0.031 C 
ATOM     15  C   LIG A   1      -0.938   1.828   0.830  0.00  0.00    -0.026 C 
ATOM     16  C   LIG A   1       0.290   1.967   0.279  0.00  0.00    -0.060 C 
ATOM     17  C   LIG A   1       0.407   1.663  -1.255  0.00  0.00    -0.005 C 
ATOM     18  C   LIG A   1       1.881   1.466  -1.670  0.00  0.00    +0.012 C 
ATOM     19  C   LIG A   1       2.721   0.881  -0.547  0.00  0.00    +0.019 C 
ATOM     20  C   LIG A   1       2.946   1.925   0.577  0.00  0.00    +0.077 C 
ATOM     21  C   LIG A   1       1.544   2.497   1.089  0.00  0.00    +0.064 C 
ATOM     22  C   LIG A   1       1.387   2.532   2.687  0.00  0.00    +0.073 C 
ATOM     23  C   LIG A   1       0.664   3.821   3.129  0.00  0.00    +0.042 C 
ATOM     24  C   LIG A   1       2.679   2.336   3.517  0.00  0.00    +0.018 C 
ATOM     25  C   LIG A   1       3.392   1.087   3.014  0.00  0.00    +0.007 C 
ATOM     26  C   LIG A   1       3.912   1.269   1.609  0.00  0.00    +0.019 C 
ATOM     27  C   LIG A   1       3.614   3.538   3.637  0.00  0.00    +0.010 C 
ATOM     28  C   LIG A   1      -0.016   3.015  -1.918  0.00  0.00    +0.016 C 
ATOM     29  C   LIG A   1      -1.500   0.861  -2.902  0.00  0.00    +0.012 C 
ENDROOT
BRANCH   7  30
ATOM     30  O   LIG A   1      -4.480  -3.545   0.368  0.00  0.00    -0.389 OA
ATOM     31  H   LIG A   1      -4.553  -4.492   0.133  0.00  0.00    +0.210 HD
ENDBRANCH   7  30
BRANCH   6  32
ATOM     32  O   LIG A   1      -2.805  -5.682   0.312  0.00  0.00    -0.389 OA
ATOM     33  H   LIG A   1      -2.824  -5.949   1.249  0.00  0.00    +0.210 HD
ENDBRANCH   6  32
BRANCH  22  34
ATOM     34  O   LIG A   1       0.575   1.410   3.111  0.00  0.00    -0.388 OA
ATOM     35  H   LIG A   1       0.312   1.553   4.036  0.00  0.00    +0.210 HD
ENDBRANCH  22  34
BRANCH  20  36
ATOM     36  C   LIG A   1       3.811   3.039  -0.061  0.00  0.00    +0.312 C 
ATOM     37  O   LIG A   1       4.749   2.864  -0.829  0.00  0.00    -0.250 OA
BRANCH  36  38
ATOM     38  O   LIG A   1       3.540   4.294   0.334  0.00  0.00    -0.480 OA
ATOM     39  H   LIG A   1       4.202   4.835  -0.147  0.00  0.00    +0.295 HD
ENDBRANCH  36  38
ENDBRANCH  20  36
TORSDOF 5
