REMARK  Name = NuBBE_293
REMARK  5 active torsions:
REMARK  status: ('A' for Active; 'I' for Inactive)
REMARK    1  A    between atoms: O_1  and  C_2
REMARK    2  A    between atoms: C_6  and  C_7
REMARK    3  A    between atoms: C_10  and  O_11
REMARK    4  A    between atoms: C_18  and  O_19
REMARK    5  A    between atoms: O_19  and  C_20
REMARK                            x       y       z     vdW  Elec       q    Type
REMARK                         _______ _______ _______ _____ _____    ______ ____
ROOT
ATOM      1  C   LIG A   1      -2.137   2.436   0.447  0.00  0.00    +0.134 A 
ATOM      2  C   LIG A   1      -1.523   1.203   0.209  0.00  0.00    +0.101 A 
ATOM      3  C   LIG A   1      -2.305  -0.036   0.049  0.00  0.00    +0.174 C 
ATOM      4  C   LIG A   1      -1.550  -1.270  -0.364  0.00  0.00    +0.129 C 
ATOM      5  C   LIG A   1      -0.153  -1.211   0.239  0.00  0.00    +0.211 C 
ATOM      6  O   LIG A   1       0.544  -0.023  -0.175  0.00  0.00    -0.483 OA
ATOM      7  O   LIG A   1      -3.525  -0.009   0.184  0.00  0.00    -0.292 OA
ATOM      8  C   LIG A   1      -0.139   1.137   0.070  0.00  0.00    +0.139 A 
ATOM      9  C   LIG A   1       0.622   2.304   0.143  0.00  0.00    +0.092 A 
ATOM     10  C   LIG A   1       0.013   3.535   0.402  0.00  0.00    +0.127 A 
ATOM     11  C   LIG A   1      -1.374   3.600   0.547  0.00  0.00    +0.092 A 
ENDROOT
BRANCH   5  12
ATOM     12  C   LIG A   1       0.673  -2.418  -0.177  0.00  0.00    -0.007 A 
ATOM     13  C   LIG A   1       1.430  -2.411  -1.363  0.00  0.00    +0.011 A 
ATOM     14  C   LIG A   1       2.205  -3.515  -1.728  0.00  0.00    +0.046 A 
ATOM     15  C   LIG A   1       2.217  -4.640  -0.914  0.00  0.00    +0.117 A 
ATOM     16  C   LIG A   1       1.464  -4.680   0.252  0.00  0.00    +0.046 A 
ATOM     17  C   LIG A   1       0.691  -3.575   0.620  0.00  0.00    +0.011 A 
BRANCH  15  18
ATOM     18  O   LIG A   1       2.965  -5.736  -1.228  0.00  0.00    -0.507 OA
ATOM     19  H   LIG A   1       3.442  -5.560  -2.056  0.00  0.00    +0.292 HD
ENDBRANCH  15  18
ENDBRANCH   5  12
BRANCH   1  20
ATOM     20  O   LIG A   1      -3.493   2.581   0.579  0.00  0.00    -0.506 OA
ATOM     21  H   LIG A   1      -3.908   1.695   0.470  0.00  0.00    +0.292 HD
ENDBRANCH   1  20
BRANCH  10  22
ATOM     22  O   LIG A   1       0.868   4.601   0.467  0.00  0.00    -0.495 OA
ATOM     23  C   LIG A   1       0.369   5.769   1.111  0.00  0.00    +0.277 C 
ENDBRANCH  10  22
TORSDOF 4
