@<TRIPOS>MOLECULE
NuBBE_2450
 33 35 0 0 0
SMALL
GASTEIGER

@<TRIPOS>ATOM
      1 O          -1.4553    1.1855    0.0127 O.2     1  LIG1       -0.2864
      2 C          -0.2295    1.1319   -0.0267 C.ar    1  LIG1        0.2003
      3 C           0.5539    2.3782   -0.0195 C.ar    1  LIG1        0.0682
      4 C           1.9446    2.3047   -0.0992 C.ar    1  LIG1        0.1421
      5 C           2.7176    3.4684   -0.1136 C.ar    1  LIG1        0.0265
      6 C           2.0772    4.6996   -0.0407 C.ar    1  LIG1        0.1618
      7 C           0.6871    4.7699    0.0457 C.ar    1  LIG1        0.1591
      8 C          -0.0860    3.6193    0.0571 C.ar    1  LIG1       -0.0022
      9 O           0.0704    5.9853    0.1181 O.3     1  LIG1       -0.5033
     10 O           2.7717    5.8770   -0.0495 O.3     1  LIG1       -0.5032
     11 O           2.6162    1.1127   -0.1638 O.2     1  LIG1       -0.4620
     12 C           1.8732   -0.0425   -0.1440 C.ar    1  LIG1        0.1038
     13 C           0.5339   -0.1536   -0.0924 C.ar    1  LIG1        0.0643
     14 C          -0.1264   -1.4834   -0.0895 C.ar    1  LIG1       -0.0110
     15 C           0.4179   -2.5771   -0.7828 C.ar    1  LIG1       -0.0504
     16 C          -0.2255   -3.8205   -0.7913 C.ar    1  LIG1       -0.0194
     17 C          -1.4368   -4.0000   -0.1259 C.ar    1  LIG1        0.1201
     18 C          -1.9911   -2.9268    0.5646 C.ar    1  LIG1       -0.0194
     19 C          -1.3371   -1.6880    0.5881 C.ar    1  LIG1       -0.0504
     20 O          -1.9728   -5.2532   -0.2283 O.3     1  LIG1       -0.4951
     21 C          -3.2321   -5.4577    0.4011 C.3     1  LIG1        0.0788
     22 H           3.7977    3.3935   -0.1815 H       1  LIG1        0.0692
     23 H          -1.1686    3.6883    0.1228 H       1  LIG1        0.0663
     24 H           0.7969    6.6391    0.0880 H       1  LIG1        0.2923
     25 H           3.7219    5.6750   -0.1077 H       1  LIG1        0.2923
     26 H           2.5535   -0.8853   -0.1751 H       1  LIG1        0.1037
     27 H           1.3443   -2.4843   -1.3442 H       1  LIG1        0.0625
     28 H           0.2182   -4.6519   -1.3339 H       1  LIG1        0.0654
     29 H          -2.9349   -3.0075    1.0934 H       1  LIG1        0.0654
     30 H          -1.8090   -0.8799    1.1442 H       1  LIG1        0.0625
     31 H          -3.5373   -6.4911    0.2130 H       1  LIG1        0.0660
     32 H          -3.9987   -4.8013   -0.0246 H       1  LIG1        0.0660
     33 H          -3.1549   -5.3244    1.4853 H       1  LIG1        0.0660
@<TRIPOS>BOND
     1     1     2    2
     2     2     3   ar
     3     3     4   ar
     4     4     5   ar
     5     5     6   ar
     6     6     7   ar
     7     7     8   ar
     8     3     8   ar
     9     7     9    1
    10     6    10    1
    11     4    11   ar
    12    11    12   ar
    13    12    13   ar
    14     2    13   ar
    15    13    14    1
    16    14    15   ar
    17    15    16   ar
    18    16    17   ar
    19    17    18   ar
    20    18    19   ar
    21    14    19   ar
    22    17    20    1
    23    20    21    1
    24     5    22    1
    25     8    23    1
    26     9    24    1
    27    10    25    1
    28    12    26    1
    29    15    27    1
    30    16    28    1
    31    18    29    1
    32    19    30    1
    33    21    31    1
    34    21    32    1
    35    21    33    1
