@<TRIPOS>MOLECULE
NuBBE_1067
 36 40 0 0 0
SMALL
GASTEIGER

@<TRIPOS>ATOM
      1 O          -1.9128   -0.7791    3.9414 O.3     1  LIG1       -0.5046
      2 C          -0.5439   -0.7766    3.9764 C.ar    1  LIG1        0.1429
      3 C           0.1761   -0.5080    2.8072 C.ar    1  LIG1        0.1198
      4 C           1.5654   -0.5291    2.8821 C.ar    1  LIG1        0.0685
      5 C           2.2262   -0.7944    4.0898 C.ar    1  LIG1       -0.0471
      6 C           1.4840   -1.0558    5.2421 C.ar    1  LIG1       -0.0575
      7 C           0.0906   -1.0500    5.1852 C.ar    1  LIG1       -0.0180
      8 N          -0.5278   -0.2361    1.6156 N.ar    1  LIG1       -0.2236
      9 C           0.1775   -0.0582    0.5437 C.ar    1  LIG1        0.1608
     10 N           1.5705   -0.1032    0.4958 N.ar    1  LIG1       -0.2908
     11 C           2.2902    0.2701   -0.7364 C.3     1  LIG1        0.0322
     12 C           1.5983   -0.1867   -2.0297 C.3     1  LIG1       -0.0068
     13 C           0.1533    0.1397   -1.9426 C.ar    1  LIG1       -0.0097
     14 C          -0.4798    0.1794   -0.7160 C.ar    1  LIG1        0.0867
     15 N          -1.7994    0.4656   -0.9450 N.ar    1  LIG1       -0.3515
     16 H          -2.5037    0.5477   -0.2248 H       1  LIG1        0.1660
     17 C          -2.0167    0.6515   -2.2957 C.ar    1  LIG1        0.0472
     18 C          -0.7976    0.4452   -2.9470 C.ar    1  LIG1        0.0036
     19 C          -0.7427    0.5686   -4.3483 C.ar    1  LIG1       -0.0523
     20 C          -1.9045    0.9004   -5.0526 C.ar    1  LIG1       -0.0611
     21 C          -3.1076    1.1034   -4.3802 C.ar    1  LIG1       -0.0598
     22 C          -3.1884    0.9812   -2.9884 C.ar    1  LIG1       -0.0378
     23 C           2.3228   -0.2623    1.6499 C.ar    1  LIG1        0.2622
     24 O           3.5459   -0.1771    1.6941 O.2     1  LIG1       -0.2669
     25 H          -2.1309   -0.5840    3.0077 H       1  LIG1        0.2922
     26 H           3.3137   -0.8002    4.1309 H       1  LIG1        0.0626
     27 H           1.9911   -1.2659    6.1808 H       1  LIG1        0.0619
     28 H          -0.4977   -1.2576    6.0745 H       1  LIG1        0.0655
     29 H           3.3124   -0.1237   -0.7129 H       1  LIG1        0.0496
     30 H           2.3642    1.3658   -0.7261 H       1  LIG1        0.0496
     31 H           1.7072   -1.2725   -2.1402 H       1  LIG1        0.0331
     32 H           2.0676    0.2892   -2.8965 H       1  LIG1        0.0331
     33 H           0.1908    0.4127   -4.8806 H       1  LIG1        0.0624
     34 H          -1.8649    1.0004   -6.1346 H       1  LIG1        0.0618
     35 H          -3.9996    1.3605   -4.9473 H       1  LIG1        0.0618
     36 H          -4.1297    1.1393   -2.4723 H       1  LIG1        0.0638
@<TRIPOS>BOND
     1     1     2    1
     2     2     3   ar
     3     3     4   ar
     4     4     5   ar
     5     5     6   ar
     6     6     7   ar
     7     2     7   ar
     8     3     8   ar
     9     8     9   ar
    10     9    10   ar
    11    10    11    1
    12    11    12    1
    13    12    13    1
    14    13    14   ar
    15     9    14    1
    16    14    15   ar
    17    15    16    1
    18    15    17   ar
    19    17    18   ar
    20    13    18   ar
    21    18    19   ar
    22    19    20   ar
    23    20    21   ar
    24    21    22   ar
    25    17    22   ar
    26    10    23   ar
    27     4    23   ar
    28    23    24    2
    29     1    25    1
    30     5    26    1
    31     6    27    1
    32     7    28    1
    33    11    29    1
    34    11    30    1
    35    12    31    1
    36    12    32    1
    37    19    33    1
    38    20    34    1
    39    21    35    1
    40    22    36    1
