@<TRIPOS>MOLECULE
NuBBE_1833
 87 90 0 0 0
SMALL
GASTEIGER

@<TRIPOS>ATOM
      1 C           0.1564    4.2246    0.1047 C.3     1  LIG1       -0.0344
      2 C           1.0745    3.3703   -0.8038 C.3     1  LIG1        0.0851
      3 O           1.9882    4.3119   -1.4030 O.3     1  LIG1       -0.3663
      4 C           1.5576    4.6982   -2.6990 C.3     1  LIG1        0.0866
      5 H           2.2638    5.4737   -3.0039 H       1  LIG1        0.0623
      6 C           0.1560    5.3064   -2.6748 C.3     1  LIG1       -0.0359
      7 C           1.7383    3.4773   -3.6166 C.3     1  LIG1        0.1065
      8 O           3.1333    3.1772   -3.7093 O.3     1  LIG1       -0.3846
      9 C           1.1045    2.2296   -3.0852 C.ar    1  LIG1       -0.0070
     10 C           0.5707    2.2321   -1.8256 C.ar    1  LIG1        0.0296
     11 C          -0.1695    1.0374   -1.5617 C.ar    1  LIG1        0.1487
     12 O          -1.1884    1.3569   -0.6270 O.3     1  LIG1       -0.4249
     13 C          -2.2556    0.7383   -0.6901 C.2     1  LIG1        0.3092
     14 C          -3.0183    0.4026    0.3871 C.3     1  LIG1        0.0336
     15 O          -2.7611    0.5014   -1.8205 O.2     1  LIG1       -0.2507
     16 C           0.0342   -0.3849   -2.1532 C.ar    1  LIG1        0.0668
     17 C          -0.2052   -1.8751   -1.7634 C.ar    1  LIG1        0.1388
     18 O          -0.6909   -2.5037   -0.5637 O.3     1  LIG1       -0.4588
     19 C          -1.3613   -1.6703    0.3810 C.3     1  LIG1        0.2432
     20 H          -2.2228   -1.5451   -0.2782 H       1  LIG1        0.1097
     21 C          -1.9573   -2.1539    1.7966 C.3     1  LIG1        0.2048
     22 H          -2.2887   -3.2039    1.6724 H       1  LIG1        0.0837
     23 O          -3.3176   -1.4505    2.3531 O.3     1  LIG1       -0.4513
     24 C          -3.5629   -0.1913    2.8961 C.2     1  LIG1        0.3045
     25 C          -4.9316    0.4107    2.6435 C.3     1  LIG1        0.0332
     26 O          -2.7134    0.6120    3.2680 O.2     1  LIG1       -0.2512
     27 C          -0.8113   -1.9746    2.8167 C.3     1  LIG1        0.1848
     28 H          -1.2197   -2.2834    3.7577 H       1  LIG1        0.0813
     29 O           0.2543   -2.8992    2.4368 O.3     1  LIG1       -0.4537
     30 C           0.1377   -4.1571    2.9304 C.2     1  LIG1        0.3044
     31 C           1.1976   -5.0756    2.3992 C.3     1  LIG1        0.0332
     32 O          -0.7550   -4.5246    3.6814 O.2     1  LIG1       -0.2512
     33 C          -0.1393   -0.5597    2.9504 C.3     1  LIG1        0.1726
     34 H           0.9409   -0.6797    2.8717 H       1  LIG1        0.0801
     35 O          -0.3192    0.2389    4.1595 O.3     1  LIG1       -0.4549
     36 C          -1.2196   -0.0650    5.1282 C.2     1  LIG1        0.3044
     37 C          -1.6553    1.1533    5.8735 C.3     1  LIG1        0.0332
     38 O          -1.7313   -1.1527    5.3536 O.2     1  LIG1       -0.2512
     39 C          -0.4125    0.3032    1.7563 C.3     1  LIG1        0.1371
     40 H          -1.2361    1.0173    1.8719 H       1  LIG1        0.0670
     41 C           0.5644    1.4581    1.5549 C.3     1  LIG1        0.1223
     42 O           1.8860    1.1720    1.0807 O.3     1  LIG1       -0.4621
     43 C           2.0888    0.2407    0.1265 C.2     1  LIG1        0.3040
     44 C           3.0734    0.6259   -0.8972 C.3     1  LIG1        0.0332
     45 O           1.6865   -0.9358    0.1419 O.2     1  LIG1       -0.2512
     46 O          -0.5077   -0.5420    0.6040 O.3     1  LIG1       -0.3282
     47 C           0.3673   -2.9330   -2.4978 C.ar    1  LIG1        0.0234
     48 C           1.1492   -2.6725   -3.6028 C.ar    1  LIG1        0.1357
     49 O           1.9200   -3.6578   -4.2480 O.3     1  LIG1       -0.4259
     50 C           1.7967   -4.9632   -3.7818 C.2     1  LIG1        0.3092
     51 C           3.1544   -5.4929   -3.4529 C.3     1  LIG1        0.0336
     52 O           0.7563   -5.5960   -3.6593 O.2     1  LIG1       -0.2507
     53 C           1.3188   -1.3587   -4.0332 C.ar    1  LIG1       -0.0112
     54 C           0.7854   -0.2484   -3.3397 C.ar    1  LIG1       -0.0070
     55 C           1.1572    1.0277   -3.8325 C.ar    1  LIG1       -0.0475
     56 H           0.3016    4.0254    1.1758 H       1  LIG1        0.0258
     57 H          -0.8935    4.0569   -0.1223 H       1  LIG1        0.0258
     58 H           0.4075    5.2912    0.0617 H       1  LIG1        0.0258
     59 H           1.7944    2.9243   -0.1213 H       1  LIG1        0.0645
     60 H          -0.6253    4.5969   -2.3774 H       1  LIG1        0.0255
     61 H          -0.1073    5.6886   -3.6574 H       1  LIG1        0.0255
     62 H           0.1130    6.1292   -1.9503 H       1  LIG1        0.0255
     63 H           1.3249    3.6827   -4.6041 H       1  LIG1        0.0670
     64 H           3.4382    3.0843   -2.7850 H       1  LIG1        0.2103
     65 H          -3.6408   -0.4988    0.3197 H       1  LIG1        0.0342
     66 H          -2.3513    0.0038    1.1399 H       1  LIG1        0.0342
     67 H          -3.3803    1.2809    0.8861 H       1  LIG1        0.0342
     68 H          -4.9301    1.4128    3.1140 H       1  LIG1        0.0342
     69 H          -5.6990   -0.2066    3.0764 H       1  LIG1        0.0342
     70 H          -5.1498    0.6362    1.5891 H       1  LIG1        0.0342
     71 H           2.1245   -4.5304    2.2076 H       1  LIG1        0.0342
     72 H           0.8641   -5.5798    1.4875 H       1  LIG1        0.0342
     73 H           1.4044   -5.8358    3.1584 H       1  LIG1        0.0342
     74 H          -2.7509    1.2035    5.8294 H       1  LIG1        0.0342
     75 H          -1.2623    2.0667    5.4208 H       1  LIG1        0.0342
     76 H          -1.3190    1.0546    6.9032 H       1  LIG1        0.0342
     77 H           0.0920    2.0887    0.8192 H       1  LIG1        0.0725
     78 H           0.5736    2.2053    2.3703 H       1  LIG1        0.0725
     79 H           2.9811    1.6361   -1.2806 H       1  LIG1        0.0342
     80 H           2.9628   -0.0514   -1.7491 H       1  LIG1        0.0342
     81 H           4.0278    0.4822   -0.4115 H       1  LIG1        0.0342
     82 H           0.2743   -3.9433   -2.1049 H       1  LIG1        0.0691
     83 H           3.7313   -4.7232   -2.9307 H       1  LIG1        0.0342
     84 H           3.6510   -5.7941   -4.3747 H       1  LIG1        0.0342
     85 H           3.0560   -6.3465   -2.7759 H       1  LIG1        0.0342
     86 H           1.9753   -1.1789   -4.8852 H       1  LIG1        0.0660
     87 H           1.6511    1.0915   -4.8022 H       1  LIG1        0.0627
@<TRIPOS>BOND
     1     1     2    1
     2     2     3    1
     3     3     4    1
     4     4     7    1
     5     7     8    1
     6     7     9    1
     7     9    10   ar
     8     2    10    1
     9    10    11   ar
    10    11    12    1
    11    12    13    1
    12    13    14    1
    13    13    15    2
    14    11    16   ar
    15    16    17   ar
    16    17    18    1
    17    18    19    1
    18    19    20    1
    19    19    21    1
    20    23    24    1
    21    24    25    1
    22    24    26    2
    23    21    27    1
    24    29    30    1
    25    30    31    1
    26    30    32    2
    27    27    33    1
    28    33    34    1
    29    33    35    1
    30    35    36    1
    31    36    37    1
    32    36    38    2
    33    33    39    1
    34    41    42    1
    35    42    43    1
    36    43    44    1
    37    43    45    2
    38    39    46    1
    39    19    46    1
    40    17    47   ar
    41    47    48   ar
    42    48    49    1
    43    49    50    1
    44    50    51    1
    45    50    52    2
    46    48    53   ar
    47    16    54   ar
    48    53    54   ar
    49    54    55   ar
    50     9    55   ar
    51     4     6    1
    52     4     5    1
    53    21    23    1
    54    21    22    1
    55    27    29    1
    56    27    28    1
    57    39    41    1
    58    39    40    1
    59     1    56    1
    60     1    57    1
    61     1    58    1
    62     2    59    1
    63     6    60    1
    64     6    61    1
    65     6    62    1
    66     7    63    1
    67     8    64    1
    68    14    65    1
    69    14    66    1
    70    14    67    1
    71    25    68    1
    72    25    69    1
    73    25    70    1
    74    31    71    1
    75    31    72    1
    76    31    73    1
    77    37    74    1
    78    37    75    1
    79    37    76    1
    80    41    77    1
    81    41    78    1
    82    44    79    1
    83    44    80    1
    84    44    81    1
    85    47    82    1
    86    51    83    1
    87    51    84    1
    88    51    85    1
    89    53    86    1
    90    55    87    1
