REMARK  Name = NuBBE_2135
REMARK  2 active torsions:
REMARK  status: ('A' for Active; 'I' for Inactive)
REMARK    1  A    between atoms: C_1  and  C_2
REMARK    2  A    between atoms: C_2  and  C_3
REMARK                            x       y       z     vdW  Elec       q    Type
REMARK                         _______ _______ _______ _____ _____    ______ ____
ROOT
ATOM      1  C   LIG A   1      -0.322  -0.184   0.151  0.00  0.00    -0.074 C 
ATOM      2  C   LIG A   1      -0.264  -1.258  -0.646  0.00  0.00    -0.028 C 
ATOM      3  C   LIG A   1       0.270  -0.920  -1.998  0.00  0.00    +0.027 C 
ATOM      4  C   LIG A   1       0.204   0.606  -2.016  0.00  0.00    +0.008 C 
ATOM      5  C   LIG A   1       0.158   1.048  -0.554  0.00  0.00    +0.030 C 
ENDROOT
BRANCH   1   7
ATOM      6  C   LIG A   1       0.330   0.203   2.542  0.00  0.00    +0.008 C 
ATOM      7  C   LIG A   1      -0.788  -0.148   1.571  0.00  0.00    +0.027 C 
ENDBRANCH   1   7
TORSDOF 1
