REMARK  Name = NuBBE_1354
REMARK  10 active torsions:
REMARK  status: ('A' for Active; 'I' for Inactive)
REMARK    1  A    between atoms: C_1  and  C_2
REMARK    2  A    between atoms: C_2  and  C_34
REMARK    3  A    between atoms: C_3  and  O_4
REMARK    4  A    between atoms: C_7  and  C_32
REMARK    5  A    between atoms: C_11  and  C_31
REMARK    6  A    between atoms: C_16  and  C_30
REMARK    7  A    between atoms: C_18  and  O_29
REMARK    8  A    between atoms: C_20  and  C_28
REMARK    9  A    between atoms: C_23  and  C_24
REMARK   10  A    between atoms: C_23  and  C_27
REMARK                            x       y       z     vdW  Elec       q    Type
REMARK                         _______ _______ _______ _____ _____    ______ ____
ROOT
ATOM      1  C   LIG A   1      -4.144  -2.580  -1.505  0.00  0.00    +0.014 C 
ATOM      2  C   LIG A   1      -3.094  -2.243  -0.389  0.00  0.00    -0.006 C 
ATOM      3  C   LIG A   1      -3.019  -3.538   0.482  0.00  0.00    +0.120 C 
ATOM      4  C   LIG A   1      -1.777  -3.738   1.355  0.00  0.00    +0.032 C 
ATOM      5  C   LIG A   1      -0.413  -3.416   0.636  0.00  0.00    +0.010 C 
ATOM      6  C   LIG A   1      -0.427  -1.971   0.003  0.00  0.00    -0.025 C 
ATOM      7  C   LIG A   1      -1.667  -2.046  -0.980  0.00  0.00    +0.003 C 
ATOM      8  C   LIG A   1      -1.649  -0.966  -2.028  0.00  0.00    +0.005 C 
ATOM      9  C   LIG A   1      -0.388  -1.087  -2.792  0.00  0.00    +0.008 C 
ATOM     10  C   LIG A   1       0.970  -0.500  -2.284  0.00  0.00    -0.019 C 
ATOM     11  C   LIG A   1       1.073  -1.561  -0.891  0.00  0.00    +0.006 C 
ATOM     12  C   LIG A   1       2.182  -1.225   0.124  0.00  0.00    +0.031 C 
ATOM     13  C   LIG A   1       2.846   0.114  -0.016  0.00  0.00    -0.026 C 
ATOM     14  C   LIG A   1       2.080   1.066  -0.464  0.00  0.00    -0.063 C 
ATOM     15  C   LIG A   1       1.637   0.990  -1.910  0.00  0.00    -0.003 C 
ATOM     16  C   LIG A   1       0.706   2.186  -2.243  0.00  0.00    +0.043 C 
ATOM     17  C   LIG A   1      -0.319   2.313  -1.102  0.00  0.00    +0.122 C 
ATOM     18  C   LIG A   1       0.286   2.758   0.271  0.00  0.00    +0.001 C 
ATOM     19  C   LIG A   1       1.827   2.408   0.295  0.00  0.00    +0.024 C 
ATOM     20  C   LIG A   1       2.497   2.464   1.674  0.00  0.00    +0.014 C 
ATOM     21  C   LIG A   1       1.841   1.762   2.898  0.00  0.00    -0.034 C 
ATOM     22  C   LIG A   1       2.209   0.289   3.207  0.00  0.00    +0.011 C 
ATOM     23  C   LIG A   1       0.314   1.982   2.815  0.00  0.00    +0.007 C 
ATOM     24  C   LIG A   1      -0.338   1.942   1.405  0.00  0.00    +0.010 C 
ATOM     25  C   LIG A   1       2.501   2.447   4.142  0.00  0.00    +0.011 C 
ATOM     26  C   LIG A   1      -0.118   4.218   0.565  0.00  0.00    +0.014 C 
ATOM     27  C   LIG A   1       3.047   1.296  -2.642  0.00  0.00    +0.016 C 
ATOM     28  C   LIG A   1       1.518  -0.628  -3.802  0.00  0.00    +0.012 C 
ATOM     29  C   LIG A   1      -0.654  -1.187   1.335  0.00  0.00    +0.012 C 
ATOM     30  C   LIG A   1      -3.655  -0.939   0.232  0.00  0.00    +0.014 C 
ENDROOT
BRANCH   3  31
ATOM     31  O   LIG A   1      -4.188  -3.760   1.267  0.00  0.00    -0.391 OA
ATOM     32  H   LIG A   1      -4.776  -2.993   1.197  0.00  0.00    +0.210 HD
ENDBRANCH   3  31
BRANCH  17  33
ATOM     33  O   LIG A   1      -1.394   3.130  -1.559  0.00  0.00    -0.391 OA
ATOM     34  H   LIG A   1      -2.058   2.550  -1.977  0.00  0.00    +0.210 HD
ENDBRANCH  17  33
TORSDOF 2
