REMARK  Name = NuBBE_456
REMARK  15 active torsions:
REMARK  status: ('A' for Active; 'I' for Inactive)
REMARK    1  A    between atoms: O_1  and  C_2
REMARK    2  A    between atoms: C_4  and  C_6
REMARK    3  A    between atoms: C_9  and  C_11
REMARK    4  A    between atoms: C_11  and  C_12
REMARK    5  A    between atoms: C_12  and  C_13
REMARK    6  A    between atoms: C_13  and  C_14
REMARK    7  A    between atoms: C_14  and  C_15
REMARK    8  A    between atoms: C_15  and  C_16
REMARK    9  A    between atoms: C_16  and  C_17
REMARK   10  A    between atoms: C_17  and  C_18
REMARK   11  A    between atoms: C_18  and  C_19
REMARK   12  A    between atoms: C_19  and  C_20
REMARK   13  A    between atoms: C_20  and  C_21
REMARK   14  A    between atoms: C_21  and  O_22
REMARK   15  A    between atoms: C_21  and  C_23
REMARK                            x       y       z     vdW  Elec       q    Type
REMARK                         _______ _______ _______ _____ _____    ______ ____
ROOT
ATOM      1  C   LIG A   1      -0.729   1.688  -0.151  0.00  0.00    +0.002 C 
ENDROOT
BRANCH   1   2
ATOM      2  C   LIG A   1      -0.566   3.212  -0.095  0.00  0.00    +0.019 C 
BRANCH   2   8
ATOM      3  C   LIG A   1       3.127   2.023   0.051  0.00  0.00    +0.131 C 
ATOM      4  C   LIG A   1       2.228   2.314   1.275  0.00  0.00    +0.079 C 
ATOM      5  C   LIG A   1       2.973   2.072   2.582  0.00  0.00    +0.026 C 
ATOM      6  N   LIG A   1       1.612   3.642   1.258  0.00  0.00    -0.308 NA
ATOM      7  H   LIG A   1       1.021   3.775   2.075  0.00  0.00    +0.122 HD
ATOM      8  C   LIG A   1       0.830   3.899   0.037  0.00  0.00    +0.054 C 
ATOM      9  C   LIG A   1       1.772   3.800  -1.182  0.00  0.00    +0.021 C 
ATOM     10  C   LIG A   1       2.592   2.511  -1.276  0.00  0.00    +0.034 C 
BRANCH   3  11
ATOM     11  O   LIG A   1       4.445   2.595   0.212  0.00  0.00    -0.390 OA
ATOM     12  H   LIG A   1       4.245   3.535   0.385  0.00  0.00    +0.210 HD
ENDBRANCH   3  11
ENDBRANCH   2   8
ENDBRANCH   1   2
BRANCH   1  13
ATOM     13  C   LIG A   1      -0.333   1.046  -1.471  0.00  0.00    +0.000 C 
BRANCH  13  14
ATOM     14  C   LIG A   1       0.035  -0.442  -1.468  0.00  0.00    -0.000 C 
BRANCH  14  15
ATOM     15  C   LIG A   1       0.973  -1.090  -0.431  0.00  0.00    -0.000 C 
BRANCH  15  16
ATOM     16  C   LIG A   1       0.569  -1.151   1.046  0.00  0.00    -0.000 C 
BRANCH  16  17
ATOM     17  C   LIG A   1      -0.824  -1.704   1.307  0.00  0.00    -0.000 C 
BRANCH  17  18
ATOM     18  C   LIG A   1      -0.877  -3.171   0.891  0.00  0.00    +0.000 C 
BRANCH  18  19
ATOM     19  C   LIG A   1      -2.212  -3.835   1.188  0.00  0.00    +0.002 C 
BRANCH  19  20
ATOM     20  C   LIG A   1      -3.429  -3.196   0.503  0.00  0.00    +0.031 C 
BRANCH  20  21
ATOM     21  C   LIG A   1      -3.434  -3.185  -1.032  0.00  0.00    +0.111 C 
ATOM     22  C   LIG A   1      -3.227  -4.553  -1.657  0.00  0.00    +0.037 C 
BRANCH  21  23
ATOM     23  O   LIG A   1      -2.444  -2.312  -1.517  0.00  0.00    -0.392 OA
ATOM     24  H   LIG A   1      -2.294  -2.473  -2.465  0.00  0.00    +0.210 HD
ENDBRANCH  21  23
ENDBRANCH  20  21
ENDBRANCH  19  20
ENDBRANCH  18  19
ENDBRANCH  17  18
ENDBRANCH  16  17
ENDBRANCH  15  16
ENDBRANCH  14  15
ENDBRANCH  13  14
ENDBRANCH   1  13
TORSDOF 13
