@<TRIPOS>MOLECULE
NuBBE_108
 52 54 0 0 0
SMALL
GASTEIGER

@<TRIPOS>ATOM
      1 H          -3.5687   -0.7940    1.1774 H       1  LIG1        0.0363
      2 C          -2.4937   -0.9547    1.0144 C.3     1  LIG1        0.0158
      3 C          -2.0001    0.1299    0.0230 C.3     1  LIG1        0.0659
      4 C          -0.6041   -0.3083   -0.4734 C.3     1  LIG1        0.2102
      5 H           0.0348   -0.5568    0.3820 H       1  LIG1        0.1060
      6 O          -0.7753   -1.4924   -1.2767 O.2     1  LIG1       -0.4701
      7 C          -1.5067   -2.4810   -0.6791 C.2     1  LIG1        0.0981
      8 C          -2.2817   -2.3247    0.4036 C.2     1  LIG1        0.0749
      9 C          -2.9789   -3.5019    0.9878 C.2     1  LIG1        0.3381
     10 O          -2.4153   -4.6411    0.5131 O.3     1  LIG1       -0.4646
     11 C          -2.8585   -5.8839    1.0567 C.3     1  LIG1        0.0820
     12 O          -3.8644   -3.4128    1.8148 O.2     1  LIG1       -0.2452
     13 O           0.0706    0.7004   -1.2232 O.3     1  LIG1       -0.3094
     14 C           1.3494    0.2249   -1.6750 C.3     1  LIG1        0.1918
     15 H           1.1850   -0.7152   -2.2152 H       1  LIG1        0.0939
     16 O           2.2200   -0.1260   -0.5925 O.3     1  LIG1       -0.3404
     17 C           2.9983    0.9161    0.0067 C.3     1  LIG1        0.1130
     18 H           3.7775    0.3797    0.5647 H       1  LIG1        0.0647
     19 C           3.7300    1.7648   -1.0446 C.3     1  LIG1        0.1119
     20 H           4.2955    2.5756   -0.5743 H       1  LIG1        0.0647
     21 C           2.7538    2.3289   -2.0835 C.3     1  LIG1        0.1141
     22 H           3.3419    2.8278   -2.8640 H       1  LIG1        0.0648
     23 O           1.8968    3.3107   -1.5058 O.3     1  LIG1       -0.3864
     24 O           4.6831    0.9231   -1.7342 O.3     1  LIG1       -0.3865
     25 C           2.2288    1.7287    1.0556 C.3     1  LIG1        0.0730
     26 O           3.0759    2.7261    1.6212 O.3     1  LIG1       -0.3924
     27 C           1.9587    1.1853   -2.7244 C.3     1  LIG1        0.1342
     28 H           1.1511    1.5970   -3.3404 H       1  LIG1        0.0671
     29 O           2.8216    0.4525   -3.6162 O.3     1  LIG1       -0.3841
     30 H          -2.6798    0.1438   -0.8427 H       1  LIG1        0.0403
     31 C          -1.7765   -0.8323    2.3665 C.3     1  LIG1        0.0526
     32 C          -1.5230    0.5754    2.8584 C.2     1  LIG1        0.3079
     33 O          -1.3258    1.5237    1.9114 O.3     1  LIG1       -0.4611
     34 C          -2.1268    1.4728    0.7266 C.3     1  LIG1        0.1093
     35 H          -3.1720    1.5996    1.0441 H       1  LIG1        0.0736
     36 C          -1.8045    2.6828   -0.1408 C.3     1  LIG1       -0.0272
     37 O          -1.3206    0.8183    4.0431 O.2     1  LIG1       -0.2508
     38 H          -1.3712   -3.4107   -1.2210 H       1  LIG1        0.1029
     39 H          -3.2132   -6.5082    0.2320 H       1  LIG1        0.0661
     40 H          -3.6499   -5.7794    1.8015 H       1  LIG1        0.0661
     41 H          -1.9938   -6.3737    1.5135 H       1  LIG1        0.0661
     42 H           1.3522    3.6802   -2.2235 H       1  LIG1        0.2100
     43 H           5.3271    0.6261   -1.0636 H       1  LIG1        0.2100
     44 H           1.3326    2.1991    0.6496 H       1  LIG1        0.0584
     45 H           1.9025    1.0679    1.8664 H       1  LIG1        0.0584
     46 H           2.5112    3.3004    2.1689 H       1  LIG1        0.2095
     47 H           3.6482    0.2734   -3.1137 H       1  LIG1        0.2101
     48 H          -0.7955   -1.3234    2.3355 H       1  LIG1        0.0384
     49 H          -2.3671   -1.3474    3.1338 H       1  LIG1        0.0384
     50 H          -0.7308    2.8115   -0.2913 H       1  LIG1        0.0265
     51 H          -2.1443    3.5969    0.3596 H       1  LIG1        0.0265
     52 H          -2.3042    2.6242   -1.1127 H       1  LIG1        0.0265
@<TRIPOS>BOND
     1     2     3    1
     2     3     4    1
     3     4     6    1
     4     6     7    1
     5     7     8    2
     6     9    10    1
     7    10    11    1
     8     9    12    2
     9    13    14    1
    10    14    15    1
    11    14    16    1
    12    16    17    1
    13    17    19    1
    14    19    20    1
    15    19    21    1
    16    19    24    1
    17    25    26    1
    18    14    27    1
    19    21    27    1
    20     8     2    1
    21     2    31    1
    22    31    32    1
    23    32    33    1
    24    33    34    1
    25     3    34    1
    26     1     2    1
    27     3    30    1
    28     8     9    1
    29    32    37    2
    30     4    13    1
    31     4     5    1
    32    34    36    1
    33    34    35    1
    34    17    25    1
    35    17    18    1
    36    21    23    1
    37    21    22    1
    38    27    29    1
    39    27    28    1
    40     7    38    1
    41    11    39    1
    42    11    40    1
    43    11    41    1
    44    23    42    1
    45    24    43    1
    46    25    44    1
    47    25    45    1
    48    26    46    1
    49    29    47    1
    50    31    48    1
    51    31    49    1
    52    36    50    1
    53    36    51    1
    54    36    52    1
