@<TRIPOS>MOLECULE
NuBBE_119
 69 73 0 0 0
SMALL
GASTEIGER

@<TRIPOS>ATOM
      1 O          -1.8489    2.4099    2.1403 O.3     1  LIG1       -0.5058
      2 C          -1.0792    3.4318    1.6520 C.ar    1  LIG1        0.1348
      3 C          -0.0608    3.2575    0.6998 C.ar    1  LIG1        0.1092
      4 C           0.2218    1.9448    0.1277 C.ar    1  LIG1        0.2382
      5 C           1.2886    1.8251   -0.9167 C.ar    1  LIG1        0.2138
      6 O           1.5225    0.6274   -1.5849 O.3     1  LIG1       -0.4532
      7 C           1.2890   -0.6413   -0.9274 C.3     1  LIG1        0.2321
      8 H           0.4794   -0.6020   -0.2115 H       1  LIG1        0.1085
      9 O           2.4692   -1.0624   -0.2412 O.3     1  LIG1       -0.3338
     10 C           2.4680   -2.3950    0.2907 C.3     1  LIG1        0.0894
     11 H           3.5367   -2.6295    0.3590 H       1  LIG1        0.0621
     12 C           1.9646   -2.4498    1.7326 C.3     1  LIG1       -0.0360
     13 C           1.8231   -3.4795   -0.6107 C.3     1  LIG1        0.1206
     14 H           1.6159   -4.3772   -0.0180 H       1  LIG1        0.0657
     15 O           2.7637   -3.8569   -1.6276 O.3     1  LIG1       -0.3855
     16 C           0.5529   -3.0049   -1.3209 C.3     1  LIG1        0.1630
     17 H           0.2265   -3.7159   -2.0887 H       1  LIG1        0.0790
     18 O          -0.5085   -2.8257   -0.3815 O.3     1  LIG1       -0.4523
     19 C          -1.2106   -3.9142    0.0219 C.2     1  LIG1        0.3398
     20 C          -2.3194   -3.4922    0.9623 C.ar    1  LIG1        0.0661
     21 C          -3.2325   -4.4539    1.3895 C.ar    1  LIG1       -0.0023
     22 C          -4.3131   -4.0812    2.2183 C.ar    1  LIG1        0.1629
     23 O          -5.1774   -5.0517    2.6412 O.3     1  LIG1       -0.5032
     24 C          -4.4889   -2.7425    2.5895 C.ar    1  LIG1        0.2031
     25 O          -5.4952   -2.2189    3.3623 O.3     1  LIG1       -0.4885
     26 C          -6.7466   -2.8974    3.3104 C.3     1  LIG1        0.0791
     27 C          -3.5341   -1.8093    2.1641 C.ar    1  LIG1        0.1629
     28 O          -3.6569   -0.4752    2.4447 O.3     1  LIG1       -0.5032
     29 C          -2.4504   -2.1764    1.3786 C.ar    1  LIG1       -0.0023
     30 O          -0.9888   -5.0480   -0.2964 O.2     1  LIG1       -0.2449
     31 C           0.8577   -1.6605   -2.0091 C.3     1  LIG1        0.1564
     32 H           1.6747   -1.7852   -2.7314 H       1  LIG1        0.0694
     33 O          -0.2959   -1.2518   -2.7667 O.3     1  LIG1       -0.3818
     34 C           1.9188    2.9766   -1.2638 C.ar    1  LIG1        0.1809
     35 C           2.9414    3.0675   -2.3427 C.ar    1  LIG1        0.0213
     36 C           4.3104    2.9120   -2.0655 C.ar    1  LIG1       -0.0475
     37 C           5.2767    3.0350   -3.0809 C.ar    1  LIG1       -0.0195
     38 C           4.8776    3.3217   -4.3814 C.ar    1  LIG1        0.1169
     39 O           5.7757    3.4311   -5.4028 O.3     1  LIG1       -0.5068
     40 C           3.5328    3.5062   -4.6751 C.ar    1  LIG1       -0.0195
     41 C           2.5692    3.3816   -3.6610 C.ar    1  LIG1       -0.0475
     42 O           1.6734    4.2235   -0.6842 O.2     1  LIG1       -0.4507
     43 C           0.6778    4.3445    0.2549 C.ar    1  LIG1        0.1465
     44 C           0.4000    5.6190    0.7647 C.ar    1  LIG1        0.0231
     45 C          -0.6211    5.7795    1.7066 C.ar    1  LIG1        0.1239
     46 O          -0.9381    6.9996    2.2265 O.3     1  LIG1       -0.5065
     47 C          -1.3629    4.6942    2.1533 C.ar    1  LIG1        0.0223
     48 O          -0.4850    1.0106    0.5015 O.2     1  LIG1       -0.2830
     49 H          -1.5683    1.5668    1.7188 H       1  LIG1        0.2922
     50 H           0.8800   -2.3477    1.8109 H       1  LIG1        0.0255
     51 H           2.4146   -1.6537    2.3347 H       1  LIG1        0.0255
     52 H           2.2464   -3.4104    2.1845 H       1  LIG1        0.0255
     53 H           3.5756   -4.1605   -1.1862 H       1  LIG1        0.2101
     54 H          -3.1188   -5.4927    1.0848 H       1  LIG1        0.0663
     55 H          -4.9079   -5.9154    2.2861 H       1  LIG1        0.2923
     56 H          -7.4894   -2.2624    3.8041 H       1  LIG1        0.0660
     57 H          -6.7240   -3.8374    3.8686 H       1  LIG1        0.0660
     58 H          -7.0728   -3.0462    2.2753 H       1  LIG1        0.0660
     59 H          -4.5757   -0.3486    2.7621 H       1  LIG1        0.2923
     60 H          -1.7471   -1.4005    1.0744 H       1  LIG1        0.0663
     61 H          -0.6446   -0.4314   -2.3770 H       1  LIG1        0.2102
     62 H           4.6405    2.7007   -1.0514 H       1  LIG1        0.0626
     63 H           6.3285    2.9098   -2.8400 H       1  LIG1        0.0654
     64 H           6.6560    3.1712   -5.0841 H       1  LIG1        0.2921
     65 H           3.2343    3.7431   -5.6937 H       1  LIG1        0.0654
     66 H           1.5246    3.5400   -3.9161 H       1  LIG1        0.0626
     67 H           0.9733    6.4737    0.4197 H       1  LIG1        0.0691
     68 H          -0.3606    7.6766    1.8394 H       1  LIG1        0.2921
     69 H          -2.1583    4.8248    2.8827 H       1  LIG1        0.0691
@<TRIPOS>BOND
     1     1     2    1
     2     2     3   ar
     3     3     4   ar
     4     4     5   ar
     5     5     6    1
     6     6     7    1
     7     7     8    1
     8     7     9    1
     9     9    10    1
    10    10    13    1
    11    13    14    1
    12    13    15    1
    13    13    16    1
    14    18    19    1
    15    19    20    1
    16    20    21   ar
    17    21    22   ar
    18    22    23    1
    19    22    24   ar
    20    24    25    1
    21    25    26    1
    22    24    27   ar
    23    27    28    1
    24    27    29   ar
    25    20    29   ar
    26    19    30    2
    27    16    31    1
    28     7    31    1
    29     5    34   ar
    30    34    35    1
    31    35    36   ar
    32    36    37   ar
    33    37    38   ar
    34    38    39    1
    35    38    40   ar
    36    40    41   ar
    37    35    41   ar
    38    34    42   ar
    39    42    43   ar
    40     3    43   ar
    41    43    44   ar
    42    44    45   ar
    43    45    46    1
    44    45    47   ar
    45     2    47   ar
    46     4    48    2
    47    10    12    1
    48    10    11    1
    49    16    18    1
    50    16    17    1
    51    31    33    1
    52    31    32    1
    53     1    49    1
    54    12    50    1
    55    12    51    1
    56    12    52    1
    57    15    53    1
    58    21    54    1
    59    23    55    1
    60    26    56    1
    61    26    57    1
    62    26    58    1
    63    28    59    1
    64    29    60    1
    65    33    61    1
    66    36    62    1
    67    37    63    1
    68    39    64    1
    69    40    65    1
    70    41    66    1
    71    44    67    1
    72    46    68    1
    73    47    69    1
