@<TRIPOS>MOLECULE
NuBBE_2101
 51 54 0 0 0
SMALL
GASTEIGER

@<TRIPOS>ATOM
      1 C          -1.5780    0.1070   -2.0994 C.3     1  LIG1       -0.0219
      2 C          -1.5115   -0.8698   -3.2451 C.2     1  LIG1       -0.0902
      3 C          -2.5848   -1.3059   -3.9199 C.2     1  LIG1       -0.1026
      4 C          -1.0094   -0.3103   -0.6938 C.3     1  LIG1        0.0442
      5 C           0.4526   -0.6460   -0.7575 C.2     1  LIG1        0.1504
      6 C           0.9821   -1.8807   -0.8683 C.2     1  LIG1        0.2032
      7 O           2.3683   -2.0023   -0.9062 O.2     1  LIG1       -0.4888
      8 C           2.9241   -3.3039   -1.0495 C.3     1  LIG1        0.0791
      9 C           0.0403   -3.0579   -0.9416 C.2     1  LIG1        0.2290
     10 O           0.4697   -4.1892   -1.2107 O.2     1  LIG1       -0.2859
     11 C          -1.4730   -2.8428   -0.7358 C.3     1  LIG1        0.1247
     12 H          -1.9367   -2.8580   -1.7222 H       1  LIG1        0.0680
     13 C          -1.7663   -1.4969   -0.0645 C.3     1  LIG1       -0.0059
     14 O          -2.1276   -3.8567    0.0403 O.3     1  LIG1       -0.3718
     15 C          -2.1056   -5.1470   -0.5708 C.3     1  LIG1        0.0374
     16 O           1.2652    0.4606   -0.5565 O.2     1  LIG1       -0.4838
     17 C           0.4272    1.5755   -0.1818 C.3     1  LIG1        0.1285
     18 H           0.3218    2.1794   -1.0937 H       1  LIG1        0.0787
     19 C          -0.9542    0.9746    0.1929 C.3     1  LIG1        0.0104
     20 H          -1.7392    1.6853   -0.1010 H       1  LIG1        0.0347
     21 C          -1.1518    0.7370    1.6961 C.3     1  LIG1       -0.0578
     22 C           1.1186    2.4704    0.8404 C.ar    1  LIG1       -0.0034
     23 C           0.4847    3.6362    1.3151 C.ar    1  LIG1       -0.0095
     24 C           1.1408    4.4111    2.2545 C.ar    1  LIG1        0.1666
     25 C           2.3890    4.0820    2.7246 C.ar    1  LIG1        0.1662
     26 C           3.0574    2.9689    2.2726 C.ar    1  LIG1       -0.0158
     27 C           2.4204    2.1696    1.3156 C.ar    1  LIG1       -0.0514
     28 O           2.8533    4.9687    3.6444 O.3     1  LIG1       -0.4526
     29 C           1.7757    5.9260    3.6627 C.3     1  LIG1        0.2332
     30 O           0.6632    5.5536    2.8199 O.3     1  LIG1       -0.4526
     31 H          -2.6216    0.4200   -1.9574 H       1  LIG1        0.0317
     32 H          -1.0535    1.0029   -2.4572 H       1  LIG1        0.0317
     33 H          -0.5249   -1.1871   -3.5809 H       1  LIG1        0.0567
     34 H          -3.5941   -1.0010   -3.6586 H       1  LIG1        0.0532
     35 H          -2.4768   -1.9787   -4.7668 H       1  LIG1        0.0532
     36 H           4.0128   -3.2067   -1.0855 H       1  LIG1        0.0660
     37 H           2.6171   -3.7662   -1.9934 H       1  LIG1        0.0660
     38 H           2.6781   -3.9302   -0.1856 H       1  LIG1        0.0660
     39 H          -1.4910   -1.6185    0.9913 H       1  LIG1        0.0304
     40 H          -2.8463   -1.3022   -0.0576 H       1  LIG1        0.0304
     41 H          -2.8718   -5.7671   -0.0984 H       1  LIG1        0.0524
     42 H          -1.1467   -5.6434   -0.3992 H       1  LIG1        0.0524
     43 H          -2.3183   -5.0894   -1.6434 H       1  LIG1        0.0524
     44 H          -0.4019    0.0559    2.1085 H       1  LIG1        0.0234
     45 H          -2.1491    0.3265    1.8906 H       1  LIG1        0.0234
     46 H          -1.1089    1.6712    2.2627 H       1  LIG1        0.0234
     47 H          -0.5035    3.9270    0.9739 H       1  LIG1        0.0659
     48 H           4.0461    2.7214    2.6422 H       1  LIG1        0.0655
     49 H           2.9549    1.2987    0.9378 H       1  LIG1        0.0623
     50 H           2.1646    6.8936    3.3233 H       1  LIG1        0.1166
     51 H           1.4184    6.0350    4.6933 H       1  LIG1        0.1166
@<TRIPOS>BOND
     1     1     2    1
     2     2     3    2
     3     1     4    1
     4     4     5    1
     5     5     6    2
     6     6     7    1
     7     7     8    1
     8     6     9    1
     9     9    10    2
    10     9    11    1
    11    11    12    1
    12    11    13    1
    13     4    13    1
    14    11    14    1
    15    14    15    1
    16     5    16    1
    17    16    17    1
    18    17    19    1
    19     4    19    1
    20    22    23   ar
    21    23    24   ar
    22    24    25   ar
    23    25    26   ar
    24    26    27   ar
    25    22    27   ar
    26    25    28    1
    27    28    29    1
    28    29    30    1
    29    24    30    1
    30    17    22    1
    31    17    18    1
    32    19    21    1
    33    19    20    1
    34     1    31    1
    35     1    32    1
    36     2    33    1
    37     3    34    1
    38     3    35    1
    39     8    36    1
    40     8    37    1
    41     8    38    1
    42    13    39    1
    43    13    40    1
    44    15    41    1
    45    15    42    1
    46    15    43    1
    47    21    44    1
    48    21    45    1
    49    21    46    1
    50    23    47    1
    51    26    48    1
    52    27    49    1
    53    29    50    1
    54    29    51    1
