@<TRIPOS>MOLECULE
NuBBE_33
 54 55 0 0 0
SMALL
GASTEIGER

@<TRIPOS>ATOM
      1 O          -3.4656   -1.7175    1.9096 O.3     1  LIG1       -0.5064
      2 C          -2.1067   -1.6849    1.7594 C.ar    1  LIG1        0.1238
      3 C          -1.3633   -0.5016    1.7642 C.ar    1  LIG1        0.0361
      4 C           0.0261   -0.5887    1.5623 C.ar    1  LIG1        0.1321
      5 O           0.8337    0.5241    1.5101 O.3     1  LIG1       -0.4812
      6 C           0.1976    1.7958    1.2817 C.3     1  LIG1        0.1266
      7 C          -0.0695    1.9445   -0.2093 C.2     1  LIG1       -0.0413
      8 C          -1.0928    2.6402   -0.7335 C.2     1  LIG1       -0.0620
      9 C          -1.3754    2.7501   -2.1404 C.2     1  LIG1       -0.0632
     10 C          -2.3929    3.4664   -2.6636 C.2     1  LIG1       -0.0757
     11 C          -3.3503    4.3260   -1.8784 C.3     1  LIG1       -0.0438
     12 C          -2.6621    3.4461   -4.1444 C.3     1  LIG1       -0.0438
     13 C           1.2354    2.8615    1.6668 C.3     1  LIG1       -0.0212
     14 C          -1.0192    1.9381    2.2106 C.3     1  LIG1       -0.0053
     15 C          -2.0288    0.8322    1.9439 C.3     1  LIG1       -0.0168
     16 C           0.6762   -1.8400    1.4173 C.ar    1  LIG1        0.0015
     17 C           2.1876   -1.9020    1.2472 C.3     1  LIG1       -0.0055
     18 C           2.6280   -1.8270   -0.1929 C.2     1  LIG1       -0.0809
     19 C           3.3662   -2.7083   -0.8989 C.2     1  LIG1       -0.0793
     20 C           3.8950   -4.0200   -0.3869 C.3     1  LIG1       -0.0440
     21 C           3.7370   -2.4206   -2.3316 C.3     1  LIG1       -0.0440
     22 C          -0.1059   -3.0171    1.4089 C.ar    1  LIG1       -0.0401
     23 C           0.4911   -4.3839    1.2191 C.3     1  LIG1       -0.0392
     24 C          -1.4920   -2.9202    1.5882 C.ar    1  LIG1       -0.0165
     25 H          -2.1107   -3.8149    1.5874 H       1  LIG1        0.0657
     26 H          -3.8164   -0.8148    1.8926 H       1  LIG1        0.2921
     27 H           0.6367    1.4442   -0.8674 H       1  LIG1        0.0611
     28 H          -1.7744    3.1388   -0.0577 H       1  LIG1        0.0616
     29 H          -0.7283    2.1808   -2.8073 H       1  LIG1        0.0617
     30 H          -3.0541    4.4869   -0.8395 H       1  LIG1        0.0274
     31 H          -4.3462    3.8725   -1.8726 H       1  LIG1        0.0274
     32 H          -3.4188    5.3212   -2.3289 H       1  LIG1        0.0274
     33 H          -1.9918    2.7675   -4.6817 H       1  LIG1        0.0274
     34 H          -2.5380    4.4482   -4.5668 H       1  LIG1        0.0274
     35 H          -3.6885    3.1132   -4.3331 H       1  LIG1        0.0274
     36 H           2.1613    2.7399    1.0921 H       1  LIG1        0.0271
     37 H           1.5152    2.7701    2.7228 H       1  LIG1        0.0271
     38 H           0.8561    3.8765    1.5002 H       1  LIG1        0.0271
     39 H          -1.5024    2.9185    2.1193 H       1  LIG1        0.0310
     40 H          -0.6894    1.8539    3.2551 H       1  LIG1        0.0310
     41 H          -2.6121    1.0517    1.0420 H       1  LIG1        0.0317
     42 H          -2.7304    0.8002    2.7858 H       1  LIG1        0.0317
     43 H           2.5757   -2.7877    1.7577 H       1  LIG1        0.0357
     44 H           2.6538   -1.0681    1.7880 H       1  LIG1        0.0357
     45 H           2.3136   -0.9085   -0.6890 H       1  LIG1        0.0575
     46 H           3.5660   -4.2600    0.6256 H       1  LIG1        0.0274
     47 H           4.9898   -4.0104   -0.3852 H       1  LIG1        0.0274
     48 H           3.5606   -4.8371   -1.0359 H       1  LIG1        0.0274
     49 H           3.3578   -1.4525   -2.6749 H       1  LIG1        0.0274
     50 H           3.3285   -3.1922   -2.9925 H       1  LIG1        0.0274
     51 H           4.8264   -2.4084   -2.4443 H       1  LIG1        0.0274
     52 H           1.0798   -4.4211    0.2994 H       1  LIG1        0.0278
     53 H          -0.2859   -5.1505    1.1236 H       1  LIG1        0.0278
     54 H           1.1168   -4.6512    2.0758 H       1  LIG1        0.0278
@<TRIPOS>BOND
     1     1     2    1
     2     2     3   ar
     3     3     4   ar
     4     4     5    1
     5     5     6    1
     6     6     7    1
     7     7     8    2
     8     8     9    1
     9     9    10    2
    10    10    11    1
    11    10    12    1
    12     6    13    1
    13     6    14    1
    14    14    15    1
    15     3    15    1
    16     4    16   ar
    17    16    17    1
    18    17    18    1
    19    18    19    2
    20    19    20    1
    21    19    21    1
    22    16    22   ar
    23    22    23    1
    24    22    24   ar
    25     2    24   ar
    26    24    25    1
    27     1    26    1
    28     7    27    1
    29     8    28    1
    30     9    29    1
    31    11    30    1
    32    11    31    1
    33    11    32    1
    34    12    33    1
    35    12    34    1
    36    12    35    1
    37    13    36    1
    38    13    37    1
    39    13    38    1
    40    14    39    1
    41    14    40    1
    42    15    41    1
    43    15    42    1
    44    17    43    1
    45    17    44    1
    46    18    45    1
    47    20    46    1
    48    20    47    1
    49    20    48    1
    50    21    49    1
    51    21    50    1
    52    21    51    1
    53    23    52    1
    54    23    53    1
    55    23    54    1
