@<TRIPOS>MOLECULE
NuBBE_2069
 46 50 0 0 0
SMALL
GASTEIGER

@<TRIPOS>ATOM
      1 O          -1.0727   -2.9299    3.2293 O.2     1  LIG1       -0.2500
      2 C          -0.6658   -2.0265    2.5067 C.2     1  LIG1        0.3189
      3 C          -0.8998   -1.8653    1.0344 C.3     1  LIG1        0.1249
      4 C          -2.2612   -1.0036    1.1968 C.3     1  LIG1       -0.0440
      5 C          -1.2702   -2.9733   -0.3922 C.3     1  LIG1        0.1832
      6 O          -0.7484   -4.2165    0.0104 O.3     1  LIG1       -0.3636
      7 C          -0.8960   -1.7519   -0.9706 C.3     1  LIG1        0.0029
      8 C           0.8519   -2.2084   -0.6918 C.3     1  LIG1       -0.0397
      9 C           1.1861   -0.8126   -0.7039 C.3     1  LIG1        0.0049
     10 C           0.6518   -1.5366   -2.3373 C.3     1  LIG1        0.0572
     11 O          -0.3972   -3.0207   -2.0099 O.3     1  LIG1       -0.3471
     12 C           0.7279    0.7284   -0.8173 C.3     1  LIG1       -0.0276
     13 C          -0.5532    1.2556   -1.5550 C.3     1  LIG1       -0.0492
     14 C          -0.5577    2.7789   -1.7829 C.3     1  LIG1       -0.0504
     15 C          -0.1678    3.6067   -0.5599 C.3     1  LIG1       -0.0266
     16 C           1.0366    3.0185    0.1720 C.3     1  LIG1        0.0584
     17 H           1.9261    3.0540   -0.4702 H       1  LIG1        0.0596
     18 O           1.3190    3.8051    1.3172 O.3     1  LIG1       -0.3915
     19 C           0.6853    1.5588    0.5385 C.3     1  LIG1       -0.0082
     20 H          -0.3532    1.5643    0.9026 H       1  LIG1        0.0330
     21 C           1.4314    1.0053    1.7410 C.3     1  LIG1       -0.0099
     22 C           0.9488   -0.3873    2.1035 C.3     1  LIG1        0.1080
     23 H           1.8185   -0.7975    2.6467 H       1  LIG1        0.0737
     24 O          -0.1286   -0.7795    2.9750 O.3     1  LIG1       -0.4605
     25 C           0.6389   -1.1577    0.8724 C.3     1  LIG1        0.0246
     26 H          -3.1017   -1.6210    0.8462 H       1  LIG1        0.0242
     27 H          -2.2969   -0.0630    0.6453 H       1  LIG1        0.0242
     28 H          -2.5222   -0.7339    2.2305 H       1  LIG1        0.0242
     29 H          -0.5510   -4.2102    0.9607 H       1  LIG1        0.2128
     30 H          -1.1283   -0.7720   -0.5954 H       1  LIG1        0.0317
     31 H          -1.4708   -1.5462   -1.9218 H       1  LIG1        0.0317
     32 H           1.5351   -2.8670   -1.3088 H       1  LIG1        0.0273
     33 H           0.9878   -2.9840    0.0944 H       1  LIG1        0.0273
     34 H           1.4863   -1.9435   -2.9365 H       1  LIG1        0.0566
     35 H           0.0349   -0.9141   -2.9882 H       1  LIG1        0.0566
     36 H           1.5649    1.1285   -1.4095 H       1  LIG1        0.0310
     37 H          -1.4470    1.0701   -0.9502 H       1  LIG1        0.0268
     38 H          -0.7270    0.7846   -2.5193 H       1  LIG1        0.0268
     39 H          -1.5645    3.0814   -2.1000 H       1  LIG1        0.0266
     40 H           0.1193    3.0126   -2.6100 H       1  LIG1        0.0266
     41 H          -1.0147    3.6550    0.1399 H       1  LIG1        0.0290
     42 H           0.0223    4.6466   -0.8485 H       1  LIG1        0.0290
     43 H           1.5940    4.6847    1.0003 H       1  LIG1        0.2098
     44 H           1.3644    1.6630    2.6129 H       1  LIG1        0.0304
     45 H           2.4944    0.9377    1.4620 H       1  LIG1        0.0304
     46 H           1.3705   -1.9174    1.2409 H       1  LIG1        0.0355
@<TRIPOS>BOND
     1     1     2    2
     2     2     3    1
     3     3     4    1
     4     3     5    1
     5     5     6    1
     6     5     7    1
     7     7     8    1
     8     8     9    1
     9     9    10    1
    10    10    11    1
    11     5    11    1
    12     9    12    1
    13    12    13    1
    14    13    14    1
    15    14    15    1
    16    15    16    1
    17    16    17    1
    18    16    18    1
    19    16    19    1
    20    19    20    1
    21    12    19    1
    22    19    21    1
    23    21    22    1
    24    22    23    1
    25    22    24    1
    26     2    24    1
    27    22    25    1
    28     9    25    1
    29     3    25    1
    30     4    26    1
    31     4    27    1
    32     4    28    1
    33     6    29    1
    34     7    30    1
    35     7    31    1
    36     8    32    1
    37     8    33    1
    38    10    34    1
    39    10    35    1
    40    12    36    1
    41    13    37    1
    42    13    38    1
    43    14    39    1
    44    14    40    1
    45    15    41    1
    46    15    42    1
    47    18    43    1
    48    21    44    1
    49    21    45    1
    50    25    46    1
