REMARK  Name = NuBBE_2198
REMARK  5 active torsions:
REMARK  status: ('A' for Active; 'I' for Inactive)
REMARK    1  A    between atoms: C_1  and  C_2
REMARK    2  A    between atoms: C_8  and  C_9
REMARK    3  A    between atoms: C_8  and  C_11
REMARK    4  A    between atoms: C_20  and  C_21
REMARK    5  A    between atoms: C_20  and  C_22
REMARK                            x       y       z     vdW  Elec       q    Type
REMARK                         _______ _______ _______ _____ _____    ______ ____
ROOT
ATOM      1  C   LIG A   1      -1.989  -0.179   0.040  0.00  0.00    +0.012 C 
ATOM      2  C   LIG A   1      -0.849   0.755  -0.439  0.00  0.00    -0.018 C 
ATOM      3  C   LIG A   1      -0.123   1.488   0.744  0.00  0.00    +0.008 C 
ATOM      4  C   LIG A   1       0.534   0.461   1.676  0.00  0.00    +0.079 C 
ATOM      5  C   LIG A   1       1.523  -0.409   0.937  0.00  0.00    +0.137 C 
ATOM      6  C   LIG A   1       1.585  -0.308  -0.581  0.00  0.00    +0.067 C 
ATOM      7  C   LIG A   1       2.359  -1.466  -1.239  0.00  0.00    +0.022 C 
ATOM      8  C   LIG A   1       1.625  -2.844  -1.221  0.00  0.00    -0.007 C 
ATOM      9  C   LIG A   1       1.999  -3.607  -2.510  0.00  0.00    +0.016 C 
ATOM     10  C   LIG A   1       0.097  -2.647  -1.177  0.00  0.00    +0.085 C 
ATOM     11  C   LIG A   1       0.222  -0.065  -1.270  0.00  0.00    +0.072 C 
ATOM     12  C   LIG A   1      -0.299  -1.369  -1.876  0.00  0.00    +0.138 C 
ATOM     13  O   LIG A   1      -1.046  -1.371  -2.851  0.00  0.00    -0.297 OA
ATOM     14  O   LIG A   1       2.315  -1.104   1.576  0.00  0.00    -0.297 OA
ATOM     15  C   LIG A   1      -0.930   2.609   1.496  0.00  0.00    -0.031 C 
ATOM     16  C   LIG A   1       0.049   3.464   2.346  0.00  0.00    +0.011 C 
ATOM     17  C   LIG A   1      -2.004   2.096   2.478  0.00  0.00    +0.011 C 
ATOM     18  C   LIG A   1      -1.576   3.562   0.460  0.00  0.00    +0.007 C 
ATOM     19  C   LIG A   1      -2.346   2.848  -0.646  0.00  0.00    +0.001 C 
ATOM     20  C   LIG A   1      -1.470   1.831  -1.374  0.00  0.00    +0.007 C 
ENDROOT
BRANCH   8  21
ATOM     21  C   LIG A   1       2.147  -3.692  -0.064  0.00  0.00    -0.028 C 
ATOM     22  C   LIG A   1       1.446  -4.445   0.796  0.00  0.00    +0.004 C 
ENDBRANCH   8  21
TORSDOF 1
