REMARK  Name = NuBBE_1014
REMARK  5 active torsions:
REMARK  status: ('A' for Active; 'I' for Inactive)
REMARK    1  A    between atoms: C_1  and  C_2
REMARK    2  A    between atoms: C_6  and  C_15
REMARK    3  A    between atoms: C_8  and  O_14
REMARK    4  A    between atoms: C_9  and  O_10
REMARK    5  A    between atoms: O_10  and  C_11
REMARK                            x       y       z     vdW  Elec       q    Type
REMARK                         _______ _______ _______ _____ _____    ______ ____
ROOT
ATOM      1  C   LIG A   1      -3.783  -0.867  -0.325  0.00  0.00    +0.086 C 
ATOM      2  C   LIG A   1      -2.293  -0.987  -0.246  0.00  0.00    +0.106 A 
ATOM      3  C   LIG A   1      -1.670  -2.163  -0.118  0.00  0.00    +0.092 A 
ATOM      4  C   LIG A   1      -0.201  -2.207  -0.045  0.00  0.00    +0.193 A 
ATOM      5  C   LIG A   1       0.516  -0.910  -0.117  0.00  0.00    +0.071 A 
ATOM      6  C   LIG A   1       1.927  -0.813  -0.063  0.00  0.00    -0.032 A 
ATOM      7  C   LIG A   1       2.526   0.459  -0.139  0.00  0.00    +0.053 A 
ATOM      8  C   LIG A   1       1.741   1.603  -0.261  0.00  0.00    +0.163 A 
ATOM      9  C   LIG A   1       0.351   1.503  -0.300  0.00  0.00    +0.205 A 
ATOM     10  C   LIG A   1      -0.264   0.247  -0.244  0.00  0.00    +0.184 A 
ATOM     11  O   LIG A   1      -1.637   0.225  -0.318  0.00  0.00    -0.456 OA
ATOM     12  C   LIG A   1       2.822  -2.016   0.069  0.00  0.00    +0.045 C 
ATOM     13  O   LIG A   1       0.359  -3.289   0.075  0.00  0.00    -0.287 OA
ENDROOT
BRANCH   9  14
ATOM     14  O   LIG A   1      -0.403   2.638  -0.474  0.00  0.00    -0.488 OA
ATOM     15  C   LIG A   1      -0.832   3.141   0.790  0.00  0.00    +0.277 C 
ENDBRANCH   9  14
BRANCH   8  16
ATOM     16  O   LIG A   1       2.327   2.837  -0.331  0.00  0.00    -0.503 OA
ATOM     17  H   LIG A   1       3.289   2.731  -0.404  0.00  0.00    +0.292 HD
ENDBRANCH   8  16
TORSDOF 2
