@<TRIPOS>MOLECULE
NuBBE_1731
 72 76 0 0 0
SMALL
GASTEIGER

@<TRIPOS>ATOM
      1 C          -1.6629   -0.0607    0.3824 C.3     1  LIG1       -0.0588
      2 C          -0.4512   -0.3727   -0.5489 C.3     1  LIG1       -0.0231
      3 C           0.7982   -0.8719    0.2540 C.3     1  LIG1       -0.0294
      4 H           1.5485   -1.0980   -0.5179 H       1  LIG1        0.0312
      5 C           0.6580   -2.2727    0.9876 C.3     1  LIG1       -0.0246
      6 C          -0.2943   -2.1720    2.2008 C.3     1  LIG1       -0.0590
      7 C           0.2112   -3.3283   -0.0936 C.3     1  LIG1       -0.0235
      8 H           1.0000   -3.2904   -0.8646 H       1  LIG1        0.0315
      9 C          -1.0714   -2.8848   -0.8282 C.3     1  LIG1       -0.0483
     10 C          -0.9055   -1.5145   -1.5029 C.3     1  LIG1       -0.0466
     11 C           0.2063   -4.8271    0.3690 C.3     1  LIG1        0.0267
     12 C          -0.9153   -5.2067    1.3466 C.3     1  LIG1       -0.0528
     13 C           0.0653   -5.7535   -0.8658 C.3     1  LIG1       -0.0528
     14 C           1.5556   -5.1457    1.0371 C.2     1  LIG1        0.1392
     15 O           2.1198   -6.2326    0.8908 O.2     1  LIG1       -0.2968
     16 C           2.1150   -4.1461    2.0217 C.3     1  LIG1        0.0069
     17 C           2.0634   -2.7188    1.4929 C.3     1  LIG1       -0.0404
     18 C           1.4721    0.2428    1.0908 C.3     1  LIG1       -0.0489
     19 C           0.8992    1.6559    0.9693 C.3     1  LIG1       -0.0490
     20 C           0.4560    2.1001   -0.4290 C.3     1  LIG1       -0.0287
     21 H           1.3304    2.5878   -0.8840 H       1  LIG1        0.0310
     22 C          -0.0045    0.9311   -1.3713 C.3     1  LIG1       -0.0232
     23 C           1.1768    0.6680   -2.3551 C.3     1  LIG1       -0.0588
     24 C          -1.1497    1.5331   -2.2276 C.3     1  LIG1       -0.0465
     25 C          -1.1619    3.0227   -1.9227 C.3     1  LIG1       -0.0458
     26 C          -0.7059    3.1388   -0.4580 C.3     1  LIG1        0.0021
     27 H          -1.5224    2.7871    0.1861 H       1  LIG1        0.0342
     28 C          -0.3628    4.6013   -0.0413 C.3     1  LIG1        0.1143
     29 C           0.0922    4.7027    1.4240 C.3     1  LIG1       -0.0246
     30 O           0.6953    5.1142   -0.8691 O.3     1  LIG1       -0.4580
     31 C           0.4920    6.4382   -1.1322 C.2     1  LIG1        0.3077
     32 O           1.2863    7.1494   -1.7259 O.2     1  LIG1       -0.2508
     33 C          -0.8138    6.8908   -0.5552 C.3     1  LIG1        0.0486
     34 C          -1.5159    5.5787   -0.2834 C.3     1  LIG1       -0.0028
     35 H          -2.2128   -0.9568    0.6725 H       1  LIG1        0.0235
     36 H          -2.4147    0.5717   -0.0931 H       1  LIG1        0.0235
     37 H          -1.3823    0.4316    1.3121 H       1  LIG1        0.0235
     38 H          -0.2668   -1.1826    2.6659 H       1  LIG1        0.0235
     39 H          -0.0349   -2.8665    3.0028 H       1  LIG1        0.0235
     40 H          -1.3327   -2.3822    1.9405 H       1  LIG1        0.0235
     41 H          -1.9330   -2.8862   -0.1560 H       1  LIG1        0.0269
     42 H          -1.3190   -3.5943   -1.6243 H       1  LIG1        0.0269
     43 H          -1.8507   -1.2482   -1.9915 H       1  LIG1        0.0271
     44 H          -0.1789   -1.6526   -2.3092 H       1  LIG1        0.0271
     45 H          -0.9337   -6.2916    1.5105 H       1  LIG1        0.0239
     46 H          -1.9008   -4.9208    0.9669 H       1  LIG1        0.0239
     47 H          -0.7858   -4.7665    2.3362 H       1  LIG1        0.0239
     48 H          -0.9223   -5.6715   -1.3300 H       1  LIG1        0.0239
     49 H           0.1925   -6.8088   -0.5950 H       1  LIG1        0.0239
     50 H           0.8231   -5.5234   -1.6232 H       1  LIG1        0.0239
     51 H           3.1614   -4.4086    2.2180 H       1  LIG1        0.0342
     52 H           1.5785   -4.2562    2.9680 H       1  LIG1        0.0342
     53 H           2.7856   -2.6356    0.6693 H       1  LIG1        0.0275
     54 H           2.4217   -2.0501    2.2841 H       1  LIG1        0.0275
     55 H           2.5296    0.2850    0.7939 H       1  LIG1        0.0268
     56 H           1.4923   -0.0099    2.1558 H       1  LIG1        0.0268
     57 H           1.6799    2.3376    1.3260 H       1  LIG1        0.0268
     58 H           0.0824    1.7751    1.6875 H       1  LIG1        0.0268
     59 H           2.1049    0.4072   -1.8392 H       1  LIG1        0.0235
     60 H           1.3995    1.5695   -2.9410 H       1  LIG1        0.0235
     61 H           0.9513   -0.1163   -3.0816 H       1  LIG1        0.0235
     62 H          -2.1292    1.1099   -1.9954 H       1  LIG1        0.0271
     63 H          -1.0121    1.3645   -3.3023 H       1  LIG1        0.0271
     64 H          -2.1644    3.4268   -2.0892 H       1  LIG1        0.0269
     65 H          -0.4707    3.5439   -2.5955 H       1  LIG1        0.0269
     66 H           1.1141    4.3395    1.5525 H       1  LIG1        0.0268
     67 H          -0.5820    4.1576    2.0920 H       1  LIG1        0.0268
     68 H           0.1231    5.7423    1.7691 H       1  LIG1        0.0268
     69 H          -1.3687    7.4986   -1.2740 H       1  LIG1        0.0379
     70 H          -0.6296    7.4578    0.3611 H       1  LIG1        0.0379
     71 H          -2.0989    5.3262   -1.1733 H       1  LIG1        0.0309
     72 H          -2.2201    5.6377    0.5528 H       1  LIG1        0.0309
@<TRIPOS>BOND
     1     1     2    1
     2     2     3    1
     3     3     4    1
     4     3     5    1
     5     5     6    1
     6     5     7    1
     7     7     8    1
     8     7     9    1
     9     9    10    1
    10     2    10    1
    11     7    11    1
    12    11    12    1
    13    11    13    1
    14    11    14    1
    15    14    15    2
    16    14    16    1
    17    16    17    1
    18     5    17    1
    19     3    18    1
    20    18    19    1
    21    19    20    1
    22    20    21    1
    23    20    22    1
    24     2    22    1
    25    22    23    1
    26    22    24    1
    27    24    25    1
    28    25    26    1
    29    26    27    1
    30    20    26    1
    31    26    28    1
    32    28    29    1
    33    28    30    1
    34    30    31    1
    35    31    32    2
    36    31    33    1
    37    33    34    1
    38    28    34    1
    39     1    35    1
    40     1    36    1
    41     1    37    1
    42     6    38    1
    43     6    39    1
    44     6    40    1
    45     9    41    1
    46     9    42    1
    47    10    43    1
    48    10    44    1
    49    12    45    1
    50    12    46    1
    51    12    47    1
    52    13    48    1
    53    13    49    1
    54    13    50    1
    55    16    51    1
    56    16    52    1
    57    17    53    1
    58    17    54    1
    59    18    55    1
    60    18    56    1
    61    19    57    1
    62    19    58    1
    63    23    59    1
    64    23    60    1
    65    23    61    1
    66    24    62    1
    67    24    63    1
    68    25    64    1
    69    25    65    1
    70    29    66    1
    71    29    67    1
    72    29    68    1
    73    33    69    1
    74    33    70    1
    75    34    71    1
    76    34    72    1
