REMARK  Name = NuBBE_347
REMARK  10 active torsions:
REMARK  status: ('A' for Active; 'I' for Inactive)
REMARK    1  A    between atoms: C_5  and  C_32
REMARK    2  A    between atoms: C_11  and  C_15
REMARK    3  A    between atoms: C_18  and  C_20
REMARK    4  A    between atoms: C_20  and  C_22
REMARK    5  A    between atoms: C_20  and  C_30
REMARK    6  A    between atoms: C_23  and  C_24
REMARK    7  A    between atoms: C_24  and  C_26
REMARK    8  A    between atoms: C_24  and  C_27
REMARK    9  A    between atoms: C_27  and  C_28
REMARK   10  A    between atoms: C_27  and  C_29
REMARK                            x       y       z     vdW  Elec       q    Type
REMARK                         _______ _______ _______ _____ _____    ______ ____
ROOT
ATOM      1  O   LIG A   1       1.283   7.080  -0.923  0.00  0.00    -0.293 OA
ATOM      2  C   LIG A   1       0.600   6.078  -1.117  0.00  0.00    +0.156 C 
ATOM      3  C   LIG A   1       1.089   4.915  -1.937  0.00  0.00    +0.080 C 
ATOM      4  C   LIG A   1      -0.064   4.282  -2.706  0.00  0.00    +0.019 C 
ATOM      5  C   LIG A   1      -1.294   3.897  -1.835  0.00  0.00    +0.000 C 
ATOM      6  C   LIG A   1      -1.500   4.892  -0.696  0.00  0.00    -0.038 C 
ATOM      7  C   LIG A   1      -2.636   4.607   0.154  0.00  0.00    +0.004 C 
ATOM      8  C   LIG A   1      -2.977   3.335   0.422  0.00  0.00    +0.004 C 
ATOM      9  C   LIG A   1      -2.199   2.205  -0.061  0.00  0.00    -0.044 C 
ATOM     10  C   LIG A   1      -2.129   1.040   0.619  0.00  0.00    -0.060 C 
ATOM     11  C   LIG A   1      -1.177  -0.102   0.236  0.00  0.00    -0.007 C 
ATOM     12  C   LIG A   1       0.078   0.403  -0.518  0.00  0.00    +0.012 C 
ATOM     13  C   LIG A   1       0.113   1.905  -0.838  0.00  0.00    +0.010 C 
ATOM     14  C   LIG A   1      -1.267   2.425  -1.264  0.00  0.00    +0.029 C 
ATOM     15  C   LIG A   1      -1.961  -1.052  -0.709  0.00  0.00    +0.016 C 
ATOM     16  C   LIG A   1      -2.733   0.747   1.964  0.00  0.00    +0.032 C 
ATOM     17  C   LIG A   1      -1.555   0.094   2.666  0.00  0.00    +0.009 C 
ATOM     18  C   LIG A   1      -0.963  -0.853   1.608  0.00  0.00    +0.006 C 
ATOM     19  C   LIG A   1      -0.697   5.928  -0.416  0.00  0.00    +0.050 C 
ATOM     20  C   LIG A   1      -2.516   3.994  -2.805  0.00  0.00    +0.016 C 
ENDROOT
BRANCH  18  21
ATOM     21  C   LIG A   1       0.396  -1.472   2.042  0.00  0.00    +0.012 C 
ATOM     22  C   LIG A   1       1.449  -0.488   2.571  0.00  0.00    +0.012 C 
BRANCH  21  23
ATOM     23  C   LIG A   1       0.980  -2.403   1.000  0.00  0.00    -0.027 C 
ATOM     24  C   LIG A   1       1.028  -3.740   1.123  0.00  0.00    -0.027 C 
BRANCH  24  25
ATOM     25  C   LIG A   1       1.605  -4.664   0.069  0.00  0.00    +0.011 C 
ATOM     26  C   LIG A   1       0.482  -5.606  -0.381  0.00  0.00    +0.012 C 
BRANCH  25  27
ATOM     27  C   LIG A   1       2.848  -5.436   0.593  0.00  0.00    -0.011 C 
ATOM     28  C   LIG A   1       3.452  -6.345  -0.485  0.00  0.00    +0.008 C 
ATOM     29  C   LIG A   1       3.946  -4.488   1.095  0.00  0.00    +0.008 C 
ENDBRANCH  25  27
ENDBRANCH  24  25
ENDBRANCH  21  23
ENDBRANCH  18  21
TORSDOF 4
