@<TRIPOS>MOLECULE
NuBBE_1511
 74 77 0 0 0
SMALL
GASTEIGER

@<TRIPOS>ATOM
      1 C          -2.2927   -0.5711   -1.8198 C.3     1  LIG1       -0.0588
      2 C          -0.9014   -0.6556   -1.1035 C.3     1  LIG1       -0.0192
      3 C          -0.1140    0.6698   -1.4383 C.3     1  LIG1       -0.0320
      4 H          -0.0507    0.7303   -2.5363 H       1  LIG1        0.0309
      5 C          -0.8849    1.9341   -0.9768 C.3     1  LIG1       -0.0340
      6 H          -1.7704    1.9979   -1.6273 H       1  LIG1        0.0307
      7 C          -0.1402    3.2586   -1.3169 C.3     1  LIG1       -0.0252
      8 H          -0.3331    3.4221   -2.3872 H       1  LIG1        0.0313
      9 C           1.3944    3.2821   -1.0857 C.3     1  LIG1       -0.0191
     10 C           2.0714    1.9403   -1.4254 C.3     1  LIG1       -0.0464
     11 C           1.3395    0.6972   -0.9292 C.3     1  LIG1       -0.0489
     12 C           2.0208    4.3504   -2.0257 C.3     1  LIG1       -0.0586
     13 C           1.5337    3.6917    0.4174 C.3     1  LIG1        0.0229
     14 H           1.3632    2.8202    1.0606 H       1  LIG1        0.0383
     15 C           0.3235    4.6046    0.5876 C.2     1  LIG1        0.1372
     16 O           0.1248    5.3355    1.5500 O.2     1  LIG1       -0.2971
     17 C          -0.6539    4.4914   -0.5588 C.3     1  LIG1        0.0097
     18 C           2.8724    4.3481    0.7853 C.3     1  LIG1       -0.0459
     19 C           3.0125    4.7146    2.2573 C.3     1  LIG1       -0.0646
     20 C          -1.4922    1.8028    0.4318 C.3     1  LIG1       -0.0493
     21 C          -1.1014    0.5582    1.1952 C.3     1  LIG1       -0.0459
     22 C          -1.1954   -0.7730    0.4317 C.3     1  LIG1        0.0056
     23 H          -2.2457   -1.0788    0.5475 H       1  LIG1        0.0343
     24 C          -0.3728   -1.8512    1.1681 C.3     1  LIG1        0.1465
     25 H           0.6922   -1.5736    1.1747 H       1  LIG1        0.0776
     26 O          -0.8259   -1.9670    2.5368 O.3     1  LIG1       -0.4574
     27 C          -0.1134   -1.2828    3.4957 C.2     1  LIG1        0.3043
     28 O           0.8912   -0.6186    3.2965 O.2     1  LIG1       -0.2512
     29 C          -0.8089   -1.3576    4.8227 C.3     1  LIG1        0.0332
     30 C          -0.4887   -3.1954    0.4275 C.3     1  LIG1        0.1765
     31 H          -0.0719   -4.0131    1.0246 H       1  LIG1        0.0809
     32 C           0.3165   -3.0264   -0.8693 C.3     1  LIG1        0.1438
     33 H           1.3638   -2.8040   -0.6284 H       1  LIG1        0.0773
     34 C          -0.2123   -1.8997   -1.7688 C.3     1  LIG1       -0.0060
     35 O           0.2590   -4.2347   -1.6659 O.3     1  LIG1       -0.4576
     36 C           1.1049   -5.2386   -1.3244 C.2     1  LIG1        0.3043
     37 O           1.9256   -5.1907   -0.4190 O.2     1  LIG1       -0.2512
     38 C           0.8590   -6.4395   -2.1873 C.3     1  LIG1        0.0332
     39 O          -1.8500   -3.5528    0.0417 O.3     1  LIG1       -0.4540
     40 C          -2.5039   -4.4336    0.8455 C.2     1  LIG1        0.3044
     41 O          -2.1801   -4.7112    1.9930 O.2     1  LIG1       -0.2512
     42 C          -3.5891   -5.1539    0.0966 C.3     1  LIG1        0.0332
     43 H          -2.9567    0.1730   -1.3723 H       1  LIG1        0.0235
     44 H          -2.8230   -1.5297   -1.7597 H       1  LIG1        0.0235
     45 H          -2.1746   -0.3255   -2.8818 H       1  LIG1        0.0235
     46 H           3.0985    1.9290   -1.0408 H       1  LIG1        0.0271
     47 H           2.1612    1.8500   -2.5171 H       1  LIG1        0.0271
     48 H           1.4046    0.6523    0.1583 H       1  LIG1        0.0268
     49 H           1.8881   -0.1784   -1.2935 H       1  LIG1        0.0268
     50 H           1.7547    4.1538   -3.0710 H       1  LIG1        0.0235
     51 H           3.1145    4.3436   -1.9664 H       1  LIG1        0.0235
     52 H           1.6803    5.3643   -1.7910 H       1  LIG1        0.0235
     53 H          -0.5750    5.3971   -1.1667 H       1  LIG1        0.0345
     54 H          -1.6816    4.3914   -0.2025 H       1  LIG1        0.0345
     55 H           3.6858    3.6579    0.5314 H       1  LIG1        0.0269
     56 H           3.0339    5.2643    0.2068 H       1  LIG1        0.0269
     57 H           2.7499    3.8770    2.9091 H       1  LIG1        0.0230
     58 H           2.3850    5.5722    2.5163 H       1  LIG1        0.0230
     59 H           4.0472    5.0042    2.4707 H       1  LIG1        0.0230
     60 H          -2.5859    1.8157    0.3418 H       1  LIG1        0.0268
     61 H          -1.2512    2.6474    1.0791 H       1  LIG1        0.0268
     62 H          -1.7402    0.4972    2.0856 H       1  LIG1        0.0269
     63 H          -0.0878    0.7169    1.5687 H       1  LIG1        0.0269
     64 H          -1.5291   -0.5404    4.9192 H       1  LIG1        0.0342
     65 H          -0.0691   -1.2840    5.6228 H       1  LIG1        0.0342
     66 H          -1.3234   -2.3194    4.9301 H       1  LIG1        0.0342
     67 H          -0.8976   -2.3558   -2.4988 H       1  LIG1        0.0307
     68 H           0.6160   -1.5776   -2.4149 H       1  LIG1        0.0307
     69 H           0.2008   -6.1843   -3.0247 H       1  LIG1        0.0342
     70 H           0.3789   -7.2178   -1.5903 H       1  LIG1        0.0342
     71 H           1.8050   -6.7972   -2.6012 H       1  LIG1        0.0342
     72 H          -4.3265   -5.5415    0.8070 H       1  LIG1        0.0342
     73 H          -3.1481   -5.9916   -0.4481 H       1  LIG1        0.0342
     74 H          -4.1100   -4.4916   -0.5998 H       1  LIG1        0.0342
@<TRIPOS>BOND
     1     2     3    1
     2     3     5    1
     3     5     7    1
     4     7     9    1
     5     9    10    1
     6    10    11    1
     7     3    11    1
     8     9    13    1
     9    13    15    1
    10    15    17    1
    11     7    17    1
    12    18    19    1
    13     5    20    1
    14    20    21    1
    15    21    22    1
    16     2    22    1
    17    22    24    1
    18    26    27    1
    19    27    28    2
    20    27    29    1
    21    24    30    1
    22    30    32    1
    23    32    34    1
    24     2    34    1
    25    35    36    1
    26    36    37    2
    27    36    38    1
    28    39    40    1
    29    40    41    2
    30    40    42    1
    31     1     2    1
    32     3     4    1
    33     5     6    1
    34     7     8    1
    35     9    12    1
    36    15    16    2
    37    22    23    1
    38    30    31    1
    39    30    39    1
    40    13    18    1
    41    13    14    1
    42    32    35    1
    43    32    33    1
    44    24    26    1
    45    24    25    1
    46     1    43    1
    47     1    44    1
    48     1    45    1
    49    10    46    1
    50    10    47    1
    51    11    48    1
    52    11    49    1
    53    12    50    1
    54    12    51    1
    55    12    52    1
    56    17    53    1
    57    17    54    1
    58    18    55    1
    59    18    56    1
    60    19    57    1
    61    19    58    1
    62    19    59    1
    63    20    60    1
    64    20    61    1
    65    21    62    1
    66    21    63    1
    67    29    64    1
    68    29    65    1
    69    29    66    1
    70    34    67    1
    71    34    68    1
    72    38    69    1
    73    38    70    1
    74    38    71    1
    75    42    72    1
    76    42    73    1
    77    42    74    1
