@<TRIPOS>MOLECULE
NuBBE_1800
 67 67 0 0 0
SMALL
GASTEIGER

@<TRIPOS>ATOM
      1 O          -3.8125    2.2538   -1.1616 O.2     1  LIG1       -0.2505
      2 C          -2.6510    1.9343   -0.9649 C.2     1  LIG1        0.3107
      3 O          -2.0784    0.7969   -1.4815 O.3     1  LIG1       -0.4611
      4 C          -1.6285    2.7372   -0.1810 C.3     1  LIG1        0.0622
      5 C          -1.7353    2.5303    1.3485 C.3     1  LIG1       -0.0114
      6 C          -0.7200    3.3643    2.1835 C.3     1  LIG1        0.0830
      7 O          -0.9746    4.7764    1.9598 O.3     1  LIG1       -0.3716
      8 C          -0.1359    5.7183    2.6621 C.3     1  LIG1        0.0535
      9 C           1.3394    5.5789    2.2809 C.3     1  LIG1       -0.0389
     10 C          -0.6491    7.1507    2.4370 C.3     1  LIG1       -0.0389
     11 C          -0.8178    3.0131    3.6845 C.3     1  LIG1        0.0742
     12 O          -0.6311    1.6282    3.9978 O.3     1  LIG1       -0.3746
     13 C          -0.5849    1.4206    5.4257 C.3     1  LIG1        0.0532
     14 C          -1.9505    1.6622    6.0676 C.3     1  LIG1       -0.0390
     15 C          -0.1349   -0.0090    5.7051 C.3     1  LIG1       -0.0390
     16 C          -0.3632    2.1959   -0.8459 C.3     1  LIG1       -0.0027
     17 C          -0.7143    0.7286   -1.0536 C.3     1  LIG1        0.1038
     18 C           0.1577   -0.0541   -2.0594 C.3     1  LIG1       -0.0156
     19 C          -0.2888   -1.5378   -2.2000 C.3     1  LIG1       -0.0497
     20 C           0.5619   -2.3595   -3.1954 C.3     1  LIG1       -0.0529
     21 C           0.1321   -3.8456   -3.3338 C.3     1  LIG1       -0.0531
     22 C           1.0102   -4.5967   -4.3721 C.3     1  LIG1       -0.0530
     23 C           0.6464   -6.0830   -4.5575 C.3     1  LIG1       -0.0522
     24 C           1.5156   -6.8797   -5.5629 C.3     1  LIG1       -0.0422
     25 C           3.0099   -6.9769   -5.2431 C.3     1  LIG1        0.0089
     26 C           3.2288   -7.6331   -3.9473 C.1     1  LIG1       -0.1056
     27 C           3.3333   -8.1715   -2.9015 C.1     1  LIG1       -0.1192
     28 H          -1.7683    3.7957   -0.4226 H       1  LIG1        0.0415
     29 H          -1.6305    1.4666    1.5967 H       1  LIG1        0.0299
     30 H          -2.7527    2.8078    1.6605 H       1  LIG1        0.0299
     31 H           0.2870    3.1226    1.8322 H       1  LIG1        0.0619
     32 H          -0.2320    5.5524    3.7395 H       1  LIG1        0.0590
     33 H           1.8643    6.5400    2.2782 H       1  LIG1        0.0254
     34 H           1.4850    5.0961    1.3106 H       1  LIG1        0.0254
     35 H           1.8445    4.9546    3.0278 H       1  LIG1        0.0254
     36 H          -1.1812    7.2745    1.4900 H       1  LIG1        0.0254
     37 H           0.1526    7.8968    2.4958 H       1  LIG1        0.0254
     38 H          -1.3571    7.4160    3.2339 H       1  LIG1        0.0254
     39 H          -1.7941    3.3476    4.0448 H       1  LIG1        0.0586
     40 H          -0.0426    3.5636    4.2235 H       1  LIG1        0.0586
     41 H           0.1580    2.0996    5.8644 H       1  LIG1        0.0590
     42 H          -2.7100    1.0259    5.6019 H       1  LIG1        0.0254
     43 H          -2.2817    2.6969    5.9416 H       1  LIG1        0.0254
     44 H          -1.9254    1.4638    7.1432 H       1  LIG1        0.0254
     45 H          -0.8136   -0.7305    5.2395 H       1  LIG1        0.0254
     46 H          -0.1011   -0.2063    6.7828 H       1  LIG1        0.0254
     47 H           0.8624   -0.1913    5.2921 H       1  LIG1        0.0254
     48 H           0.5572    2.3624   -0.2845 H       1  LIG1        0.0309
     49 H          -0.2589    2.7015   -1.8173 H       1  LIG1        0.0309
     50 H          -0.6971    0.1936   -0.0976 H       1  LIG1        0.0734
     51 H           1.2003   -0.0268   -1.7182 H       1  LIG1        0.0301
     52 H           0.1202    0.4274   -3.0442 H       1  LIG1        0.0301
     53 H          -1.3386   -1.5709   -2.5129 H       1  LIG1        0.0266
     54 H          -0.2291   -2.0119   -1.2132 H       1  LIG1        0.0266
     55 H           1.6088   -2.3317   -2.8712 H       1  LIG1        0.0265
     56 H           0.5162   -1.8837   -4.1820 H       1  LIG1        0.0265
     57 H          -0.9218   -3.9017   -3.6343 H       1  LIG1        0.0265
     58 H           0.2093   -4.3397   -2.3566 H       1  LIG1        0.0265
     59 H           2.0585   -4.5089   -4.0677 H       1  LIG1        0.0265
     60 H           0.9055   -4.0943   -5.3402 H       1  LIG1        0.0265
     61 H          -0.3882   -6.1439   -4.9171 H       1  LIG1        0.0266
     62 H           0.6656   -6.5945   -3.5886 H       1  LIG1        0.0266
     63 H           1.3900   -6.4694   -6.5725 H       1  LIG1        0.0274
     64 H           1.1159   -7.9041   -5.6036 H       1  LIG1        0.0274
     65 H           3.4825   -5.9902   -5.2748 H       1  LIG1        0.0397
     66 H           3.5063   -7.5777   -6.0254 H       1  LIG1        0.0397
     67 H           3.3695   -8.6704   -1.9456 H       1  LIG1        0.1228
@<TRIPOS>BOND
     1     1     2    2
     2     2     3    1
     3     2     4    1
     4     4     5    1
     5     5     6    1
     6     6     7    1
     7     7     8    1
     8     8     9    1
     9     8    10    1
    10     6    11    1
    11    11    12    1
    12    12    13    1
    13    13    14    1
    14    13    15    1
    15     4    16    1
    16    16    17    1
    17     3    17    1
    18    17    18    1
    19    18    19    1
    20    19    20    1
    21    20    21    1
    22    21    22    1
    23    22    23    1
    24    23    24    1
    25    24    25    1
    26    25    26    1
    27    26    27    3
    28     4    28    1
    29     5    29    1
    30     5    30    1
    31     6    31    1
    32     8    32    1
    33     9    33    1
    34     9    34    1
    35     9    35    1
    36    10    36    1
    37    10    37    1
    38    10    38    1
    39    11    39    1
    40    11    40    1
    41    13    41    1
    42    14    42    1
    43    14    43    1
    44    14    44    1
    45    15    45    1
    46    15    46    1
    47    15    47    1
    48    16    48    1
    49    16    49    1
    50    17    50    1
    51    18    51    1
    52    18    52    1
    53    19    53    1
    54    19    54    1
    55    20    55    1
    56    20    56    1
    57    21    57    1
    58    21    58    1
    59    22    59    1
    60    22    60    1
    61    23    61    1
    62    23    62    1
    63    24    63    1
    64    24    64    1
    65    25    65    1
    66    25    66    1
    67    27    67    1
