REMARK  Name = NuBBE_2204
REMARK  8 active torsions:
REMARK  status: ('A' for Active; 'I' for Inactive)
REMARK    1  A    between atoms: C_1  and  C_3
REMARK    2  A    between atoms: C_1  and  C_7
REMARK    3  A    between atoms: C_4  and  C_5
REMARK    4  A    between atoms: C_4  and  C_6
REMARK    5  A    between atoms: C_9  and  C_10
REMARK    6  A    between atoms: C_10  and  C_11
REMARK    7  A    between atoms: C_10  and  O_12
REMARK    8  A    between atoms: C_15  and  O_16
REMARK                            x       y       z     vdW  Elec       q    Type
REMARK                         _______ _______ _______ _____ _____    ______ ____
ROOT
ATOM      1  C   LIG A   1       0.088  -0.095  -0.558  0.00  0.00    +0.063 A 
ATOM      2  C   LIG A   1       0.620   1.205  -0.639  0.00  0.00    +0.021 A 
ATOM      3  C   LIG A   1       2.011   1.419  -0.691  0.00  0.00    -0.018 A 
ATOM      4  C   LIG A   1       2.861   0.302  -0.696  0.00  0.00    +0.010 A 
ATOM      5  C   LIG A   1       2.342  -0.992  -0.662  0.00  0.00    +0.046 A 
ATOM      6  C   LIG A   1       0.963  -1.190  -0.594  0.00  0.00    +0.128 A 
ENDROOT
BRANCH   1   7
ATOM      7  C   LIG A   1      -1.392  -0.235  -0.414  0.00  0.00    +0.190 C 
ATOM      8  O   LIG A   1      -2.147   0.543  -0.989  0.00  0.00    -0.287 OA
BRANCH   7   9
ATOM      9  C   LIG A   1      -1.873  -1.284   0.543  0.00  0.00    +0.050 C 
ATOM     10  C   LIG A   1      -3.107  -1.804   0.699  0.00  0.00    -0.072 C 
ATOM     11  C   LIG A   1      -4.348  -1.433  -0.057  0.00  0.00    +0.039 C 
ATOM     12  C   LIG A   1      -3.313  -2.904   1.712  0.00  0.00    +0.039 C 
ENDBRANCH   7   9
ENDBRANCH   1   7
BRANCH   3  13
ATOM     13  C   LIG A   1       2.577   2.826  -0.688  0.00  0.00    +0.142 C 
ATOM     14  C   LIG A   1       2.830   3.326   0.730  0.00  0.00    +0.043 C 
BRANCH  13  15
ATOM     15  O   LIG A   1       3.805   2.857  -1.412  0.00  0.00    -0.388 OA
ATOM     16  H   LIG A   1       4.112   3.779  -1.414  0.00  0.00    +0.210 HD
ENDBRANCH  13  15
ENDBRANCH   3  13
BRANCH   6  17
ATOM     17  O   LIG A   1       0.483  -2.471  -0.574  0.00  0.00    -0.506 OA
ATOM     18  H   LIG A   1       1.223  -3.094  -0.669  0.00  0.00    +0.292 HD
ENDBRANCH   6  17
TORSDOF 5
