@<TRIPOS>MOLECULE
NuBBE_1680
 62 62 0 0 0
SMALL
GASTEIGER

@<TRIPOS>ATOM
      1 C          -4.6397    1.0925    6.8275 C.3     1  LIG1       -0.0653
      2 C          -3.4287    1.9966    6.6611 C.3     1  LIG1       -0.0559
      3 C          -3.4388    2.8962    5.4220 C.3     1  LIG1       -0.0533
      4 C          -3.5577    2.2247    4.0497 C.3     1  LIG1       -0.0531
      5 C          -2.3675    1.3273    3.6491 C.3     1  LIG1       -0.0531
      6 C          -0.9951    2.0310    3.6738 C.3     1  LIG1       -0.0531
      7 C           0.2248    1.1677    3.2636 C.3     1  LIG1       -0.0531
      8 C           0.1700    0.7188    1.8062 C.3     1  LIG1       -0.0531
      9 C           1.4020   -0.0165    1.2591 C.3     1  LIG1       -0.0531
     10 C           1.1897   -0.3539   -0.2244 C.3     1  LIG1       -0.0531
     11 C           1.0405    0.8818   -1.1367 C.3     1  LIG1       -0.0531
     12 C           0.7647    0.4169   -2.5566 C.3     1  LIG1       -0.0530
     13 C           0.7783    1.5028   -3.6248 C.3     1  LIG1       -0.0528
     14 C           0.5426    0.9603   -5.0500 C.3     1  LIG1       -0.0491
     15 C           1.6672    0.0915   -5.6736 C.3     1  LIG1       -0.0275
     16 C           1.9452   -1.2485   -5.0342 C.ar    1  LIG1       -0.0405
     17 C           1.2152   -2.3928   -5.3147 C.ar    1  LIG1       -0.0165
     18 C           1.4344   -3.5751   -4.5948 C.ar    1  LIG1        0.1235
     19 O           0.7397   -4.7076   -4.8894 O.3     1  LIG1       -0.5064
     20 C           2.3690   -3.6357   -3.5342 C.ar    1  LIG1        0.0323
     21 C           2.5219   -4.8966   -2.7383 C.3     1  LIG1       -0.0328
     22 C           3.1413   -2.5070   -3.3212 C.ar    1  LIG1        0.1235
     23 O           4.0990   -2.4399   -2.3390 O.3     1  LIG1       -0.5064
     24 C           2.9755   -1.3418   -4.0626 C.ar    1  LIG1       -0.0165
     25 H          -4.7246    0.7763    7.8745 H       1  LIG1        0.0230
     26 H          -4.5390    0.1881    6.2203 H       1  LIG1        0.0230
     27 H          -5.5708    1.5986    6.5561 H       1  LIG1        0.0230
     28 H          -2.5177    1.3891    6.6857 H       1  LIG1        0.0263
     29 H          -3.3805    2.6578    7.5361 H       1  LIG1        0.0263
     30 H          -2.5182    3.4890    5.4397 H       1  LIG1        0.0265
     31 H          -4.2551    3.6223    5.5272 H       1  LIG1        0.0265
     32 H          -3.6702    3.0206    3.2994 H       1  LIG1        0.0265
     33 H          -4.4886    1.6437    3.9955 H       1  LIG1        0.0265
     34 H          -2.5714    0.9447    2.6414 H       1  LIG1        0.0265
     35 H          -2.3438    0.4637    4.3204 H       1  LIG1        0.0265
     36 H          -0.7977    2.3757    4.6937 H       1  LIG1        0.0265
     37 H          -1.0339    2.9276    3.0407 H       1  LIG1        0.0265
     38 H           0.3065    0.3001    3.9266 H       1  LIG1        0.0265
     39 H           1.1284    1.7731    3.4176 H       1  LIG1        0.0265
     40 H          -0.0049    1.6128    1.2040 H       1  LIG1        0.0265
     41 H          -0.6877    0.0527    1.6747 H       1  LIG1        0.0265
     42 H           1.5517   -0.9569    1.8066 H       1  LIG1        0.0265
     43 H           2.3237    0.5667    1.3774 H       1  LIG1        0.0265
     44 H           0.2954   -0.9831   -0.3225 H       1  LIG1        0.0265
     45 H           2.0308   -0.9683   -0.5750 H       1  LIG1        0.0265
     46 H           1.9679    1.4664   -1.1039 H       1  LIG1        0.0265
     47 H           0.2199    1.5297   -0.8255 H       1  LIG1        0.0265
     48 H          -0.1600   -0.1675   -2.6119 H       1  LIG1        0.0265
     49 H           1.5686   -0.2645   -2.7441 H       1  LIG1        0.0265
     50 H           1.7245    2.0557   -3.5972 H       1  LIG1        0.0265
     51 H          -0.0150    2.2264   -3.3941 H       1  LIG1        0.0265
     52 H           0.4274    1.8387   -5.7024 H       1  LIG1        0.0268
     53 H          -0.4158    0.4293   -5.0886 H       1  LIG1        0.0268
     54 H           2.5871    0.6828   -5.6961 H       1  LIG1        0.0313
     55 H           1.4077   -0.0889   -6.7232 H       1  LIG1        0.0313
     56 H           0.4499   -2.3649   -6.0982 H       1  LIG1        0.0657
     57 H           0.2868   -4.5728   -5.7455 H       1  LIG1        0.2921
     58 H           1.5782   -5.4487   -2.6628 H       1  LIG1        0.0280
     59 H           2.8260   -4.6833   -1.7063 H       1  LIG1        0.0280
     60 H           3.2717   -5.5390   -3.2056 H       1  LIG1        0.0280
     61 H           4.4090   -3.3277   -2.1612 H       1  LIG1        0.2921
     62 H           3.5402   -0.4589   -3.7909 H       1  LIG1        0.0657
@<TRIPOS>BOND
     1     1     2    1
     2     2     3    1
     3     3     4    1
     4     4     5    1
     5     5     6    1
     6     6     7    1
     7     7     8    1
     8     8     9    1
     9     9    10    1
    10    10    11    1
    11    11    12    1
    12    12    13    1
    13    13    14    1
    14    14    15    1
    15    15    16    1
    16    16    17   ar
    17    17    18   ar
    18    18    19    1
    19    18    20   ar
    20    20    21    1
    21    20    22   ar
    22    22    23    1
    23    22    24   ar
    24    16    24   ar
    25     1    25    1
    26     1    26    1
    27     1    27    1
    28     2    28    1
    29     2    29    1
    30     3    30    1
    31     3    31    1
    32     4    32    1
    33     4    33    1
    34     5    34    1
    35     5    35    1
    36     6    36    1
    37     6    37    1
    38     7    38    1
    39     7    39    1
    40     8    40    1
    41     8    41    1
    42     9    42    1
    43     9    43    1
    44    10    44    1
    45    10    45    1
    46    11    46    1
    47    11    47    1
    48    12    48    1
    49    12    49    1
    50    13    50    1
    51    13    51    1
    52    14    52    1
    53    14    53    1
    54    15    54    1
    55    15    55    1
    56    17    56    1
    57    19    57    1
    58    21    58    1
    59    21    59    1
    60    21    60    1
    61    23    61    1
    62    24    62    1
