REMARK  Name = NuBBE_581
REMARK  7 active torsions:
REMARK  status: ('A' for Active; 'I' for Inactive)
REMARK    1  A    between atoms: O_1  and  C_2
REMARK    2  A    between atoms: C_5  and  C_21
REMARK    3  A    between atoms: C_8  and  C_10
REMARK    4  A    between atoms: C_11  and  C_12
REMARK    5  A    between atoms: C_18  and  O_20
REMARK    6  A    between atoms: C_21  and  C_22
REMARK    7  A    between atoms: C_23  and  C_24
REMARK                            x       y       z     vdW  Elec       q    Type
REMARK                         _______ _______ _______ _____ _____    ______ ____
ROOT
ATOM      1  C   LIG A   1      -0.800   1.136   3.600  0.00  0.00    +0.148 C 
ATOM      2  C   LIG A   1      -0.171  -0.238   3.407  0.00  0.00    +0.066 C 
ATOM      3  C   LIG A   1      -0.271  -0.656   1.937  0.00  0.00    +0.125 C 
ATOM      4  O   LIG A   1       0.379   0.333   1.124  0.00  0.00    -0.366 OA
ATOM      5  C   LIG A   1      -0.253   1.613   1.199  0.00  0.00    +0.172 C 
ATOM      6  C   LIG A   1      -0.189   2.163   2.638  0.00  0.00    +0.175 C 
ENDROOT
BRANCH   1   7
ATOM      7  O   LIG A   1      -0.611   1.563   4.951  0.00  0.00    -0.389 OA
ATOM      8  H   LIG A   1      -0.748   2.532   4.947  0.00  0.00    +0.210 HD
ENDBRANCH   1   7
BRANCH   5   9
ATOM      9  C   LIG A   1       0.481   2.504   0.243  0.00  0.00    +0.007 C 
ATOM     10  C   LIG A   1      -0.085   3.148  -0.791  0.00  0.00    +0.006 C 
BRANCH  10  11
ATOM     11  C   LIG A   1       0.673   4.015  -1.704  0.00  0.00    -0.025 A 
ATOM     12  C   LIG A   1       1.774   4.761  -1.262  0.00  0.00    +0.008 A 
ATOM     13  C   LIG A   1       2.496   5.561  -2.147  0.00  0.00    +0.001 A 
ATOM     14  C   LIG A   1       2.110   5.642  -3.482  0.00  0.00    +0.000 A 
ATOM     15  C   LIG A   1       0.996   4.934  -3.928  0.00  0.00    +0.001 A 
ATOM     16  C   LIG A   1       0.274   4.129  -3.042  0.00  0.00    +0.008 A 
ENDBRANCH  10  11
ENDBRANCH   5   9
BRANCH   6  17
ATOM     17  O   LIG A   1      -0.894   3.402   2.809  0.00  0.00    -0.386 OA
ATOM     18  H   LIG A   1      -1.698   3.374   2.261  0.00  0.00    +0.210 HD
ENDBRANCH   6  17
BRANCH   3  19
ATOM     19  C   LIG A   1       0.403  -2.020   1.699  0.00  0.00    +0.058 C 
BRANCH  19  20
ATOM     20  C   LIG A   1       0.312  -2.456   0.257  0.00  0.00    -0.025 C 
ATOM     21  C   LIG A   1      -0.283  -3.587  -0.155  0.00  0.00    +0.013 C 
BRANCH  21  22
ATOM     22  C   LIG A   1      -0.414  -4.003  -1.602  0.00  0.00    +0.203 C 
ATOM     23  O   LIG A   1      -1.818  -4.119  -1.913  0.00  0.00    -0.454 OA
ATOM     24  C   LIG A   1      -2.507  -5.245  -1.601  0.00  0.00    +0.332 C 
ATOM     25  C   LIG A   1      -1.714  -6.453  -1.294  0.00  0.00    +0.087 C 
ATOM     26  C   LIG A   1      -0.390  -6.495  -1.485  0.00  0.00    -0.016 C 
ATOM     27  C   LIG A   1       0.352  -5.285  -1.952  0.00  0.00    +0.076 C 
ATOM     28  O   LIG A   1      -3.726  -5.290  -1.595  0.00  0.00    -0.246 OA
ENDBRANCH  21  22
ENDBRANCH  19  20
ENDBRANCH   3  19
TORSDOF 7
