REMARK  Name = NuBBE_349
REMARK  12 active torsions:
REMARK  status: ('A' for Active; 'I' for Inactive)
REMARK    1  A    between atoms: O_1  and  C_2
REMARK    2  A    between atoms: C_2  and  C_3
REMARK    3  A    between atoms: C_5  and  C_6
REMARK    4  A    between atoms: C_6  and  C_7
REMARK    5  A    between atoms: C_8  and  C_9
REMARK    6  A    between atoms: C_8  and  C_10
REMARK    7  A    between atoms: C_10  and  C_11
REMARK    8  A    between atoms: C_11  and  C_12
REMARK    9  A    between atoms: C_13  and  C_14
REMARK   10  A    between atoms: C_13  and  C_15
REMARK   11  A    between atoms: C_16  and  O_17
REMARK   12  A    between atoms: O_17  and  C_18
REMARK                            x       y       z     vdW  Elec       q    Type
REMARK                         _______ _______ _______ _____ _____    ______ ____
ROOT
ATOM      1  C   LIG A   1       3.345   1.285  -0.675  0.00  0.00    +0.059 A 
ATOM      2  C   LIG A   1       2.062   1.043  -1.172  0.00  0.00    +0.022 A 
ATOM      3  C   LIG A   1       1.774  -0.125  -1.907  0.00  0.00    -0.001 A 
ATOM      4  C   LIG A   1       2.799  -1.064  -2.121  0.00  0.00    +0.124 A 
ATOM      5  C   LIG A   1       4.091  -0.805  -1.649  0.00  0.00    +0.046 A 
ATOM      6  C   LIG A   1       4.361   0.358  -0.921  0.00  0.00    +0.018 A 
ENDROOT
BRANCH   1   7
ATOM      7  C   LIG A   1       3.672   2.479   0.153  0.00  0.00    +0.337 C 
ATOM      8  O   LIG A   1       4.572   2.486   0.968  0.00  0.00    -0.245 OA
BRANCH   7   9
ATOM      9  O   LIG A   1       2.906   3.563  -0.109  0.00  0.00    -0.477 OA
ATOM     10  H   LIG A   1       2.281   3.475  -0.846  0.00  0.00    +0.295 HD
ENDBRANCH   7   9
ENDBRANCH   1   7
BRANCH   4  11
ATOM     11  O   LIG A   1       2.473  -2.189  -2.833  0.00  0.00    -0.495 OA
ATOM     12  C   LIG A   1       3.207  -3.363  -2.495  0.00  0.00    +0.277 C 
ENDBRANCH   4  11
BRANCH   3  13
ATOM     13  C   LIG A   1       0.371  -0.319  -2.453  0.00  0.00    +0.066 C 
BRANCH  13  14
ATOM     14  C   LIG A   1      -0.678  -0.330  -1.370  0.00  0.00    -0.023 C 
ATOM     15  C   LIG A   1      -1.607   0.607  -1.084  0.00  0.00    -0.076 C 
ATOM     16  C   LIG A   1      -1.792   1.902  -1.826  0.00  0.00    +0.038 C 
BRANCH  15  17
ATOM     17  C   LIG A   1      -2.576   0.377   0.061  0.00  0.00    +0.034 C 
BRANCH  17  18
ATOM     18  C   LIG A   1      -2.053   0.927   1.391  0.00  0.00    +0.031 C 
BRANCH  18  19
ATOM     19  C   LIG A   1      -3.052   0.702   2.495  0.00  0.00    -0.028 C 
ATOM     20  C   LIG A   1      -3.137  -0.372   3.304  0.00  0.00    -0.080 C 
ATOM     21  C   LIG A   1      -2.233  -1.572   3.239  0.00  0.00    +0.038 C 
ATOM     22  C   LIG A   1      -4.211  -0.459   4.356  0.00  0.00    +0.038 C 
ENDBRANCH  18  19
ENDBRANCH  17  18
ENDBRANCH  15  17
ENDBRANCH  13  14
ENDBRANCH   3  13
TORSDOF 8
