REMARK  Name = NuBBE_1999
REMARK  10 active torsions:
REMARK  status: ('A' for Active; 'I' for Inactive)
REMARK    1  A    between atoms: C_1  and  C_2
REMARK    2  A    between atoms: C_7  and  C_9
REMARK    3  A    between atoms: C_12  and  O_13
REMARK    4  A    between atoms: O_13  and  C_14
REMARK    5  A    between atoms: C_15  and  O_16
REMARK    6  A    between atoms: O_16  and  C_17
REMARK    7  A    between atoms: C_21  and  O_22
REMARK    8  A    between atoms: C_23  and  C_24
REMARK    9  A    between atoms: C_25  and  O_26
REMARK   10  A    between atoms: O_26  and  C_27
REMARK                            x       y       z     vdW  Elec       q    Type
REMARK                         _______ _______ _______ _____ _____    ______ ____
ROOT
ATOM      1  C   LIG A   1      -2.998  -0.406  -1.323  0.00  0.00    +0.051 C 
ATOM      2  C   LIG A   1      -1.554  -0.678  -1.630  0.00  0.00    +0.034 A 
ATOM      3  C   LIG A   1      -0.677   0.415  -1.798  0.00  0.00    +0.142 A 
ATOM      4  C   LIG A   1       0.630   0.230  -2.253  0.00  0.00    +0.101 A 
ATOM      5  C   LIG A   1       1.435   1.428  -2.576  0.00  0.00    +0.174 C 
ATOM      6  C   LIG A   1       0.825   2.766  -2.272  0.00  0.00    +0.129 C 
ATOM      7  C   LIG A   1      -0.128   2.603  -1.092  0.00  0.00    +0.211 C 
ATOM      8  O   LIG A   1      -1.160   1.668  -1.483  0.00  0.00    -0.483 OA
ATOM      9  O   LIG A   1       2.526   1.309  -3.130  0.00  0.00    -0.292 OA
ATOM     10  C   LIG A   1       1.138  -1.056  -2.409  0.00  0.00    +0.137 A 
ATOM     11  C   LIG A   1       0.335  -2.169  -2.125  0.00  0.00    +0.034 A 
ATOM     12  C   LIG A   1       0.916  -3.562  -2.155  0.00  0.00    +0.051 C 
ATOM     13  C   LIG A   1      -1.023  -1.982  -1.763  0.00  0.00    +0.133 A 
ENDROOT
BRANCH   7  14
ATOM     14  C   LIG A   1       0.493   2.272   0.269  0.00  0.00    -0.003 A 
ATOM     15  C   LIG A   1       1.776   2.705   0.621  0.00  0.00    +0.011 A 
ATOM     16  C   LIG A   1       2.301   2.425   1.885  0.00  0.00    +0.050 A 
ATOM     17  C   LIG A   1       1.566   1.704   2.831  0.00  0.00    +0.162 A 
ATOM     18  C   LIG A   1       0.271   1.277   2.510  0.00  0.00    +0.162 A 
ATOM     19  C   LIG A   1      -0.254   1.577   1.242  0.00  0.00    +0.056 A 
BRANCH  17  20
ATOM     20  O   LIG A   1       2.219   1.552   4.027  0.00  0.00    -0.491 OA
ATOM     21  C   LIG A   1       1.932   0.372   4.767  0.00  0.00    +0.277 C 
ENDBRANCH  17  20
BRANCH  18  22
ATOM     22  O   LIG A   1      -0.480   0.675   3.486  0.00  0.00    -0.491 OA
ATOM     23  C   LIG A   1      -1.445  -0.273   3.049  0.00  0.00    +0.277 C 
ENDBRANCH  18  22
ENDBRANCH   7  14
BRANCH  10  24
ATOM     24  O   LIG A   1       2.426  -1.273  -2.837  0.00  0.00    -0.506 OA
ATOM     25  H   LIG A   1       2.819  -0.405  -3.092  0.00  0.00    +0.292 HD
ENDBRANCH  10  24
BRANCH  13  26
ATOM     26  O   LIG A   1      -1.757  -3.138  -1.691  0.00  0.00    -0.494 OA
ATOM     27  C   LIG A   1      -2.664  -3.287  -0.609  0.00  0.00    +0.277 C 
ENDBRANCH  13  26
TORSDOF 5
