@<TRIPOS>MOLECULE
NuBBE_1211
 76 79 0 0 0
SMALL
GASTEIGER

@<TRIPOS>ATOM
      1 O          -1.5686   -1.4844   -8.4502 O.3     1  LIG1       -0.3915
      2 C          -1.4664   -0.8117   -7.1956 C.3     1  LIG1        0.0590
      3 H          -1.8721    0.1988   -7.3243 H       1  LIG1        0.0596
      4 C           0.0040   -0.7224   -6.7667 C.3     1  LIG1       -0.0051
      5 C          -2.3284   -1.5711   -6.1904 C.3     1  LIG1       -0.0258
      6 C          -2.1425   -1.0410   -4.7721 C.3     1  LIG1       -0.0413
      7 C          -0.6592   -1.0450   -4.2986 C.3     1  LIG1       -0.0078
      8 C          -0.1455   -2.5096   -4.2347 C.3     1  LIG1       -0.0556
      9 C           0.1673   -0.2782   -5.3306 C.2     1  LIG1       -0.0648
     10 C           0.9867    0.7449   -5.0008 C.2     1  LIG1       -0.0839
     11 C           1.2309    1.2174   -3.5958 C.3     1  LIG1       -0.0311
     12 C           0.8206    0.1727   -2.5470 C.3     1  LIG1       -0.0307
     13 C          -0.5968   -0.3577   -2.8797 C.3     1  LIG1       -0.0285
     14 C          -1.1279   -1.2911   -1.7915 C.3     1  LIG1       -0.0486
     15 C          -1.0116   -0.6887   -0.4141 C.3     1  LIG1       -0.0468
     16 C           0.4367   -0.3065   -0.0263 C.3     1  LIG1       -0.0258
     17 C           1.3798   -1.5277    0.0520 C.3     1  LIG1       -0.0590
     18 C           1.0080    0.6739   -1.0865 C.3     1  LIG1       -0.0320
     19 C           0.3625    2.0059   -0.7069 C.3     1  LIG1       -0.0492
     20 C           0.2755    1.9920    0.8284 C.3     1  LIG1       -0.0491
     21 C           0.4658    0.5291    1.3038 C.3     1  LIG1       -0.0304
     22 C          -0.5418    0.1016    2.4321 C.3     1  LIG1       -0.0142
     23 C          -0.4754    0.9549    3.7535 C.3     1  LIG1        0.0617
     24 O          -1.5896    0.5772    4.5754 O.3     1  LIG1       -0.3912
     25 C           0.8583    0.8354    4.5418 C.3     1  LIG1       -0.0054
     26 C           0.9796    1.5714    5.8818 C.2     1  LIG1       -0.0716
     27 C           0.5115    0.8571    7.1558 C.3     1  LIG1       -0.0257
     28 C           1.6582    0.1083    7.8547 C.3     1  LIG1       -0.0590
     29 C          -0.1822    1.7526    8.1962 C.3     1  LIG1       -0.0590
     30 C           1.6094    2.7759    5.9227 C.2     1  LIG1       -0.0991
     31 C          -0.4431   -1.4048    2.7551 C.3     1  LIG1       -0.0598
     32 H          -0.9786   -1.0313   -9.0756 H       1  LIG1        0.2098
     33 H           0.5314   -0.0509   -7.4554 H       1  LIG1        0.0335
     34 H           0.4897   -1.6965   -6.9068 H       1  LIG1        0.0335
     35 H          -2.1072   -2.6449   -6.2295 H       1  LIG1        0.0290
     36 H          -3.3841   -1.4878   -6.4784 H       1  LIG1        0.0290
     37 H          -2.7670   -1.6396   -4.0985 H       1  LIG1        0.0274
     38 H          -2.5414   -0.0177   -4.7310 H       1  LIG1        0.0274
     39 H          -0.0211   -2.9674   -5.2199 H       1  LIG1        0.0238
     40 H          -0.8511   -3.1574   -3.7010 H       1  LIG1        0.0238
     41 H           0.8243   -2.5758   -3.7307 H       1  LIG1        0.0238
     42 H           1.5318    1.2713   -5.7787 H       1  LIG1        0.0572
     43 H           0.6867    2.1583   -3.4543 H       1  LIG1        0.0310
     44 H           2.2983    1.4410   -3.4794 H       1  LIG1        0.0310
     45 H           1.5166   -0.6696   -2.6638 H       1  LIG1        0.0309
     46 H          -1.2601    0.5210   -2.8989 H       1  LIG1        0.0312
     47 H          -0.5976   -2.2472   -1.7813 H       1  LIG1        0.0268
     48 H          -2.1824   -1.5237   -1.9757 H       1  LIG1        0.0268
     49 H          -1.4385   -1.4267    0.2616 H       1  LIG1        0.0271
     50 H          -1.6734    0.1833   -0.3541 H       1  LIG1        0.0271
     51 H           1.4861   -2.0344   -0.9118 H       1  LIG1        0.0235
     52 H           1.0415   -2.2817    0.7623 H       1  LIG1        0.0235
     53 H           2.3889   -1.2212    0.3550 H       1  LIG1        0.0235
     54 H           2.0903    0.7937   -0.9227 H       1  LIG1        0.0309
     55 H          -0.6400    2.1073   -1.1363 H       1  LIG1        0.0268
     56 H           0.9514    2.8602   -1.0590 H       1  LIG1        0.0268
     57 H          -0.6785    2.4226    1.1488 H       1  LIG1        0.0268
     58 H           1.0703    2.6188    1.2520 H       1  LIG1        0.0268
     59 H           1.4802    0.4600    1.7202 H       1  LIG1        0.0310
     60 H          -1.5565    0.2599    2.0384 H       1  LIG1        0.0326
     61 H          -0.6468    2.0066    3.5003 H       1  LIG1        0.0599
     62 H          -1.4076   -0.2973    4.9558 H       1  LIG1        0.2098
     63 H           1.6544    1.1994    3.8801 H       1  LIG1        0.0335
     64 H           1.0876   -0.2201    4.7332 H       1  LIG1        0.0335
     65 H          -0.2325    0.1033    6.8644 H       1  LIG1        0.0340
     66 H           2.4856    0.7771    8.1185 H       1  LIG1        0.0235
     67 H           2.0520   -0.6951    7.2249 H       1  LIG1        0.0235
     68 H           1.3065   -0.3534    8.7863 H       1  LIG1        0.0235
     69 H           0.4618    2.5632    8.5529 H       1  LIG1        0.0235
     70 H          -0.4657    1.1635    9.0776 H       1  LIG1        0.0235
     71 H          -1.0994    2.1889    7.7890 H       1  LIG1        0.0235
     72 H           1.9866    3.2442    5.0229 H       1  LIG1        0.0534
     73 H           1.7851    3.2999    6.8528 H       1  LIG1        0.0534
     74 H           0.5837   -1.6970    2.9873 H       1  LIG1        0.0233
     75 H          -0.7764   -2.0367    1.9325 H       1  LIG1        0.0233
     76 H          -1.0887   -1.6992    3.5843 H       1  LIG1        0.0233
@<TRIPOS>BOND
     1     2     4    1
     2     2     5    1
     3     5     6    1
     4     6     7    1
     5     7     9    1
     6     4     9    1
     7     9    10    2
     8    10    11    1
     9    11    12    1
    10    12    13    1
    11     7    13    1
    12    13    14    1
    13    14    15    1
    14    15    16    1
    15    16    18    1
    16    12    18    1
    17    18    19    1
    18    19    20    1
    19    20    21    1
    20    16    21    1
    21    22    23    1
    22    23    24    1
    23    23    25    1
    24    25    26    1
    25    26    27    1
    26    27    28    1
    27    27    29    1
    28    26    30    2
    29    22    31    1
    30     7     8    1
    31    16    17    1
    32    21    22    1
    33     2     3    1
    34     2     1    1
    35     1    32    1
    36     4    33    1
    37     4    34    1
    38     5    35    1
    39     5    36    1
    40     6    37    1
    41     6    38    1
    42     8    39    1
    43     8    40    1
    44     8    41    1
    45    10    42    1
    46    11    43    1
    47    11    44    1
    48    12    45    1
    49    13    46    1
    50    14    47    1
    51    14    48    1
    52    15    49    1
    53    15    50    1
    54    17    51    1
    55    17    52    1
    56    17    53    1
    57    18    54    1
    58    19    55    1
    59    19    56    1
    60    20    57    1
    61    20    58    1
    62    21    59    1
    63    22    60    1
    64    23    61    1
    65    24    62    1
    66    25    63    1
    67    25    64    1
    68    27    65    1
    69    28    66    1
    70    28    67    1
    71    28    68    1
    72    29    69    1
    73    29    70    1
    74    29    71    1
    75    30    72    1
    76    30    73    1
    77    31    74    1
    78    31    75    1
    79    31    76    1
