REMARK  Name = NuBBE_1871
REMARK  14 active torsions:
REMARK  status: ('A' for Active; 'I' for Inactive)
REMARK    1  A    between atoms: C_1  and  O_2
REMARK    2  A    between atoms: O_2  and  C_3
REMARK    3  A    between atoms: C_4  and  O_5
REMARK    4  A    between atoms: O_5  and  C_6
REMARK    5  A    between atoms: C_7  and  O_8
REMARK    6  A    between atoms: O_8  and  C_9
REMARK    7  A    between atoms: C_13  and  C_14
REMARK    8  A    between atoms: C_16  and  O_17
REMARK    9  A    between atoms: C_18  and  O_19
REMARK   10  A    between atoms: O_19  and  C_20
REMARK   11  A    between atoms: C_21  and  O_22
REMARK   12  A    between atoms: O_22  and  C_23
REMARK   13  A    between atoms: C_25  and  O_26
REMARK   14  A    between atoms: O_26  and  C_27
REMARK                            x       y       z     vdW  Elec       q    Type
REMARK                         _______ _______ _______ _____ _____    ______ ____
ROOT
ATOM      1  C   LIG A   1       1.496  -3.140  -0.556  0.00  0.00    +0.180 A 
ATOM      2  C   LIG A   1       1.502  -3.810   0.695  0.00  0.00    +0.204 A 
ATOM      3  C   LIG A   1       1.413  -3.040   1.888  0.00  0.00    +0.169 A 
ATOM      4  C   LIG A   1       1.250  -1.663   1.829  0.00  0.00    +0.096 A 
ATOM      5  C   LIG A   1       1.152  -1.032   0.609  0.00  0.00    +0.147 A 
ATOM      6  O   LIG A   1       0.806   0.290   0.645  0.00  0.00    -0.451 OA
ATOM      7  C   LIG A   1       0.221   0.802  -0.493  0.00  0.00    +0.181 A 
ATOM      8  C   LIG A   1       0.432   0.303  -1.732  0.00  0.00    +0.211 A 
ATOM      9  C   LIG A   1       1.346  -1.737  -0.578  0.00  0.00    +0.113 A 
ATOM     10  C   LIG A   1       1.325  -0.904  -1.789  0.00  0.00    +0.238 A 
ATOM     11  O   LIG A   1       2.033  -1.171  -2.774  0.00  0.00    -0.283 OA
ENDROOT
BRANCH   7  12
ATOM     12  C   LIG A   1      -0.621   1.977  -0.221  0.00  0.00    +0.028 A 
ATOM     13  C   LIG A   1      -1.989   1.844   0.030  0.00  0.00    +0.061 A 
ATOM     14  C   LIG A   1      -2.788   2.981   0.210  0.00  0.00    +0.163 A 
ATOM     15  C   LIG A   1      -2.232   4.269   0.197  0.00  0.00    +0.203 A 
ATOM     16  C   LIG A   1      -0.832   4.394   0.053  0.00  0.00    +0.166 A 
ATOM     17  C   LIG A   1      -0.050   3.250  -0.179  0.00  0.00    +0.061 A 
BRANCH  14  18
ATOM     18  O   LIG A   1      -4.128   2.784   0.409  0.00  0.00    -0.503 OA
ATOM     19  H   LIG A   1      -4.369   1.914   0.053  0.00  0.00    +0.292 HD
ENDBRANCH  14  18
BRANCH  15  20
ATOM     20  O   LIG A   1      -2.940   5.440   0.347  0.00  0.00    -0.488 OA
ATOM     21  C   LIG A   1      -4.246   5.477  -0.224  0.00  0.00    +0.277 C 
ENDBRANCH  15  20
BRANCH  16  22
ATOM     22  O   LIG A   1      -0.301   5.662   0.126  0.00  0.00    -0.491 OA
ATOM     23  C   LIG A   1       1.112   5.772  -0.021  0.00  0.00    +0.277 C 
ENDBRANCH  16  22
ENDBRANCH   7  12
BRANCH   1  25
ATOM     24  C   LIG A   1       1.015  -4.983  -2.014  0.00  0.00    +0.277 C 
ATOM     25  O   LIG A   1       1.647  -3.731  -1.788  0.00  0.00    -0.490 OA
ENDBRANCH   1  25
BRANCH   2  26
ATOM     26  O   LIG A   1       1.594  -5.188   0.688  0.00  0.00    -0.488 OA
ATOM     27  C   LIG A   1       1.515  -5.882   1.936  0.00  0.00    +0.277 C 
ENDBRANCH   2  26
BRANCH   3  28
ATOM     28  O   LIG A   1       1.462  -3.695   3.081  0.00  0.00    -0.491 OA
ATOM     29  C   LIG A   1       1.335  -3.002   4.303  0.00  0.00    +0.277 C 
ENDBRANCH   3  28
BRANCH   8  30
ATOM     30  O   LIG A   1      -0.140   0.888  -2.851  0.00  0.00    -0.488 OA
ATOM     31  C   LIG A   1       0.122   0.250  -4.097  0.00  0.00    +0.277 C 
ENDBRANCH   8  30
TORSDOF 8
