REMARK  Name = NuBBE_973
REMARK  9 active torsions:
REMARK  status: ('A' for Active; 'I' for Inactive)
REMARK    1  A    between atoms: C_2  and  C_19
REMARK    2  A    between atoms: N_3  and  C_4
REMARK    3  A    between atoms: C_4  and  C_5
REMARK    4  A    between atoms: C_5  and  C_6
REMARK    5  A    between atoms: C_9  and  O_10
REMARK    6  A    between atoms: O_10  and  C_11
REMARK    7  A    between atoms: C_11  and  C_12
REMARK    8  A    between atoms: C_12  and  C_13
REMARK    9  A    between atoms: C_13  and  C_14
REMARK                            x       y       z     vdW  Elec       q    Type
REMARK                         _______ _______ _______ _____ _____    ______ ____
ROOT
ATOM      1  C   LIG A   1      -1.074   0.830   1.216  0.00  0.00    +0.054 C 
ENDROOT
BRANCH   1   2
ATOM      2  C   LIG A   1       0.425   0.669   1.249  0.00  0.00    -0.046 A 
ATOM      3  C   LIG A   1       1.274   1.769   1.072  0.00  0.00    +0.007 A 
ATOM      4  C   LIG A   1       2.660   1.593   1.044  0.00  0.00    +0.046 A 
ATOM      5  C   LIG A   1       3.214   0.317   1.163  0.00  0.00    +0.120 A 
ATOM      6  C   LIG A   1       2.375  -0.772   1.394  0.00  0.00    +0.046 A 
ATOM      7  C   LIG A   1       0.989  -0.599   1.425  0.00  0.00    +0.007 A 
BRANCH   5   8
ATOM      8  O   LIG A   1       4.577   0.250   1.069  0.00  0.00    -0.491 OA
BRANCH   8   9
ATOM      9  C   LIG A   1       5.120  -0.953   0.507  0.00  0.00    +0.236 C 
BRANCH   9  10
ATOM     10  C   LIG A   1       5.926  -0.582  -0.729  0.00  0.00    +0.115 C 
BRANCH  10  11
ATOM     11  C   LIG A   1       6.550  -1.796  -1.383  0.00  0.00    +0.134 C 
ATOM     12  C   LIG A   1       7.352  -1.544  -2.634  0.00  0.00    +0.086 C 
ATOM     13  O   LIG A   1       6.434  -2.931  -0.922  0.00  0.00    -0.298 OA
ENDBRANCH  10  11
ENDBRANCH   9  10
ENDBRANCH   8   9
ENDBRANCH   5   8
ENDBRANCH   1   2
BRANCH   1  14
ATOM     14  C   LIG A   1      -1.636   0.639  -0.193  0.00  0.00    +0.109 C 
BRANCH  14  17
ATOM     15  O   LIG A   1      -3.574  -1.397   0.213  0.00  0.00    -0.270 OA
ATOM     16  C   LIG A   1      -3.938  -0.256  -0.019  0.00  0.00    +0.244 C 
ATOM     17  N   LIG A   1      -3.075   0.806  -0.223  0.00  0.00    -0.311 N 
ATOM     18  H   LIG A   1      -3.439   1.748  -0.219  0.00  0.00    +0.149 HD
BRANCH  16  19
ATOM     19  C   LIG A   1      -5.387   0.086  -0.082  0.00  0.00    +0.037 A 
ATOM     20  C   LIG A   1      -6.306  -0.659   0.667  0.00  0.00    +0.013 A 
ATOM     21  C   LIG A   1      -7.668  -0.351   0.600  0.00  0.00    +0.001 A 
ATOM     22  C   LIG A   1      -8.111   0.693  -0.214  0.00  0.00    +0.000 A 
ATOM     23  C   LIG A   1      -7.198   1.433  -0.963  0.00  0.00    +0.001 A 
ATOM     24  C   LIG A   1      -5.840   1.127  -0.903  0.00  0.00    +0.013 A 
ENDBRANCH  16  19
ENDBRANCH  14  17
ENDBRANCH   1  14
TORSDOF 8
