REMARK  Name = NuBBE_73
REMARK  8 active torsions:
REMARK  status: ('A' for Active; 'I' for Inactive)
REMARK    1  A    between atoms: C_1  and  C_2
REMARK    2  A    between atoms: C_7  and  C_10
REMARK    3  A    between atoms: C_13  and  C_15
REMARK    4  A    between atoms: C_15  and  C_17
REMARK    5  A    between atoms: C_22  and  C_23
REMARK    6  A    between atoms: C_28  and  C_29
REMARK    7  A    between atoms: C_34  and  C_35
REMARK    8  A    between atoms: C_34  and  C_36
REMARK                            x       y       z     vdW  Elec       q    Type
REMARK                         _______ _______ _______ _____ _____    ______ ____
ROOT
ATOM      1  C   LIG A   1      -1.837   0.960  -0.066  0.00  0.00    +0.012 C 
ATOM      2  C   LIG A   1      -0.449   1.088   0.636  0.00  0.00    -0.023 C 
ATOM      3  C   LIG A   1       0.623   1.734  -0.317  0.00  0.00    -0.000 C 
ATOM      4  C   LIG A   1       0.452   3.238  -0.671  0.00  0.00    +0.006 C 
ATOM      5  C   LIG A   1       0.093   4.121   0.550  0.00  0.00    -0.028 C 
ATOM      6  C   LIG A   1      -0.988   3.488   1.450  0.00  0.00    +0.007 C 
ATOM      7  C   LIG A   1      -0.668   2.042   1.849  0.00  0.00    +0.008 C 
ATOM      8  C   LIG A   1       1.340   4.448   1.394  0.00  0.00    +0.011 C 
ATOM      9  C   LIG A   1      -0.421   5.404  -0.120  0.00  0.00    +0.007 C 
ATOM     10  C   LIG A   1      -1.220   4.929  -1.328  0.00  0.00    +0.009 C 
ATOM     11  C   LIG A   1      -0.559   3.616  -1.795  0.00  0.00    +0.018 C 
ATOM     12  C   LIG A   1       0.894   0.863  -1.550  0.00  0.00    +0.005 C 
ATOM     13  C   LIG A   1       1.325  -0.559  -1.179  0.00  0.00    +0.005 C 
ATOM     14  C   LIG A   1       0.348  -1.261  -0.205  0.00  0.00    +0.002 C 
ATOM     15  C   LIG A   1       0.097  -0.388   1.093  0.00  0.00    -0.023 C 
ATOM     16  C   LIG A   1       1.399  -0.241   1.939  0.00  0.00    +0.012 C 
ATOM     17  C   LIG A   1      -0.931  -1.120   2.001  0.00  0.00    +0.008 C 
ATOM     18  C   LIG A   1      -0.626  -2.601   2.254  0.00  0.00    +0.005 C 
ATOM     19  C   LIG A   1      -0.513  -3.384   0.930  0.00  0.00    +0.008 C 
ATOM     20  C   LIG A   1       0.646  -2.813   0.028  0.00  0.00    -0.025 C 
ATOM     21  C   LIG A   1       2.062  -3.054   0.603  0.00  0.00    +0.012 C 
ATOM     22  C   LIG A   1       0.555  -3.553  -1.343  0.00  0.00    +0.015 C 
ATOM     23  C   LIG A   1       0.571  -5.073  -1.248  0.00  0.00    +0.075 C 
ATOM     24  C   LIG A   1      -0.471  -5.595  -0.289  0.00  0.00    +0.139 C 
ATOM     25  O   LIG A   1      -1.131  -6.591  -0.595  0.00  0.00    -0.297 OA
ATOM     26  C   LIG A   1      -0.563  -4.942   1.100  0.00  0.00    +0.027 C 
ATOM     27  C   LIG A   1       0.538  -5.538   1.988  0.00  0.00    +0.019 C 
ATOM     28  C   LIG A   1      -1.922  -5.357   1.720  0.00  0.00    +0.019 C 
ENDROOT
BRANCH  11  29
ATOM     29  C   LIG A   1      -0.051   3.743  -3.230  0.00  0.00    -0.076 C 
ATOM     30  C   LIG A   1       1.216   4.000  -3.597  0.00  0.00    +0.007 C 
ATOM     31  C   LIG A   1      -1.112   3.560  -4.289  0.00  0.00    +0.038 C 
ENDBRANCH  11  29
TORSDOF 1
