@<TRIPOS>MOLECULE
NuBBE_2210
 26 27 0 0 0
SMALL
GASTEIGER

@<TRIPOS>ATOM
      1 O          -2.6660    0.3717    1.0943 O.2     1  LIG1       -0.2918
      2 C          -1.4726    0.4307    0.8246 C.2     1  LIG1        0.1705
      3 C          -0.6876   -0.7797    0.5247 C.ar    1  LIG1        0.0626
      4 C           0.6403   -0.6323    0.1179 C.ar    1  LIG1        0.1320
      5 O           1.2479    0.5752   -0.1023 O.3     1  LIG1       -0.4851
      6 C           0.3557    1.6969   -0.2578 C.3     1  LIG1        0.1121
      7 C          -0.6981    1.7170    0.8499 C.3     1  LIG1        0.0499
      8 C          -0.2633    1.6869   -1.6677 C.3     1  LIG1       -0.0248
      9 C           1.2268    2.9559   -0.1302 C.3     1  LIG1       -0.0248
     10 C           1.4249   -1.7682   -0.0864 C.ar    1  LIG1       -0.0158
     11 C           0.8714   -3.0409    0.0739 C.ar    1  LIG1       -0.0167
     12 C          -0.4669   -3.1683    0.4411 C.ar    1  LIG1        0.1178
     13 C          -1.2535   -2.0454    0.6723 C.ar    1  LIG1       -0.0062
     14 O          -1.0477   -4.3908    0.5942 O.3     1  LIG1       -0.5067
     15 H          -1.3880    2.5580    0.7232 H       1  LIG1        0.0384
     16 H          -0.2333    1.7909    1.8411 H       1  LIG1        0.0384
     17 H          -0.8310    0.7722   -1.8667 H       1  LIG1        0.0268
     18 H           0.5199    1.7268   -2.4334 H       1  LIG1        0.0268
     19 H          -0.9347    2.5397   -1.8137 H       1  LIG1        0.0268
     20 H           1.7376    2.9838    0.8388 H       1  LIG1        0.0268
     21 H           0.6312    3.8694   -0.2352 H       1  LIG1        0.0268
     22 H           2.0127    2.9671   -0.8943 H       1  LIG1        0.0268
     23 H           2.4655   -1.6613   -0.3825 H       1  LIG1        0.0655
     24 H           1.4932   -3.9151   -0.0953 H       1  LIG1        0.0655
     25 H          -2.2918   -2.1592    0.9733 H       1  LIG1        0.0662
     26 H          -0.3926   -5.0810    0.3961 H       1  LIG1        0.2921
@<TRIPOS>BOND
     1     1     2    2
     2     2     3    1
     3     3     4   ar
     4     4     5    1
     5     5     6    1
     6     6     7    1
     7     2     7    1
     8     6     8    1
     9     6     9    1
    10     4    10   ar
    11    10    11   ar
    12    11    12   ar
    13    12    13   ar
    14     3    13   ar
    15    12    14    1
    16     7    15    1
    17     7    16    1
    18     8    17    1
    19     8    18    1
    20     8    19    1
    21     9    20    1
    22     9    21    1
    23     9    22    1
    24    10    23    1
    25    11    24    1
    26    13    25    1
    27    14    26    1
