REMARK  Name = NuBBE_1156
REMARK  15 active torsions:
REMARK  status: ('A' for Active; 'I' for Inactive)
REMARK    1  A    between atoms: C_2  and  O_3
REMARK    2  A    between atoms: C_2  and  C_5
REMARK    3  A    between atoms: O_3  and  C_4
REMARK    4  A    between atoms: C_5  and  C_6
REMARK    5  A    between atoms: C_6  and  C_7
REMARK    6  A    between atoms: C_7  and  C_8
REMARK    7  A    between atoms: C_8  and  C_9
REMARK    8  A    between atoms: C_9  and  C_10
REMARK    9  A    between atoms: C_10  and  C_11
REMARK   10  A    between atoms: C_11  and  C_12
REMARK   11  A    between atoms: C_12  and  C_13
REMARK   12  A    between atoms: C_13  and  C_14
REMARK   13  A    between atoms: C_14  and  C_15
REMARK   14  A    between atoms: C_15  and  C_16
REMARK   15  A    between atoms: C_16  and  C_17
REMARK                            x       y       z     vdW  Elec       q    Type
REMARK                         _______ _______ _______ _____ _____    ______ ____
ROOT
ATOM      1  C   LIG A   1      -0.534  -1.202   2.223  0.00  0.00    -0.000 C 
ENDROOT
BRANCH   1   2
ATOM      2  C   LIG A   1      -1.555  -0.584   1.263  0.00  0.00    -0.000 C 
BRANCH   2   3
ATOM      3  C   LIG A   1      -2.269  -1.589   0.352  0.00  0.00    -0.000 C 
BRANCH   3   4
ATOM      4  C   LIG A   1      -3.285  -0.916  -0.585  0.00  0.00    +0.000 C 
BRANCH   4   5
ATOM      5  C   LIG A   1      -2.654   0.101  -1.548  0.00  0.00    +0.000 C 
BRANCH   5   6
ATOM      6  C   LIG A   1      -3.649   0.776  -2.497  0.00  0.00    +0.011 C 
BRANCH   6   7
ATOM      7  C   LIG A   1      -4.699   1.610  -1.761  0.00  0.00    +0.120 C 
BRANCH   7   9
ATOM      8  O   LIG A   1      -5.835   2.089  -3.893  0.00  0.00    -0.251 OA
ATOM      9  C   LIG A   1      -5.722   2.253  -2.679  0.00  0.00    +0.307 C 
BRANCH   9  10
ATOM     10  O   LIG A   1      -6.546   3.006  -1.882  0.00  0.00    -0.468 OA
ATOM     11  C   LIG A   1      -7.767   3.424  -2.494  0.00  0.00    +0.280 C 
ENDBRANCH   9  10
ENDBRANCH   7   9
ENDBRANCH   6   7
ENDBRANCH   5   6
ENDBRANCH   4   5
ENDBRANCH   3   4
ENDBRANCH   2   3
ENDBRANCH   1   2
BRANCH   1  12
ATOM     12  C   LIG A   1       0.657  -1.906   1.555  0.00  0.00    -0.000 C 
BRANCH  12  13
ATOM     13  C   LIG A   1       1.477  -0.975   0.650  0.00  0.00    +0.000 C 
BRANCH  13  14
ATOM     14  C   LIG A   1       2.692  -1.677   0.037  0.00  0.00    +0.000 C 
BRANCH  14  15
ATOM     15  C   LIG A   1       3.521  -0.770  -0.891  0.00  0.00    +0.005 C 
BRANCH  15  16
ATOM     16  C   LIG A   1       4.196   0.448  -0.233  0.00  0.00    +0.035 C 
BRANCH  16  17
ATOM     17  C   LIG A   1       5.164   0.169   0.896  0.00  0.00    -0.047 A 
ATOM     18  C   LIG A   1       5.330   1.111   1.924  0.00  0.00    +0.003 A 
ATOM     19  C   LIG A   1       6.215   0.870   2.979  0.00  0.00    +0.000 A 
ATOM     20  C   LIG A   1       6.948  -0.313   3.020  0.00  0.00    +0.000 A 
ATOM     21  C   LIG A   1       6.824  -1.237   1.987  0.00  0.00    +0.000 A 
ATOM     22  C   LIG A   1       5.956  -0.987   0.922  0.00  0.00    +0.003 A 
ENDBRANCH  16  17
ENDBRANCH  15  16
ENDBRANCH  14  15
ENDBRANCH  13  14
ENDBRANCH  12  13
ENDBRANCH   1  12
TORSDOF 14
