@<TRIPOS>MOLECULE
NuBBE_1963
 35 37 0 0 0
SMALL
GASTEIGER

@<TRIPOS>ATOM
      1 O          -2.7779    0.0236    0.0188 O.2     1  LIG1       -0.2863
      2 C          -1.5487   -0.0127    0.0311 C.ar    1  LIG1        0.2040
      3 C          -0.7706   -1.2689    0.0479 C.ar    1  LIG1        0.0678
      4 C           0.6226   -1.1457    0.0713 C.ar    1  LIG1        0.1430
      5 O           1.3037    0.0471    0.0849 O.2     1  LIG1       -0.4542
      6 C           0.5829    1.2090    0.0427 C.ar    1  LIG1        0.1463
      7 C          -0.8053    1.2529    0.0206 C.ar    1  LIG1        0.1061
      8 C          -1.4573    2.4863   -0.0183 C.ar    1  LIG1        0.1347
      9 O          -2.8205    2.6121   -0.0399 O.3     1  LIG1       -0.5058
     10 C          -0.7260    3.6697   -0.0438 C.ar    1  LIG1        0.0225
     11 C           0.6691    3.6309   -0.0364 C.ar    1  LIG1        0.1271
     12 C           1.3205    2.3959    0.0164 C.ar    1  LIG1        0.0233
     13 O           1.4910    4.7243   -0.0840 O.3     1  LIG1       -0.4949
     14 C           0.8375    5.9876   -0.1652 C.3     1  LIG1        0.0788
     15 C           1.4380   -2.2787    0.0807 C.ar    1  LIG1        0.0231
     16 C           0.8728   -3.5487    0.0635 C.ar    1  LIG1        0.1239
     17 C          -0.5199   -3.6755    0.0447 C.ar    1  LIG1       -0.0161
     18 C          -1.3621   -2.5469    0.0361 C.ar    1  LIG1       -0.0326
     19 C          -2.8515   -2.7570    0.0129 C.3     1  LIG1       -0.0388
     20 O           1.5695   -4.7258    0.0617 O.3     1  LIG1       -0.4950
     21 C           2.9901   -4.6195    0.0583 C.3     1  LIG1        0.0788
     22 H          -3.2036    1.7052   -0.0248 H       1  LIG1        0.2922
     23 H          -1.2786    4.6021   -0.0736 H       1  LIG1        0.0691
     24 H           2.4078    2.3589    0.0313 H       1  LIG1        0.0691
     25 H           1.6023    6.7639   -0.2522 H       1  LIG1        0.0660
     26 H           0.2609    6.1826    0.7455 H       1  LIG1        0.0660
     27 H           0.2016    6.0480   -1.0556 H       1  LIG1        0.0660
     28 H           2.5124   -2.1302    0.0990 H       1  LIG1        0.0691
     29 H          -0.9509   -4.6760    0.0345 H       1  LIG1        0.0657
     30 H          -3.1081   -3.8219    0.0020 H       1  LIG1        0.0278
     31 H          -3.2879   -2.3133   -0.8878 H       1  LIG1        0.0278
     32 H          -3.3135   -2.3246    0.9062 H       1  LIG1        0.0278
     33 H           3.4066   -5.6304    0.0345 H       1  LIG1        0.0660
     34 H           3.3486   -4.1316    0.9714 H       1  LIG1        0.0660
     35 H           3.3445   -4.0925   -0.8346 H       1  LIG1        0.0660
@<TRIPOS>BOND
     1     1     2    2
     2     2     3   ar
     3     3     4   ar
     4     4     5   ar
     5     5     6   ar
     6     6     7   ar
     7     2     7   ar
     8     7     8   ar
     9     8     9    1
    10     8    10   ar
    11    10    11   ar
    12    11    12   ar
    13     6    12   ar
    14    11    13    1
    15    13    14    1
    16     4    15   ar
    17    15    16   ar
    18    16    17   ar
    19    17    18   ar
    20     3    18   ar
    21    18    19    1
    22    16    20    1
    23    20    21    1
    24     9    22    1
    25    10    23    1
    26    12    24    1
    27    14    25    1
    28    14    26    1
    29    14    27    1
    30    15    28    1
    31    17    29    1
    32    19    30    1
    33    19    31    1
    34    19    32    1
    35    21    33    1
    36    21    34    1
    37    21    35    1
