@<TRIPOS>MOLECULE
NuBBE_590
 44 48 0 0 0
SMALL
GASTEIGER

@<TRIPOS>ATOM
      1 C          -2.4736   -1.7875    0.2856 C.3     1  LIG1       -0.0613
      2 C          -0.9378   -1.7135    0.2659 C.3     1  LIG1       -0.0300
      3 H          -0.6158   -2.0497   -0.7300 H       1  LIG1        0.0310
      4 C          -0.4660   -0.2366    0.4944 C.3     1  LIG1        0.0160
      5 H          -1.1257    0.1939    1.2630 H       1  LIG1        0.0401
      6 C           0.9365   -0.0933    1.0697 C.ar    1  LIG1        0.0089
      7 C           1.4732    1.1581    1.3578 C.ar    1  LIG1        0.1702
      8 C           2.7467    1.3187    1.8576 C.ar    1  LIG1        0.1665
      9 C           3.5656    0.2454    2.1186 C.ar    1  LIG1       -0.0159
     10 C           3.0527   -1.0295    1.8784 C.ar    1  LIG1       -0.0546
     11 C           1.7396   -1.2079    1.3805 C.ar    1  LIG1       -0.0396
     12 C           1.2260   -2.6072    1.1744 C.3     1  LIG1       -0.0244
     13 C          -0.3031   -2.6764    1.2983 C.3     1  LIG1       -0.0365
     14 H          -0.5950   -2.3561    2.3084 H       1  LIG1        0.0304
     15 C          -0.7531   -4.1303    1.1226 C.3     1  LIG1       -0.0618
     16 O           3.0749    2.6235    2.0571 O.3     1  LIG1       -0.4526
     17 C           1.8703    3.2753    1.6118 C.3     1  LIG1        0.2332
     18 O           0.8396    2.3563    1.2067 O.3     1  LIG1       -0.4523
     19 C          -0.6456    0.5613   -0.8031 C.ar    1  LIG1       -0.0359
     20 C          -1.6416    1.5512   -0.8840 C.ar    1  LIG1       -0.0124
     21 C          -1.7753    2.2480   -2.0665 C.ar    1  LIG1        0.1665
     22 C          -0.9671    2.0006   -3.1503 C.ar    1  LIG1        0.1662
     23 C           0.0221    1.0436   -3.1137 C.ar    1  LIG1       -0.0159
     24 C           0.1823    0.3195   -1.9282 C.ar    1  LIG1       -0.0543
     25 O          -1.2643    2.7961   -4.2125 O.3     1  LIG1       -0.4526
     26 C          -2.3518    3.5738   -3.6711 C.3     1  LIG1        0.2332
     27 O          -2.6837    3.2309   -2.3100 O.3     1  LIG1       -0.4526
     28 H          -2.9190   -1.0754   -0.4157 H       1  LIG1        0.0233
     29 H          -2.8660   -1.5700    1.2847 H       1  LIG1        0.0233
     30 H          -2.8284   -2.7786   -0.0125 H       1  LIG1        0.0233
     31 H           4.5666    0.3868    2.5089 H       1  LIG1        0.0655
     32 H           3.6753   -1.8962    2.0932 H       1  LIG1        0.0622
     33 H           1.6738   -3.2724    1.9237 H       1  LIG1        0.0316
     34 H           1.5513   -2.9572    0.1865 H       1  LIG1        0.0316
     35 H          -0.2009   -4.7925    1.7984 H       1  LIG1        0.0233
     36 H          -0.5850   -4.4775    0.0976 H       1  LIG1        0.0233
     37 H          -1.8149   -4.2506    1.3571 H       1  LIG1        0.0233
     38 H           2.1148    3.9260    0.7641 H       1  LIG1        0.1166
     39 H           1.4851    3.8952    2.4294 H       1  LIG1        0.1166
     40 H          -2.2892    1.7744   -0.0431 H       1  LIG1        0.0658
     41 H           0.6564    0.8615   -3.9733 H       1  LIG1        0.0655
     42 H           0.9648   -0.4354   -1.8750 H       1  LIG1        0.0622
     43 H          -3.2382    3.4196   -4.2972 H       1  LIG1        0.1166
     44 H          -2.0765    4.6342   -3.7081 H       1  LIG1        0.1166
@<TRIPOS>BOND
     1     1     2    1
     2     2     3    1
     3     2     4    1
     4     4     6    1
     5     6     7   ar
     6     7     8   ar
     7     8     9   ar
     8     9    10   ar
     9    10    11   ar
    10     6    11   ar
    11    11    12    1
    12    12    13    1
    13    13    14    1
    14     2    13    1
    15    13    15    1
    16     8    16    1
    17    16    17    1
    18    17    18    1
    19     7    18    1
    20    19    20   ar
    21    20    21   ar
    22    21    22   ar
    23    22    23   ar
    24    23    24   ar
    25    19    24   ar
    26    22    25    1
    27    25    26    1
    28    26    27    1
    29    21    27    1
    30     4    19    1
    31     4     5    1
    32     1    28    1
    33     1    29    1
    34     1    30    1
    35     9    31    1
    36    10    32    1
    37    12    33    1
    38    12    34    1
    39    15    35    1
    40    15    36    1
    41    15    37    1
    42    17    38    1
    43    17    39    1
    44    20    40    1
    45    23    41    1
    46    24    42    1
    47    26    43    1
    48    26    44    1
