REMARK  Name = NuBBE_413
REMARK  17 active torsions:
REMARK  status: ('A' for Active; 'I' for Inactive)
REMARK    1  A    between atoms: C_1  and  O_2
REMARK    2  A    between atoms: O_2  and  C_3
REMARK    3  A    between atoms: C_5  and  C_6
REMARK    4  A    between atoms: C_6  and  C_7
REMARK    5  A    between atoms: C_7  and  C_8
REMARK    6  A    between atoms: C_8  and  O_9
REMARK    7  A    between atoms: O_9  and  C_10
REMARK    8  A    between atoms: C_13  and  C_21
REMARK    9  A    between atoms: C_15  and  O_20
REMARK   10  A    between atoms: C_17  and  O_19
REMARK   11  A    between atoms: C_21  and  O_22
REMARK   12  A    between atoms: C_23  and  O_25
REMARK   13  A    between atoms: C_30  and  C_31
REMARK   14  A    between atoms: C_33  and  O_34
REMARK   15  A    between atoms: O_34  and  C_35
REMARK   16  A    between atoms: C_36  and  O_39
REMARK   17  A    between atoms: O_39  and  C_40
REMARK                            x       y       z     vdW  Elec       q    Type
REMARK                         _______ _______ _______ _____ _____    ______ ____
ROOT
ATOM      1  C   LIG A   1      -1.485   0.107  -1.142  0.00  0.00    +0.163 A 
ATOM      2  C   LIG A   1      -0.806  -0.837  -0.350  0.00  0.00    +0.053 A 
ATOM      3  C   LIG A   1      -0.231  -0.480   0.882  0.00  0.00    -0.043 A 
ATOM      4  C   LIG A   1      -0.279   0.851   1.330  0.00  0.00    +0.015 A 
ATOM      5  C   LIG A   1      -0.908   1.823   0.520  0.00  0.00    +0.025 A 
ATOM      6  C   LIG A   1      -1.478   1.421  -0.670  0.00  0.00    +0.177 A 
ATOM      7  O   LIG A   1      -2.035   2.502  -1.298  0.00  0.00    -0.451 OA
ATOM      8  C   LIG A   1      -1.817   3.603  -0.535  0.00  0.00    +0.137 A 
ATOM      9  C   LIG A   1      -1.131   3.230   0.613  0.00  0.00    +0.058 A 
ENDROOT
BRANCH   8  10
ATOM     10  C   LIG A   1      -2.306   4.854  -1.072  0.00  0.00    +0.021 A 
ATOM     11  C   LIG A   1      -1.673   6.065  -0.786  0.00  0.00    +0.061 A 
ATOM     12  C   LIG A   1      -2.107   7.275  -1.345  0.00  0.00    +0.162 A 
ATOM     13  C   LIG A   1      -3.236   7.294  -2.184  0.00  0.00    +0.162 A 
ATOM     14  C   LIG A   1      -3.879   6.081  -2.467  0.00  0.00    +0.050 A 
ATOM     15  C   LIG A   1      -3.422   4.877  -1.926  0.00  0.00    +0.015 A 
BRANCH  12  16
ATOM     16  O   LIG A   1      -1.356   8.345  -0.936  0.00  0.00    -0.491 OA
ATOM     17  C   LIG A   1      -1.264   9.494  -1.767  0.00  0.00    +0.277 C 
ENDBRANCH  12  16
BRANCH  13  18
ATOM     18  O   LIG A   1      -3.664   8.502  -2.660  0.00  0.00    -0.491 OA
ATOM     19  C   LIG A   1      -4.816   8.536  -3.490  0.00  0.00    +0.277 C 
ENDBRANCH  13  18
ENDBRANCH   8  10
BRANCH   1  21
ATOM     20  C   LIG A   1      -3.182   0.392  -2.755  0.00  0.00    +0.277 C 
ATOM     21  O   LIG A   1      -2.038  -0.348  -2.326  0.00  0.00    -0.491 OA
ENDBRANCH   1  21
BRANCH   3  22
ATOM     22  C   LIG A   1       0.446  -1.539   1.728  0.00  0.00    +0.037 C 
BRANCH  22  23
ATOM     23  C   LIG A   1       1.927  -1.727   1.398  0.00  0.00    +0.033 C 
BRANCH  23  24
ATOM     24  C   LIG A   1       2.541  -2.800   2.294  0.00  0.00    +0.163 C 
BRANCH  24  25
ATOM     25  O   LIG A   1       1.919  -4.059   2.030  0.00  0.00    -0.349 OA
BRANCH  25  26
ATOM     26  C   LIG A   1       2.454  -5.121   2.823  0.00  0.00    +0.282 C 
ATOM     27  O   LIG A   1       3.830  -5.383   2.524  0.00  0.00    -0.341 OA
ATOM     28  C   LIG A   1       4.104  -6.051   1.276  0.00  0.00    +0.178 C 
ATOM     29  C   LIG A   1       3.237  -7.303   1.046  0.00  0.00    +0.177 C 
ATOM     30  C   LIG A   1       1.751  -7.032   1.303  0.00  0.00    +0.179 C 
ATOM     31  C   LIG A   1       1.574  -6.386   2.689  0.00  0.00    +0.201 C 
BRANCH  30  32
ATOM     32  O   LIG A   1       1.221  -6.240   0.241  0.00  0.00    -0.386 OA
ATOM     33  H   LIG A   1       0.372  -5.865   0.536  0.00  0.00    +0.210 HD
ENDBRANCH  30  32
BRANCH  29  34
ATOM     34  O   LIG A   1       3.664  -8.335   1.959  0.00  0.00    -0.387 OA
ATOM     35  H   LIG A   1       4.551  -8.622   1.672  0.00  0.00    +0.210 HD
ENDBRANCH  29  34
BRANCH  31  36
ATOM     36  O   LIG A   1       1.893  -7.333   3.725  0.00  0.00    -0.384 OA
ATOM     37  H   LIG A   1       2.703  -7.809   3.437  0.00  0.00    +0.210 HD
ENDBRANCH  31  36
BRANCH  28  38
ATOM     38  C   LIG A   1       4.105  -5.077   0.089  0.00  0.00    +0.190 C 
BRANCH  38  39
ATOM     39  O   LIG A   1       5.124  -4.089   0.279  0.00  0.00    -0.392 OA
ATOM     40  H   LIG A   1       5.087  -3.835   1.218  0.00  0.00    +0.209 HD
ENDBRANCH  38  39
ENDBRANCH  28  38
ENDBRANCH  25  26
ENDBRANCH  24  25
ENDBRANCH  23  24
ENDBRANCH  22  23
ENDBRANCH   3  22
TORSDOF 14
