REMARK  Name = NuBBE_913
REMARK  12 active torsions:
REMARK  status: ('A' for Active; 'I' for Inactive)
REMARK    1  A    between atoms: N_1  and  C_14
REMARK    2  A    between atoms: C_2  and  C_4
REMARK    3  A    between atoms: C_5  and  O_6
REMARK    4  A    between atoms: C_7  and  N_8
REMARK    5  A    between atoms: C_15  and  C_16
REMARK    6  A    between atoms: C_20  and  C_28
REMARK    7  A    between atoms: C_21  and  O_27
REMARK    8  A    between atoms: C_22  and  C_26
REMARK    9  A    between atoms: C_28  and  C_29
REMARK   10  A    between atoms: C_29  and  C_30
REMARK   11  A    between atoms: C_29  and  C_32
REMARK   12  A    between atoms: C_30  and  C_31
REMARK                            x       y       z     vdW  Elec       q    Type
REMARK                         _______ _______ _______ _____ _____    ______ ____
ROOT
ATOM      1  C   LIG A   1       1.404  -0.693  -1.836  0.00  0.00    +0.223 C 
ATOM      2  C   LIG A   1       2.174   0.364  -0.979  0.00  0.00    +0.204 C 
ATOM      3  C   LIG A   1       2.271   1.784  -1.526  0.00  0.00    +0.054 C 
ATOM      4  O   LIG A   1       1.781   0.386   0.424  0.00  0.00    -0.459 OA
ATOM      5  C   LIG A   1       0.487   0.587   0.784  0.00  0.00    +0.313 C 
ATOM      6  O   LIG A   1      -0.380   1.051   0.057  0.00  0.00    -0.250 OA
ATOM      7  C   LIG A   1       0.204  -0.046   2.145  0.00  0.00    +0.130 C 
ATOM      8  C   LIG A   1       0.106  -1.594   2.041  0.00  0.00    +0.168 C 
ATOM      9  C   LIG A   1      -0.680  -2.206   0.834  0.00  0.00    +0.203 C 
ATOM     10  O   LIG A   1      -0.276  -1.728  -0.476  0.00  0.00    -0.458 OA
ATOM     11  C   LIG A   1       1.023  -1.833  -0.878  0.00  0.00    +0.332 C 
ATOM     12  O   LIG A   1       1.848  -2.562  -0.337  0.00  0.00    -0.249 OA
ATOM     13  C   LIG A   1      -0.714  -3.735   0.878  0.00  0.00    +0.055 C 
ENDROOT
BRANCH   1  14
ATOM     14  N   LIG A   1       0.262  -0.160  -2.569  0.00  0.00    -0.295 N 
ATOM     15  C   LIG A   1       0.365   0.358  -3.840  0.00  0.00    +0.248 C 
ATOM     16  O   LIG A   1       1.420   0.347  -4.465  0.00  0.00    -0.270 OA
ATOM     17  H   LIG A   1      -0.644  -0.147  -2.101  0.00  0.00    +0.150 HD
BRANCH  15  18
ATOM     18  C   LIG A   1      -0.872   0.936  -4.456  0.00  0.00    +0.080 A 
ATOM     19  C   LIG A   1      -2.115   0.960  -3.805  0.00  0.00    +0.150 A 
ATOM     20  C   LIG A   1      -3.278   1.391  -4.467  0.00  0.00    +0.076 A 
ATOM     21  C   LIG A   1      -3.151   1.943  -5.748  0.00  0.00    +0.027 A 
ATOM     22  C   LIG A   1      -1.903   2.012  -6.374  0.00  0.00    +0.003 A 
ATOM     23  C   LIG A   1      -0.775   1.485  -5.742  0.00  0.00    +0.017 A 
BRANCH  20  24
ATOM     24  N   LIG A   1      -4.582   1.291  -3.937  0.00  0.00    -0.285 N 
ATOM     25  C   LIG A   1      -4.987   0.610  -2.819  0.00  0.00    +0.330 C 
ATOM     26  O   LIG A   1      -6.141   0.576  -2.438  0.00  0.00    -0.279 OA
ATOM     27  H   LIG A   1      -5.354   1.660  -4.480  0.00  0.00    +0.155 HD
ENDBRANCH  20  24
BRANCH  19  28
ATOM     28  O   LIG A   1      -2.165   0.619  -2.479  0.00  0.00    -0.504 OA
ATOM     29  H   LIG A   1      -2.318   1.452  -1.987  0.00  0.00    +0.292 HD
ENDBRANCH  19  28
ENDBRANCH  15  18
ENDBRANCH   1  14
BRANCH   8  30
ATOM     30  O   LIG A   1       1.393  -2.193   2.217  0.00  0.00    -0.387 OA
ATOM     31  H   LIG A   1       1.783  -2.401   1.343  0.00  0.00    +0.210 HD
ENDBRANCH   8  30
BRANCH   7  32
ATOM     32  C   LIG A   1       1.227   0.452   3.205  0.00  0.00    +0.020 C 
BRANCH  32  33
ATOM     33  C   LIG A   1       1.123  -0.151   4.632  0.00  0.00    -0.013 C 
ATOM     34  C   LIG A   1      -0.281  -0.000   5.231  0.00  0.00    +0.007 C 
BRANCH  33  35
ATOM     35  C   LIG A   1       2.152   0.480   5.604  0.00  0.00    -0.000 C 
ATOM     36  C   LIG A   1       3.612   0.177   5.285  0.00  0.00    +0.004 C 
ENDBRANCH  33  35
ENDBRANCH  32  33
ENDBRANCH   7  32
TORSDOF 8
