@<TRIPOS>MOLECULE
NuBBE_1261
 90 91 0 0 0
SMALL
GASTEIGER

@<TRIPOS>ATOM
      1 O          -0.0596    0.8766    1.3396 O.2     1  LIG1       -0.2912
      2 C           0.4250    0.5186    0.2549 C.2     1  LIG1        0.1767
      3 C           1.4716    1.4586   -0.2484 C.2     1  LIG1        0.0420
      4 C           1.2876    3.0211   -0.5051 C.3     1  LIG1        0.0010
      5 C          -0.1403    3.7629   -0.6423 C.3     1  LIG1       -0.0457
      6 C          -1.0330    3.5164    0.5590 C.3     1  LIG1       -0.0553
      7 C          -2.2429    4.3769    0.9517 C.3     1  LIG1       -0.0653
      8 C           2.1615    3.9680    0.4102 C.3     1  LIG1        0.0519
      9 C           1.9429    3.8544    1.9434 C.2     1  LIG1        0.3074
     10 O           0.8128    4.5618    2.3283 O.3     1  LIG1       -0.4679
     11 C           0.0735    4.0340    3.4610 C.3     1  LIG1        0.0817
     12 O           2.6394    3.2612    2.6618 O.2     1  LIG1       -0.2508
     13 C           2.6559    0.8387   -0.0102 C.2     1  LIG1        0.1414
     14 O           3.8454    1.5725   -0.1979 O.2     1  LIG1       -0.4872
     15 C           5.0909    1.2052    0.4631 C.3     1  LIG1        0.1070
     16 H           5.0616    1.5491    1.5097 H       1  LIG1        0.0737
     17 C           6.2484    1.9701   -0.2117 C.3     1  LIG1       -0.0271
     18 C           5.2321   -0.3114    0.3595 C.3     1  LIG1        0.0562
     19 H           5.0426   -0.6173   -0.6762 H       1  LIG1        0.0414
     20 C           6.5692   -0.8924    0.7728 C.3     1  LIG1       -0.0519
     21 C           4.0566   -0.7889    1.1923 C.2     1  LIG1        0.1762
     22 O           4.1270   -0.9523    2.4067 O.2     1  LIG1       -0.2914
     23 C           2.7401   -0.5907    0.4804 C.2     1  LIG1        0.0981
     24 C           1.7364   -1.5315    0.3065 C.2     1  LIG1        0.1252
     25 O           1.9055   -2.8936    0.6497 O.2     1  LIG1       -0.4975
     26 C           1.1243   -3.9710    0.0835 C.3     1  LIG1        0.0784
     27 C           0.3213   -1.0332   -0.2349 C.3     1  LIG1        0.0950
     28 C           0.3060   -1.3293   -1.8412 C.3     1  LIG1       -0.0148
     29 C           0.3297   -2.7782   -2.4221 C.2     1  LIG1       -0.0839
     30 C           0.9312   -3.3328   -3.5008 C.2     1  LIG1       -0.0796
     31 C           1.4081   -2.5529   -4.6786 C.3     1  LIG1       -0.0440
     32 C           1.0867   -4.8426   -3.6631 C.3     1  LIG1       -0.0440
     33 C          -0.9819   -1.5677    0.6590 C.3     1  LIG1       -0.0265
     34 C          -2.5165   -1.5965    0.1454 C.3     1  LIG1       -0.0188
     35 C          -3.5575   -1.9708    1.3353 C.3     1  LIG1       -0.0428
     36 C          -5.1210   -2.1034    1.1614 C.3     1  LIG1       -0.0317
     37 C          -6.2305   -1.0793    1.4876 C.2     1  LIG1       -0.0797
     38 C          -6.6523   -0.9403    2.9743 C.3     1  LIG1       -0.0440
     39 C          -7.0047   -0.6862    0.4470 C.2     1  LIG1       -0.0997
     40 C          -2.9525   -0.4502   -0.7430 C.2     1  LIG1       -0.0766
     41 C          -3.5019   -0.7660   -2.1046 C.3     1  LIG1       -0.0438
     42 C          -2.9005    0.8432   -0.4108 C.2     1  LIG1       -0.0994
     43 H           1.7100    3.1448   -1.5207 H       1  LIG1        0.0356
     44 H          -0.6937    3.4331   -1.5258 H       1  LIG1        0.0271
     45 H           0.0533    4.8382   -0.8033 H       1  LIG1        0.0271
     46 H          -0.3888    3.3151    1.3745 H       1  LIG1        0.0263
     47 H          -1.3773    2.5176    0.4342 H       1  LIG1        0.0263
     48 H          -2.0575    5.4532    1.0390 H       1  LIG1        0.0230
     49 H          -2.6595    4.0767    1.9314 H       1  LIG1        0.0230
     50 H          -3.0633    4.2202    0.2476 H       1  LIG1        0.0230
     51 H           2.0092    5.0171    0.1276 H       1  LIG1        0.0383
     52 H           3.2284    3.8156    0.2335 H       1  LIG1        0.0383
     53 H          -0.6944    3.2929    3.1721 H       1  LIG1        0.0661
     54 H          -0.4994    4.8674    3.8720 H       1  LIG1        0.0661
     55 H           0.7071    3.5514    4.1965 H       1  LIG1        0.0661
     56 H           6.1118    3.0557   -0.1286 H       1  LIG1        0.0265
     57 H           6.3052    1.7450   -1.2818 H       1  LIG1        0.0265
     58 H           7.2221    1.7397    0.2395 H       1  LIG1        0.0265
     59 H           7.3511   -0.5962    0.0633 H       1  LIG1        0.0238
     60 H           6.5184   -1.9855    0.7599 H       1  LIG1        0.0238
     61 H           6.8769   -0.5748    1.7731 H       1  LIG1        0.0238
     62 H           1.6453   -4.4740   -0.7449 H       1  LIG1        0.0660
     63 H           0.1314   -3.6702   -0.2172 H       1  LIG1        0.0660
     64 H           0.8823   -4.7488    0.8169 H       1  LIG1        0.0660
     65 H           1.1929   -0.8337   -2.2659 H       1  LIG1        0.0321
     66 H          -0.5578   -0.8310   -2.2796 H       1  LIG1        0.0321
     67 H          -0.2743   -3.5186   -1.9168 H       1  LIG1        0.0572
     68 H           0.9439   -1.5644   -4.6932 H       1  LIG1        0.0274
     69 H           1.0821   -3.0637   -5.5958 H       1  LIG1        0.0274
     70 H           2.4947   -2.4664   -4.6905 H       1  LIG1        0.0274
     71 H           0.8349   -5.4043   -2.7558 H       1  LIG1        0.0274
     72 H           2.1338   -5.0896   -3.8909 H       1  LIG1        0.0274
     73 H           0.4634   -5.2280   -4.4755 H       1  LIG1        0.0274
     74 H          -0.9954   -1.0311    1.6174 H       1  LIG1        0.0285
     75 H          -0.7689   -2.5753    1.0210 H       1  LIG1        0.0285
     76 H          -2.5172   -2.4862   -0.4957 H       1  LIG1        0.0346
     77 H          -3.3464   -1.4084    2.2504 H       1  LIG1        0.0274
     78 H          -3.2755   -3.0125    1.5701 H       1  LIG1        0.0274
     79 H          -5.4086   -2.8956    1.8738 H       1  LIG1        0.0310
     80 H          -5.3263   -2.5662    0.1874 H       1  LIG1        0.0310
     81 H          -7.1032    0.0217    3.2673 H       1  LIG1        0.0274
     82 H          -5.7916   -1.0744    3.6438 H       1  LIG1        0.0274
     83 H          -7.3772   -1.7133    3.2697 H       1  LIG1        0.0274
     84 H          -6.7215   -0.8501   -0.5975 H       1  LIG1        0.0534
     85 H          -8.0195   -0.3147    0.5643 H       1  LIG1        0.0534
     86 H          -4.5634   -0.5005   -2.1444 H       1  LIG1        0.0274
     87 H          -3.4026   -1.8217   -2.3629 H       1  LIG1        0.0274
     88 H          -2.9721   -0.1869   -2.8701 H       1  LIG1        0.0274
     89 H          -2.5718    1.1522    0.5703 H       1  LIG1        0.0534
     90 H          -3.2093    1.6178   -1.1126 H       1  LIG1        0.0534
@<TRIPOS>BOND
     1     1     2    2
     2     2     3    1
     3     3     4    1
     4     4     5    1
     5     5     6    1
     6     6     7    1
     7     4     8    1
     8     8     9    1
     9     9    10    1
    10    10    11    1
    11     9    12    2
    12     3    13    2
    13    13    14    1
    14    14    15    1
    15    15    16    1
    16    15    17    1
    17    15    18    1
    18    18    19    1
    19    18    20    1
    20    18    21    1
    21    21    22    2
    22    13    23    1
    23    21    23    1
    24    23    24    2
    25    24    25    1
    26    25    26    1
    27    24    27    1
    28    27    28    1
    29    28    29    1
    30    29    30    2
    31    30    31    1
    32    30    32    1
    33     2    27    1
    34    27    33    1
    35    33    34    1
    36    34    35    1
    37    35    36    1
    38    36    37    1
    39    37    38    1
    40    37    39    2
    41    34    40    1
    42    40    41    1
    43    40    42    2
    44     4    43    1
    45     5    44    1
    46     5    45    1
    47     6    46    1
    48     6    47    1
    49     7    48    1
    50     7    49    1
    51     7    50    1
    52     8    51    1
    53     8    52    1
    54    11    53    1
    55    11    54    1
    56    11    55    1
    57    17    56    1
    58    17    57    1
    59    17    58    1
    60    20    59    1
    61    20    60    1
    62    20    61    1
    63    26    62    1
    64    26    63    1
    65    26    64    1
    66    28    65    1
    67    28    66    1
    68    29    67    1
    69    31    68    1
    70    31    69    1
    71    31    70    1
    72    32    71    1
    73    32    72    1
    74    32    73    1
    75    33    74    1
    76    33    75    1
    77    34    76    1
    78    35    77    1
    79    35    78    1
    80    36    79    1
    81    36    80    1
    82    38    81    1
    83    38    82    1
    84    38    83    1
    85    39    84    1
    86    39    85    1
    87    41    86    1
    88    41    87    1
    89    41    88    1
    90    42    89    1
    91    42    90    1
