@<TRIPOS>MOLECULE
NuBBE_315
 101 106 0 0 0
SMALL
GASTEIGER

@<TRIPOS>ATOM
      1 C          -3.1303   -1.3234   -3.0682 C.3     1  LIG1       -0.0572
      2 C          -2.1000   -1.6912   -1.9664 C.3     1  LIG1       -0.0052
      3 C          -2.9425   -2.3465   -0.8505 C.3     1  LIG1       -0.0572
      4 C          -1.0614   -2.7157   -2.5639 C.3     1  LIG1        0.0672
      5 H          -1.5779   -3.6574   -2.7810 H       1  LIG1        0.0602
      6 O          -0.5599   -2.1878   -3.8154 O.3     1  LIG1       -0.3449
      7 C           0.4094   -3.0004   -4.4926 C.3     1  LIG1        0.1881
      8 H           1.2663   -3.1670   -3.8347 H       1  LIG1        0.0937
      9 O          -0.0831   -4.2940   -4.8447 O.3     1  LIG1       -0.3431
     10 C          -0.9984   -4.3816   -5.9438 C.3     1  LIG1        0.0873
     11 H          -0.9843   -5.4437   -6.2201 H       1  LIG1        0.0621
     12 C          -2.4267   -4.0786   -5.5152 C.3     1  LIG1       -0.0361
     13 C          -0.5557   -3.5777   -7.1788 C.3     1  LIG1        0.1095
     14 H          -1.3772   -3.5281   -7.9018 H       1  LIG1        0.0646
     15 O           0.5168   -4.2889   -7.8240 O.3     1  LIG1       -0.3866
     16 C          -0.0761   -2.1623   -6.8255 C.3     1  LIG1        0.1140
     17 H           0.3943   -1.7338   -7.7188 H       1  LIG1        0.0648
     18 O          -1.1612   -1.2980   -6.4865 O.3     1  LIG1       -0.3864
     19 C           0.9728   -2.2253   -5.7085 C.3     1  LIG1        0.1341
     20 H           1.2401   -1.2094   -5.3936 H       1  LIG1        0.0671
     21 O           2.1683   -2.8681   -6.1859 O.3     1  LIG1       -0.3841
     22 C           0.0622   -2.9904   -1.5582 C.3     1  LIG1       -0.0255
     23 C           0.8165   -1.7128   -1.1816 C.3     1  LIG1       -0.0447
     24 C          -0.0903   -0.6112   -0.5538 C.3     1  LIG1       -0.0249
     25 C          -0.4642   -1.1098    0.8566 C.3     1  LIG1       -0.0590
     26 C          -1.3279   -0.3931   -1.5058 C.3     1  LIG1       -0.0278
     27 C          -2.2203    0.7452   -0.9749 C.3     1  LIG1       -0.0486
     28 C          -1.4515    2.0704   -0.8880 C.3     1  LIG1       -0.0457
     29 C          -0.1228    2.0633   -0.0723 C.3     1  LIG1       -0.0090
     30 C           0.6682    3.2949   -0.6474 C.3     1  LIG1       -0.0580
     31 C           0.6964    0.7762   -0.5103 C.3     1  LIG1       -0.0252
     32 C           2.0551    0.7422    0.2002 C.3     1  LIG1       -0.0306
     33 C           1.9676    0.9892    1.6611 C.2     1  LIG1       -0.0831
     34 C           0.9527    1.5979    2.3040 C.2     1  LIG1       -0.0521
     35 C          -0.2570    2.2407    1.5590 C.3     1  LIG1        0.0944
     36 C          -1.6171    1.7078    2.1110 C.2     1  LIG1        0.3156
     37 O          -2.7019    2.3370    1.6111 O.3     1  LIG1       -0.4800
     38 O          -1.8096    0.8707    2.9793 O.2     1  LIG1       -0.2500
     39 C          -0.2362    3.7477    2.0178 C.3     1  LIG1       -0.0319
     40 C          -0.2383    3.9583    3.5499 C.3     1  LIG1       -0.0354
     41 C           0.9211    3.2326    4.2779 C.3     1  LIG1        0.0741
     42 C           2.2275    3.9756    3.9414 C.2     1  LIG1        0.3115
     43 O           2.5069    4.9920    4.7847 O.3     1  LIG1       -0.4802
     44 O           2.9713    3.7787    3.0023 O.2     1  LIG1       -0.2504
     45 C           0.9746    1.7511    3.8330 C.3     1  LIG1       -0.0026
     46 C           2.0810    0.9739    4.5904 C.3     1  LIG1       -0.0403
     47 C           1.9312    1.0224    6.1285 C.3     1  LIG1       -0.0343
     48 C           1.7287    2.4759    6.6051 C.3     1  LIG1       -0.0468
     49 C           0.6667    3.2504    5.8108 C.3     1  LIG1       -0.0362
     50 C           0.7562    0.1362    6.5899 C.3     1  LIG1       -0.0598
     51 C           3.2184    0.4554    6.7602 C.3     1  LIG1       -0.0598
     52 H           0.0499    1.2828    4.1784 H       1  LIG1        0.0357
     53 H           0.9619    0.9408   -1.5682 H       1  LIG1        0.0315
     54 H          -0.9032    0.0010   -2.4441 H       1  LIG1        0.0312
     55 H          -2.6726   -0.7737   -3.8951 H       1  LIG1        0.0236
     56 H          -3.9478   -0.7085   -2.6782 H       1  LIG1        0.0236
     57 H          -3.6013   -2.2259   -3.4718 H       1  LIG1        0.0236
     58 H          -3.6865   -1.6491   -0.4499 H       1  LIG1        0.0236
     59 H          -2.3614   -2.7218   -0.0130 H       1  LIG1        0.0236
     60 H          -3.4930   -3.2103   -1.2434 H       1  LIG1        0.0236
     61 H          -2.5537   -3.0372   -5.2281 H       1  LIG1        0.0255
     62 H          -2.7063   -4.6896   -4.6510 H       1  LIG1        0.0255
     63 H          -3.1308   -4.2860   -6.3268 H       1  LIG1        0.0255
     64 H           1.2158   -4.4157   -7.1481 H       1  LIG1        0.2100
     65 H          -1.2655   -1.3049   -5.5132 H       1  LIG1        0.2100
     66 H           2.4604   -2.3852   -6.9818 H       1  LIG1        0.2101
     67 H           0.7811   -3.7142   -1.9537 H       1  LIG1        0.0290
     68 H          -0.3452   -3.4820   -0.6702 H       1  LIG1        0.0290
     69 H           1.3183   -1.3166   -2.0730 H       1  LIG1        0.0271
     70 H           1.6099   -1.9991   -0.4812 H       1  LIG1        0.0271
     71 H          -0.6741   -2.1780    0.8982 H       1  LIG1        0.0235
     72 H          -1.3512   -0.6256    1.2462 H       1  LIG1        0.0235
     73 H           0.3510   -0.9893    1.5706 H       1  LIG1        0.0235
     74 H          -2.6716    0.4712   -0.0213 H       1  LIG1        0.0268
     75 H          -3.0592    0.9220   -1.6553 H       1  LIG1        0.0268
     76 H          -2.1097    2.8835   -0.5648 H       1  LIG1        0.0271
     77 H          -1.2131    2.3330   -1.9308 H       1  LIG1        0.0271
     78 H           0.9070    3.1591   -1.7094 H       1  LIG1        0.0236
     79 H           1.6180    3.4619   -0.1307 H       1  LIG1        0.0236
     80 H           0.0758    4.2150   -0.5824 H       1  LIG1        0.0236
     81 H           2.7248    1.4974   -0.2302 H       1  LIG1        0.0310
     82 H           2.5687   -0.2072    0.0322 H       1  LIG1        0.0310
     83 H           2.8320    0.6211    2.2064 H       1  LIG1        0.0572
     84 H          -3.4548    1.8625    2.0228 H       1  LIG1        0.2951
     85 H          -1.0937    4.2864    1.5950 H       1  LIG1        0.0279
     86 H           0.6567    4.2585    1.6432 H       1  LIG1        0.0279
     87 H          -1.2015    3.6237    3.9548 H       1  LIG1        0.0276
     88 H          -0.1860    5.0369    3.7490 H       1  LIG1        0.0276
     89 H           3.3546    5.3453    4.4414 H       1  LIG1        0.2951
     90 H           3.0653    1.3755    4.3169 H       1  LIG1        0.0276
     91 H           2.0757   -0.0776    4.2713 H       1  LIG1        0.0276
     92 H           2.6820    3.0149    6.5385 H       1  LIG1        0.0271
     93 H           1.4551    2.4867    7.6679 H       1  LIG1        0.0271
     94 H           0.6216    4.2794    6.1886 H       1  LIG1        0.0276
     95 H          -0.3195    2.8180    6.0241 H       1  LIG1        0.0276
     96 H          -0.2089    0.4871    6.2143 H       1  LIG1        0.0235
     97 H           0.6896    0.1137    7.6837 H       1  LIG1        0.0235
     98 H           0.8861   -0.8973    6.2481 H       1  LIG1        0.0235
     99 H           4.0972    1.0390    6.4627 H       1  LIG1        0.0235
    100 H           3.3892   -0.5808    6.4458 H       1  LIG1        0.0235
    101 H           3.1644    0.4699    7.8542 H       1  LIG1        0.0235
@<TRIPOS>BOND
     1     2     4    1
     2     6     7    1
     3     7     8    1
     4     7     9    1
     5     9    10    1
     6    10    13    1
     7    13    14    1
     8    13    15    1
     9    13    16    1
    10    16    19    1
    11    19    20    1
    12     7    19    1
    13    19    21    1
    14     4    22    1
    15    22    23    1
    16    23    24    1
    17    24    26    1
    18    26    27    1
    19    27    28    1
    20    28    29    1
    21    29    31    1
    22    31    32    1
    23    32    33    1
    24    33    34    2
    25    34    35    1
    26    36    37    1
    27    36    38    2
    28    29    35    1
    29    35    39    1
    30    39    40    1
    31    40    41    1
    32    42    43    1
    33    42    44    2
    34    41    45    1
    35    45    46    1
    36    46    47    1
    37    47    48    1
    38    48    49    1
    39    41    49    1
    40    34    45    1
    41    24    31    1
    42     2    26    1
    43     1     2    1
    44     2     3    1
    45     4     5    1
    46     4     6    1
    47    24    25    1
    48    26    54    1
    49    29    30    1
    50    31    53    1
    51    35    36    1
    52    41    42    1
    53    45    52    1
    54    47    50    1
    55    47    51    1
    56    10    12    1
    57    10    11    1
    58    16    18    1
    59    16    17    1
    60     1    55    1
    61     1    56    1
    62     1    57    1
    63     3    58    1
    64     3    59    1
    65     3    60    1
    66    12    61    1
    67    12    62    1
    68    12    63    1
    69    15    64    1
    70    18    65    1
    71    21    66    1
    72    22    67    1
    73    22    68    1
    74    23    69    1
    75    23    70    1
    76    25    71    1
    77    25    72    1
    78    25    73    1
    79    27    74    1
    80    27    75    1
    81    28    76    1
    82    28    77    1
    83    30    78    1
    84    30    79    1
    85    30    80    1
    86    32    81    1
    87    32    82    1
    88    33    83    1
    89    37    84    1
    90    39    85    1
    91    39    86    1
    92    40    87    1
    93    40    88    1
    94    43    89    1
    95    46    90    1
    96    46    91    1
    97    48    92    1
    98    48    93    1
    99    49    94    1
   100    49    95    1
   101    50    96    1
   102    50    97    1
   103    50    98    1
   104    51    99    1
   105    51   100    1
   106    51   101    1
