@<TRIPOS>MOLECULE
NuBBE_411
 29 31 0 0 0
SMALL
GASTEIGER

@<TRIPOS>ATOM
      1 C          -4.4994    1.2405    0.0061 C.3     1  LIG1       -0.0396
      2 C          -2.9992    1.2337    0.0042 C.ar    1  LIG1       -0.0463
      3 C          -2.2639    2.4219    0.0019 C.ar    1  LIG1       -0.0165
      4 C          -0.8628    2.3902   -0.0002 C.ar    1  LIG1        0.1286
      5 O          -0.1920    3.5802   -0.0031 O.3     1  LIG1       -0.5060
      6 C          -2.3129    0.0169    0.0042 C.ar    1  LIG1       -0.0471
      7 C          -0.9091   -0.0142    0.0023 C.ar    1  LIG1        0.0368
      8 C          -0.1674    1.1702    0.0003 C.ar    1  LIG1        0.0744
      9 C           1.3209    1.0954   -0.0012 C.2     1  LIG1        0.1980
     10 C           1.9791   -0.2306   -0.0020 C.ar    1  LIG1        0.0334
     11 C           1.2237   -1.3996   -0.0006 C.ar    1  LIG1        0.0365
     12 C          -0.2445   -1.3314    0.0019 C.2     1  LIG1        0.1947
     13 O          -0.9056   -2.3639    0.0035 O.2     1  LIG1       -0.2866
     14 C           1.8511   -2.6538   -0.0016 C.ar    1  LIG1       -0.0087
     15 C           3.2390   -2.7209   -0.0038 C.ar    1  LIG1        0.1176
     16 O           3.8907   -3.9172   -0.0048 O.3     1  LIG1       -0.5067
     17 C           4.0070   -1.5625   -0.0051 C.ar    1  LIG1       -0.0195
     18 C           3.3790   -0.3149   -0.0042 C.ar    1  LIG1       -0.0468
     19 O           2.0335    2.0911   -0.0017 O.2     1  LIG1       -0.2865
     20 H          -4.8980    2.2599    0.0077 H       1  LIG1        0.0278
     21 H          -4.8764    0.7299    0.8982 H       1  LIG1        0.0278
     22 H          -4.8785    0.7317   -0.8861 H       1  LIG1        0.0278
     23 H          -2.7903    3.3736    0.0019 H       1  LIG1        0.0657
     24 H          -0.8127    4.3255   -0.0074 H       1  LIG1        0.2922
     25 H          -2.8748   -0.9173    0.0057 H       1  LIG1        0.0627
     26 H           1.2494   -3.5589   -0.0005 H       1  LIG1        0.0661
     27 H           3.2358   -4.6359   -0.0037 H       1  LIG1        0.2921
     28 H           5.0921   -1.6286   -0.0068 H       1  LIG1        0.0654
     29 H           3.9859    0.5891   -0.0052 H       1  LIG1        0.0626
@<TRIPOS>BOND
     1     1     2    1
     2     2     3   ar
     3     3     4   ar
     4     4     5    1
     5     2     6   ar
     6     6     7   ar
     7     7     8   ar
     8     4     8   ar
     9     8     9    1
    10     9    10    1
    11    10    11   ar
    12    11    12    1
    13     7    12    1
    14    12    13    2
    15    11    14   ar
    16    14    15   ar
    17    15    16    1
    18    15    17   ar
    19    17    18   ar
    20    10    18   ar
    21     9    19    2
    22     1    20    1
    23     1    21    1
    24     1    22    1
    25     3    23    1
    26     5    24    1
    27     6    25    1
    28    14    26    1
    29    16    27    1
    30    17    28    1
    31    18    29    1
