@<TRIPOS>MOLECULE
NuBBE_396
 27 28 0 0 0
SMALL
GASTEIGER

@<TRIPOS>ATOM
      1 O          -3.3524    1.8378   -1.4601 O.2     1  LIG1       -0.2456
      2 C          -2.7961    0.7495   -1.5205 C.2     1  LIG1        0.3322
      3 C          -3.3159   -0.3969   -0.7530 C.2     1  LIG1        0.0187
      4 C          -2.8728   -1.6417   -0.9625 C.2     1  LIG1       -0.0735
      5 C          -1.7758   -1.9027   -1.9417 C.3     1  LIG1        0.0068
      6 O          -1.7097    0.5325   -2.3027 O.3     1  LIG1       -0.4538
      7 C          -0.9062   -0.6516   -2.1312 C.3     1  LIG1        0.1253
      8 C           0.1222   -0.4820   -1.0325 C.2     1  LIG1       -0.0431
      9 C           0.3333    0.6172   -0.2876 C.2     1  LIG1       -0.0551
     10 C           1.3472    0.7095    0.7745 C.ar    1  LIG1       -0.0252
     11 C           1.9400    1.9504    1.0423 C.ar    1  LIG1       -0.0546
     12 C           2.8905    2.0816    2.0586 C.ar    1  LIG1       -0.0612
     13 C           3.2504    0.9756    2.8254 C.ar    1  LIG1       -0.0617
     14 C           2.6529   -0.2588    2.5844 C.ar    1  LIG1       -0.0612
     15 C           1.7006   -0.3889    1.5705 C.ar    1  LIG1       -0.0546
     16 H          -4.1196   -0.1780   -0.0604 H       1  LIG1        0.0686
     17 H          -3.3105   -2.4790   -0.4280 H       1  LIG1        0.0575
     18 H          -2.2365   -2.1871   -2.8955 H       1  LIG1        0.0346
     19 H          -1.1675   -2.7513   -1.6080 H       1  LIG1        0.0346
     20 H          -0.3459   -0.7772   -3.0661 H       1  LIG1        0.0782
     21 H           0.7520   -1.3555   -0.8763 H       1  LIG1        0.0609
     22 H          -0.2455    1.5227   -0.4601 H       1  LIG1        0.0621
     23 H           1.6724    2.8273    0.4564 H       1  LIG1        0.0623
     24 H           3.3481    3.0485    2.2510 H       1  LIG1        0.0618
     25 H           3.9905    1.0771    3.6147 H       1  LIG1        0.0618
     26 H           2.9219   -1.1213    3.1883 H       1  LIG1        0.0618
     27 H           1.2323   -1.3577    1.4201 H       1  LIG1        0.0623
@<TRIPOS>BOND
     1     1     2    2
     2     2     3    1
     3     3     4    2
     4     4     5    1
     5     2     6    1
     6     6     7    1
     7     5     7    1
     8     7     8    1
     9     8     9    2
    10     9    10    1
    11    10    11   ar
    12    11    12   ar
    13    12    13   ar
    14    13    14   ar
    15    14    15   ar
    16    10    15   ar
    17     3    16    1
    18     4    17    1
    19     5    18    1
    20     5    19    1
    21     7    20    1
    22     8    21    1
    23     9    22    1
    24    11    23    1
    25    12    24    1
    26    13    25    1
    27    14    26    1
    28    15    27    1
