REMARK  Name = NuBBE_2353
REMARK  3 active torsions:
REMARK  status: ('A' for Active; 'I' for Inactive)
REMARK    1  A    between atoms: C_1  and  C_2
REMARK    2  A    between atoms: C_17  and  C_18
REMARK    3  A    between atoms: C_17  and  C_19
REMARK                            x       y       z     vdW  Elec       q    Type
REMARK                         _______ _______ _______ _____ _____    ______ ____
ROOT
ATOM      1  C   LIG A   1      -1.747   1.690   1.185  0.00  0.00    +0.012 C 
ATOM      2  C   LIG A   1      -0.352   1.208   0.677  0.00  0.00    -0.025 C 
ATOM      3  C   LIG A   1       0.287   0.307   1.815  0.00  0.00    +0.001 C 
ATOM      4  C   LIG A   1      -0.425  -1.048   1.873  0.00  0.00    +0.005 C 
ATOM      5  C   LIG A   1      -0.285  -1.868   0.614  0.00  0.00    +0.008 C 
ATOM      6  C   LIG A   1      -0.684  -1.154  -0.683  0.00  0.00    -0.022 C 
ATOM      7  C   LIG A   1       0.119  -1.731  -1.859  0.00  0.00    +0.037 C 
ATOM      8  C   LIG A   1      -0.912  -1.803  -2.964  0.00  0.00    -0.073 C 
ATOM      9  C   LIG A   1      -0.752  -2.563  -3.982  0.00  0.00    +0.008 C 
ATOM     10  C   LIG A   1      -0.525   0.437  -0.710  0.00  0.00    +0.002 C 
ATOM     11  C   LIG A   1      -1.478   1.143  -1.736  0.00  0.00    +0.005 C 
ATOM     12  C   LIG A   1      -2.653   0.340  -2.217  0.00  0.00    +0.008 C 
ATOM     13  C   LIG A   1      -2.270  -1.116  -2.514  0.00  0.00    +0.015 C 
ATOM     14  C   LIG A   1      -2.103  -1.647  -1.117  0.00  0.00    +0.015 C 
ATOM     15  C   LIG A   1       1.866   0.273   1.867  0.00  0.00    -0.032 C 
ATOM     16  C   LIG A   1       2.447  -0.463   3.102  0.00  0.00    +0.011 C 
ATOM     17  C   LIG A   1       2.549  -0.376   0.646  0.00  0.00    +0.011 C 
ATOM     18  C   LIG A   1       2.297   1.750   1.999  0.00  0.00    +0.007 C 
ATOM     19  C   LIG A   1       1.968   2.526   0.741  0.00  0.00    +0.001 C 
ATOM     20  C   LIG A   1       0.467   2.541   0.456  0.00  0.00    +0.007 C 
ENDROOT
TORSDOF 0
