REMARK  Name = NuBBE_14
REMARK  10 active torsions:
REMARK  status: ('A' for Active; 'I' for Inactive)
REMARK    1  A    between atoms: C_3  and  O_32
REMARK    2  A    between atoms: C_4  and  O_5
REMARK    3  A    between atoms: O_5  and  C_6
REMARK    4  A    between atoms: C_8  and  C_9
REMARK    5  A    between atoms: C_15  and  C_21
REMARK    6  A    between atoms: C_23  and  O_24
REMARK    7  A    between atoms: O_24  and  C_25
REMARK    8  A    between atoms: C_26  and  O_29
REMARK    9  A    between atoms: O_29  and  C_30
REMARK   10  A    between atoms: O_32  and  C_33
REMARK                            x       y       z     vdW  Elec       q    Type
REMARK                         _______ _______ _______ _____ _____    ______ ____
ROOT
ATOM      1  C   LIG A   1      -0.796   0.937   1.586  0.00  0.00    +0.154 C 
ATOM      2  C   LIG A   1      -0.123   0.648   0.237  0.00  0.00    +0.056 C 
ATOM      3  C   LIG A   1       1.268   1.220   0.161  0.00  0.00    +0.167 C 
ATOM      4  O   LIG A   1       2.076   0.335   0.940  0.00  0.00    -0.371 OA
ATOM      5  C   LIG A   1       1.538  -1.002   0.800  0.00  0.00    +0.154 C 
ATOM      6  C   LIG A   1       0.115  -0.843   0.247  0.00  0.00    +0.056 C 
ATOM      7  C   LIG A   1      -0.938  -1.360   1.194  0.00  0.00    +0.167 C 
ATOM      8  O   LIG A   1      -1.128  -0.340   2.173  0.00  0.00    -0.371 OA
ENDROOT
BRANCH   1  13
ATOM      9  C   LIG A   1      -4.437   2.124   1.664  0.00  0.00    +0.050 A 
ATOM     10  C   LIG A   1      -4.351   3.398   1.099  0.00  0.00    +0.162 A 
ATOM     11  C   LIG A   1      -3.088   3.893   0.742  0.00  0.00    +0.162 A 
ATOM     12  C   LIG A   1      -1.944   3.098   0.895  0.00  0.00    +0.055 A 
ATOM     13  C   LIG A   1      -2.033   1.805   1.439  0.00  0.00    -0.015 A 
ATOM     14  C   LIG A   1      -3.291   1.343   1.836  0.00  0.00    +0.010 A 
BRANCH  11  15
ATOM     15  O   LIG A   1      -2.890   5.107   0.128  0.00  0.00    -0.491 OA
ATOM     16  C   LIG A   1      -3.291   6.210   0.941  0.00  0.00    +0.277 C 
ENDBRANCH  11  15
BRANCH  10  17
ATOM     17  O   LIG A   1      -5.438   4.187   0.828  0.00  0.00    -0.491 OA
ATOM     18  C   LIG A   1      -6.708   3.712   1.253  0.00  0.00    +0.277 C 
ENDBRANCH  10  17
ENDBRANCH   1  13
BRANCH   5  19
ATOM     19  C   LIG A   1       2.413  -1.841  -0.116  0.00  0.00    -0.015 A 
ATOM     20  C   LIG A   1       2.108  -3.185  -0.403  0.00  0.00    +0.055 A 
ATOM     21  C   LIG A   1       2.905  -3.955  -1.270  0.00  0.00    +0.162 A 
ATOM     22  C   LIG A   1       4.048  -3.371  -1.855  0.00  0.00    +0.162 A 
ATOM     23  C   LIG A   1       4.341  -2.037  -1.576  0.00  0.00    +0.050 A 
ATOM     24  C   LIG A   1       3.551  -1.287  -0.712  0.00  0.00    +0.010 A 
BRANCH  21  25
ATOM     25  O   LIG A   1       2.446  -5.237  -1.433  0.00  0.00    -0.491 OA
ATOM     26  C   LIG A   1       3.169  -6.099  -2.308  0.00  0.00    +0.277 C 
ENDBRANCH  21  25
BRANCH  22  27
ATOM     27  O   LIG A   1       4.828  -4.132  -2.678  0.00  0.00    -0.491 OA
ATOM     28  C   LIG A   1       6.072  -3.604  -3.108  0.00  0.00    +0.277 C 
ENDBRANCH  22  27
ENDBRANCH   5  19
TORSDOF 6
