REMARK  Name = NuBBE_564
REMARK  5 active torsions:
REMARK  status: ('A' for Active; 'I' for Inactive)
REMARK    1  A    between atoms: O_1  and  C_2
REMARK    2  A    between atoms: C_4  and  O_5
REMARK    3  A    between atoms: C_9  and  C_10
REMARK    4  A    between atoms: C_12  and  O_13
REMARK    5  A    between atoms: C_14  and  O_15
REMARK                            x       y       z     vdW  Elec       q    Type
REMARK                         _______ _______ _______ _____ _____    ______ ____
ROOT
ATOM      1  C   LIG A   1      -3.502  -2.171  -0.189  0.00  0.00    +0.124 A 
ATOM      2  C   LIG A   1      -2.924  -3.430  -0.070  0.00  0.00    +0.091 A 
ATOM      3  C   LIG A   1      -1.532  -3.538   0.032  0.00  0.00    +0.135 A 
ATOM      4  C   LIG A   1      -0.726  -2.390   0.016  0.00  0.00    +0.105 A 
ATOM      5  C   LIG A   1       0.751  -2.433   0.123  0.00  0.00    +0.197 A 
ATOM      6  C   LIG A   1       1.452  -1.137   0.083  0.00  0.00    +0.098 A 
ATOM      7  C   LIG A   1       0.750  -0.004  -0.047  0.00  0.00    +0.139 A 
ATOM      8  O   LIG A   1      -0.630   0.044  -0.131  0.00  0.00    -0.454 OA
ATOM      9  O   LIG A   1       1.411  -3.457   0.240  0.00  0.00    -0.287 OA
ATOM     10  C   LIG A   1      -1.331  -1.137  -0.106  0.00  0.00    +0.146 A 
ATOM     11  C   LIG A   1      -2.718  -1.024  -0.208  0.00  0.00    +0.092 A 
ENDROOT
BRANCH   7  12
ATOM     12  C   LIG A   1       1.404   1.320  -0.082  0.00  0.00    +0.021 A 
ATOM     13  C   LIG A   1       0.834   2.399   0.616  0.00  0.00    +0.060 A 
ATOM     14  C   LIG A   1       1.443   3.650   0.574  0.00  0.00    +0.159 A 
ATOM     15  C   LIG A   1       2.610   3.842  -0.158  0.00  0.00    +0.158 A 
ATOM     16  C   LIG A   1       3.185   2.796  -0.861  0.00  0.00    +0.050 A 
ATOM     17  C   LIG A   1       2.580   1.536  -0.825  0.00  0.00    +0.015 A 
BRANCH  14  18
ATOM     18  O   LIG A   1       0.927   4.728   1.240  0.00  0.00    -0.503 OA
ATOM     19  H   LIG A   1       0.115   4.445   1.694  0.00  0.00    +0.292 HD
ENDBRANCH  14  18
BRANCH  15  20
ATOM     20  O   LIG A   1       3.200   5.072  -0.193  0.00  0.00    -0.503 OA
ATOM     21  H   LIG A   1       2.625   5.636   0.363  0.00  0.00    +0.292 HD
ENDBRANCH  15  20
ENDBRANCH   7  12
BRANCH   1  22
ATOM     22  O   LIG A   1      -4.853  -2.012  -0.291  0.00  0.00    -0.506 OA
ATOM     23  H   LIG A   1      -5.283  -2.883  -0.277  0.00  0.00    +0.292 HD
ENDBRANCH   1  22
BRANCH   3  24
ATOM     24  O   LIG A   1      -0.977  -4.780   0.149  0.00  0.00    -0.506 OA
ATOM     25  H   LIG A   1      -1.660  -5.469   0.137  0.00  0.00    +0.292 HD
ENDBRANCH   3  24
TORSDOF 5
