@<TRIPOS>MOLECULE
NuBBE_2013
 39 40 0 0 0
SMALL
GASTEIGER

@<TRIPOS>ATOM
      1 C          -2.7547   -1.7322   -0.7400 C.3     1  LIG1        0.0730
      2 O          -3.2813   -2.9661   -0.2318 O.3     1  LIG1       -0.3784
      3 C          -4.6920   -3.0440   -0.3810 C.3     1  LIG1        0.0369
      4 C          -1.2421   -1.7276   -0.6258 C.ar    1  LIG1       -0.0111
      5 C          -0.4863   -0.5443   -0.4606 C.ar    1  LIG1        0.0288
      6 C           0.9177   -0.5809   -0.2977 C.ar    1  LIG1       -0.0329
      7 C           1.7215    0.6700    0.0124 C.3     1  LIG1       -0.0175
      8 C           0.9823    2.0203   -0.0648 C.3     1  LIG1        0.0169
      9 H           0.9507    2.3314   -1.1206 H       1  LIG1        0.0378
     10 C          -0.4715    1.8579    0.3981 C.3     1  LIG1        0.1243
     11 H          -0.5494    1.5499    1.4464 H       1  LIG1        0.0682
     12 C          -1.1415    0.7850   -0.4497 C.2     1  LIG1        0.1925
     13 O          -2.1655    1.0104   -1.0811 O.2     1  LIG1       -0.2892
     14 O          -1.1868    3.0871    0.2498 O.3     1  LIG1       -0.3833
     15 C           1.7770    3.0831    0.7099 C.2     1  LIG1       -0.0734
     16 C           2.7080    3.8491    0.1133 C.2     1  LIG1       -0.0993
     17 C           1.4981    3.2458    2.1819 C.3     1  LIG1       -0.0437
     18 C           1.5820   -1.8279   -0.3579 C.ar    1  LIG1       -0.0466
     19 C           0.8382   -2.9945   -0.5708 C.ar    1  LIG1       -0.0582
     20 C          -0.5482   -2.9453   -0.6964 C.ar    1  LIG1       -0.0555
     21 C           3.0792   -1.9424   -0.2381 C.3     1  LIG1       -0.0394
     22 H          -3.1898   -0.9327   -0.1333 H       1  LIG1        0.0610
     23 H          -3.0398   -1.6114   -1.7914 H       1  LIG1        0.0610
     24 H          -5.0449   -3.9238    0.1648 H       1  LIG1        0.0524
     25 H          -4.9543   -3.1613   -1.4365 H       1  LIG1        0.0524
     26 H          -5.1821   -2.1586    0.0352 H       1  LIG1        0.0524
     27 H           2.5773    0.7187   -0.6741 H       1  LIG1        0.0320
     28 H           2.1235    0.5385    1.0254 H       1  LIG1        0.0320
     29 H          -1.9463    2.8972   -0.3385 H       1  LIG1        0.2104
     30 H           2.9423    3.7597   -0.9426 H       1  LIG1        0.0534
     31 H           3.2708    4.5920    0.6736 H       1  LIG1        0.0534
     32 H           0.4530    3.5180    2.3556 H       1  LIG1        0.0274
     33 H           2.1086    4.0360    2.6322 H       1  LIG1        0.0274
     34 H           1.7136    2.3151    2.7153 H       1  LIG1        0.0274
     35 H           1.3321   -3.9633   -0.6241 H       1  LIG1        0.0620
     36 H          -1.0940   -3.8781   -0.8347 H       1  LIG1        0.0621
     37 H           3.4442   -1.4025    0.6406 H       1  LIG1        0.0278
     38 H           3.5567   -1.5427   -1.1385 H       1  LIG1        0.0278
     39 H           3.3937   -2.9854   -0.1246 H       1  LIG1        0.0278
@<TRIPOS>BOND
     1     1     2    1
     2     2     3    1
     3     1     4    1
     4     4     5   ar
     5     5     6   ar
     6     6     7    1
     7     7     8    1
     8     8     9    1
     9     8    10    1
    10    10    11    1
    11    10    12    1
    12     5    12    1
    13    12    13    2
    14    10    14    1
    15     8    15    1
    16    15    16    2
    17    15    17    1
    18     6    18   ar
    19    18    19   ar
    20    19    20   ar
    21     4    20   ar
    22    18    21    1
    23     1    22    1
    24     1    23    1
    25     3    24    1
    26     3    25    1
    27     3    26    1
    28     7    27    1
    29     7    28    1
    30    14    29    1
    31    16    30    1
    32    16    31    1
    33    17    32    1
    34    17    33    1
    35    17    34    1
    36    19    35    1
    37    20    36    1
    38    21    37    1
    39    21    38    1
    40    21    39    1
