@<TRIPOS>MOLECULE
NuBBE_1976
 15 14 0 0 0
SMALL
GASTEIGER

@<TRIPOS>ATOM
      1 S          -0.7824   -0.1343   -0.5541 S.3     1  LIG1       -0.0778
      2 C           0.6396   -1.1469   -0.0514 C.3     1  LIG1        0.0225
      3 C           0.2413   -1.9899    1.1162 C.2     1  LIG1       -0.0805
      4 C          -0.2307   -3.2436    1.0140 C.2     1  LIG1       -0.1018
      5 S          -0.0213    0.9588   -2.1139 S.3     1  LIG1       -0.0242
      6 S           0.9405    2.5376   -1.2221 S.3     1  LIG1       -0.0852
      7 C          -0.4555    3.4477   -0.5165 C.3     1  LIG1       -0.0071
      8 H           1.4771   -0.5009    0.2431 H       1  LIG1        0.0427
      9 H           0.9613   -1.7685   -0.8909 H       1  LIG1        0.0427
     10 H           0.3478   -1.5593    2.1027 H       1  LIG1        0.0575
     11 H          -0.3962   -3.7156    0.0511 H       1  LIG1        0.0532
     12 H          -0.5129   -3.8095    1.8942 H       1  LIG1        0.0532
     13 H          -0.1186    4.4381   -0.2014 H       1  LIG1        0.0349
     14 H          -0.8219    2.9196    0.3679 H       1  LIG1        0.0349
     15 H          -1.2681    3.5667   -1.2388 H       1  LIG1        0.0349
@<TRIPOS>BOND
     1     1     2    1
     2     2     3    1
     3     3     4    2
     4     1     5    1
     5     5     6    1
     6     6     7    1
     7     2     8    1
     8     2     9    1
     9     3    10    1
    10     4    11    1
    11     4    12    1
    12     7    13    1
    13     7    14    1
    14     7    15    1
