@<TRIPOS>MOLECULE
NuBBE_1826
 82 86 0 0 0
SMALL
GASTEIGER

@<TRIPOS>ATOM
      1 C           0.9972   -1.7572    0.8421 C.3     1  LIG1       -0.0616
      2 C           1.9989   -1.1777   -0.1395 C.3     1  LIG1       -0.0349
      3 H           2.5759   -0.4900    0.4990 H       1  LIG1        0.0306
      4 C           3.0249   -2.3890   -0.3536 C.3     1  LIG1       -0.0407
      5 H           2.6961   -3.2448    0.2558 H       1  LIG1        0.0301
      6 C           3.1086   -2.9102   -1.7627 C.3     1  LIG1       -0.0497
      7 C           3.3731   -1.7302   -2.6558 C.3     1  LIG1       -0.0468
      8 C           2.2390   -0.6648   -2.6843 C.3     1  LIG1       -0.0259
      9 C           1.1128   -1.4683   -3.2874 C.3     1  LIG1       -0.0463
     10 C           0.0704   -2.0914   -2.0813 C.3     1  LIG1       -0.0429
     11 C          -1.1080   -1.0557   -1.3560 C.3     1  LIG1       -0.0049
     12 C          -1.7440   -0.3511    0.0054 C.2     1  LIG1       -0.0634
     13 C          -2.4903   -0.9902    0.9252 C.2     1  LIG1       -0.0836
     14 C          -3.1061   -0.2989    2.0801 C.3     1  LIG1       -0.0302
     15 C          -2.3330    0.9062    2.6352 C.3     1  LIG1       -0.0198
     16 H          -3.1454    1.2037    3.3189 H       1  LIG1        0.0318
     17 C          -1.1728    0.8159    3.6224 C.3     1  LIG1        0.0270
     18 C          -0.0078    0.1249    2.9520 C.3     1  LIG1       -0.0528
     19 C          -0.9394    2.2966    3.9771 C.2     1  LIG1        0.1392
     20 C          -2.1992    3.2564    3.7797 C.3     1  LIG1        0.0069
     21 C          -2.9421    3.0899    2.2935 C.3     1  LIG1       -0.0401
     22 C          -2.0340    2.0441    1.5541 C.3     1  LIG1       -0.0212
     23 C          -1.7142    1.2192    0.1967 C.3     1  LIG1       -0.0136
     24 H          -0.6207    1.2674    0.2220 H       1  LIG1        0.0351
     25 C          -2.0966    1.8906   -1.0928 C.3     1  LIG1       -0.0454
     26 C          -0.9289    1.6180   -2.0273 C.3     1  LIG1       -0.0458
     27 C          -0.4159    0.1198   -2.0611 C.3     1  LIG1       -0.0168
     28 C           1.4160   -0.1130   -1.4647 C.3     1  LIG1       -0.0177
     29 C           1.9951    1.2387   -0.9123 C.3     1  LIG1       -0.0583
     30 C          -1.1620   -0.1809   -3.5372 C.3     1  LIG1       -0.0582
     31 C          -0.8517    3.1539    1.3601 C.3     1  LIG1       -0.0587
     32 O           0.1164    2.7007    4.3384 O.2     1  LIG1       -0.2968
     33 C          -1.4856    0.0016    4.8784 C.3     1  LIG1       -0.0528
     34 C          -2.2813   -2.0465   -1.6744 C.3     1  LIG1       -0.0553
     35 C           2.8675    0.4884   -3.5116 C.3     1  LIG1       -0.0590
     36 C           4.4549   -2.1344    0.1626 C.3     1  LIG1       -0.0622
     37 H           1.4442   -1.8196    1.8421 H       1  LIG1        0.0233
     38 H           0.6449   -2.7700    0.6236 H       1  LIG1        0.0233
     39 H           0.1528   -1.1155    0.8704 H       1  LIG1        0.0233
     40 H           2.2129   -3.4691   -2.0471 H       1  LIG1        0.0268
     41 H           3.9051   -3.6567   -1.8663 H       1  LIG1        0.0268
     42 H           3.5001   -2.1319   -3.6743 H       1  LIG1        0.0271
     43 H           4.3496   -1.2970   -2.4244 H       1  LIG1        0.0271
     44 H           1.4114   -2.2889   -3.9440 H       1  LIG1        0.0271
     45 H           0.7337   -0.7687   -4.0276 H       1  LIG1        0.0271
     46 H           0.5934   -2.6376   -1.3193 H       1  LIG1        0.0274
     47 H          -0.3961   -2.9053   -2.6444 H       1  LIG1        0.0274
     48 H          -2.7298   -2.0435    0.8528 H       1  LIG1        0.0572
     49 H          -3.2994   -1.0241    2.8763 H       1  LIG1        0.0311
     50 H          -4.1067    0.0471    1.7658 H       1  LIG1        0.0311
     51 H           0.3075    0.6298    2.0418 H       1  LIG1        0.0239
     52 H          -0.3340   -0.8920    2.7391 H       1  LIG1        0.0239
     53 H           0.8823    0.0447    3.5848 H       1  LIG1        0.0239
     54 H          -1.8516    4.2873    3.8978 H       1  LIG1        0.0342
     55 H          -2.9119    3.0556    4.5933 H       1  LIG1        0.0342
     56 H          -3.0278    4.0777    1.8262 H       1  LIG1        0.0275
     57 H          -3.9818    2.7676    2.4502 H       1  LIG1        0.0275
     58 H          -2.2305    2.9753   -1.0200 H       1  LIG1        0.0271
     59 H          -3.0411    1.5019   -1.4897 H       1  LIG1        0.0271
     60 H          -0.1141    2.3151   -1.8491 H       1  LIG1        0.0271
     61 H          -1.2892    1.9598   -3.0094 H       1  LIG1        0.0271
     62 H           1.6104    1.4557    0.0904 H       1  LIG1        0.0236
     63 H           1.8217    2.1152   -1.5327 H       1  LIG1        0.0236
     64 H           3.0873    1.1645   -0.7975 H       1  LIG1        0.0236
     65 H          -0.8661    0.5078   -4.3333 H       1  LIG1        0.0236
     66 H          -2.2540   -0.0735   -3.4039 H       1  LIG1        0.0236
     67 H          -1.1012   -1.1984   -3.9498 H       1  LIG1        0.0236
     68 H          -1.1033    3.7671    0.4781 H       1  LIG1        0.0235
     69 H           0.1456    2.7494    1.2076 H       1  LIG1        0.0235
     70 H          -0.7414    3.9369    2.1158 H       1  LIG1        0.0235
     71 H          -1.9313   -0.9681    4.6413 H       1  LIG1        0.0239
     72 H          -2.1493    0.5410    5.5584 H       1  LIG1        0.0239
     73 H          -0.5565   -0.2043    5.4255 H       1  LIG1        0.0239
     74 H          -2.1579   -2.9039   -0.9808 H       1  LIG1        0.0238
     75 H          -2.2704   -2.5193   -2.6602 H       1  LIG1        0.0238
     76 H          -3.2870   -1.6501   -1.5354 H       1  LIG1        0.0238
     77 H           3.0077    0.2166   -4.5595 H       1  LIG1        0.0235
     78 H           3.8681    0.7359   -3.1127 H       1  LIG1        0.0235
     79 H           2.2995    1.4207   -3.4810 H       1  LIG1        0.0235
     80 H           4.9809   -1.3650   -0.4071 H       1  LIG1        0.0233
     81 H           5.0434   -3.0600    0.0745 H       1  LIG1        0.0233
     82 H           4.4619   -1.8522    1.2174 H       1  LIG1        0.0233
@<TRIPOS>BOND
     1     1     2    1
     2     2     3    1
     3     2     4    1
     4     4     6    1
     5     6     7    1
     6     7     8    1
     7     8     9    1
     8     9    10    1
     9    10    11    1
    10    11    12    1
    11    12    13    2
    12    13    14    1
    13    14    15    1
    14    15    16    1
    15    15    17    1
    16    17    18    1
    17    17    19    1
    18    19    20    1
    19    20    21    1
    20    21    22    1
    21    22    23    1
    22    23    24    1
    23    12    23    1
    24    23    25    1
    25    25    26    1
    26    26    27    1
    27    27    28    1
    28     2    28    1
    29    28    29    1
    30    27    30    1
    31    15    22    1
    32    22    31    1
    33    19    32    2
    34    17    33    1
    35    27    11    1
    36    11    34    1
    37    28     8    1
    38     8    35    1
    39     4    36    1
    40     4     5    1
    41     1    37    1
    42     1    38    1
    43     1    39    1
    44     6    40    1
    45     6    41    1
    46     7    42    1
    47     7    43    1
    48     9    44    1
    49     9    45    1
    50    10    46    1
    51    10    47    1
    52    13    48    1
    53    14    49    1
    54    14    50    1
    55    18    51    1
    56    18    52    1
    57    18    53    1
    58    20    54    1
    59    20    55    1
    60    21    56    1
    61    21    57    1
    62    25    58    1
    63    25    59    1
    64    26    60    1
    65    26    61    1
    66    29    62    1
    67    29    63    1
    68    29    64    1
    69    30    65    1
    70    30    66    1
    71    30    67    1
    72    31    68    1
    73    31    69    1
    74    31    70    1
    75    33    71    1
    76    33    72    1
    77    33    73    1
    78    34    74    1
    79    34    75    1
    80    34    76    1
    81    35    77    1
    82    35    78    1
    83    35    79    1
    84    36    80    1
    85    36    81    1
    86    36    82    1
