REMARK  Name = NuBBE_442
REMARK  14 active torsions:
REMARK  status: ('A' for Active; 'I' for Inactive)
REMARK    1  A    between atoms: C_2  and  C_3
REMARK    2  A    between atoms: C_2  and  O_37
REMARK    3  A    between atoms: C_6  and  O_20
REMARK    4  A    between atoms: C_12  and  C_13
REMARK    5  A    between atoms: C_12  and  O_17
REMARK    6  A    between atoms: C_13  and  O_14
REMARK    7  A    between atoms: O_14  and  C_15
REMARK    8  A    between atoms: O_20  and  C_21
REMARK    9  A    between atoms: C_23  and  O_36
REMARK   10  A    between atoms: C_25  and  O_35
REMARK   11  A    between atoms: C_27  and  O_34
REMARK   12  A    between atoms: C_29  and  C_32
REMARK   13  A    between atoms: C_32  and  O_33
REMARK   14  A    between atoms: O_37  and  C_38
REMARK                            x       y       z     vdW  Elec       q    Type
REMARK                         _______ _______ _______ _____ _____    ______ ____
ROOT
ATOM      1  C   LIG A   1      -0.685   2.728  -1.073  0.00  0.00    +0.078 C 
ATOM      2  C   LIG A   1      -1.812   2.253  -0.533  0.00  0.00    +0.201 C 
ATOM      3  O   LIG A   1      -1.849   1.375   0.516  0.00  0.00    -0.470 OA
ATOM      4  C   LIG A   1      -0.720   0.489   0.569  0.00  0.00    +0.317 C 
ATOM      5  C   LIG A   1       0.637   1.212   0.497  0.00  0.00    +0.116 C 
ATOM      6  C   LIG A   1       0.647   2.429  -0.465  0.00  0.00    +0.064 C 
ATOM      7  C   LIG A   1       1.081   3.584   0.398  0.00  0.00    -0.019 C 
ATOM      8  C   LIG A   1       1.297   3.224   1.664  0.00  0.00    +0.015 C 
ATOM      9  C   LIG A   1       1.131   1.752   1.869  0.00  0.00    +0.190 C 
ENDROOT
BRANCH   1  11
ATOM     10  O   LIG A   1      -1.803   4.070  -2.719  0.00  0.00    -0.245 OA
ATOM     11  C   LIG A   1      -0.796   3.527  -2.318  0.00  0.00    +0.338 C 
BRANCH  11  12
ATOM     12  O   LIG A   1       0.373   3.394  -3.002  0.00  0.00    -0.465 OA
ATOM     13  C   LIG A   1       0.242   3.537  -4.413  0.00  0.00    +0.280 C 
ENDBRANCH  11  12
ENDBRANCH   1  11
BRANCH   9  14
ATOM     14  C   LIG A   1       2.513   1.145   2.239  0.00  0.00    +0.343 C 
ATOM     15  O   LIG A   1       2.757   0.592   3.304  0.00  0.00    -0.247 OA
BRANCH  14  16
ATOM     16  O   LIG A   1       3.430   1.366   1.249  0.00  0.00    -0.466 OA
ATOM     17  C   LIG A   1       4.747   0.900   1.540  0.00  0.00    +0.280 C 
ENDBRANCH  14  16
ENDBRANCH   9  14
BRANCH   9  18
ATOM     18  O   LIG A   1       0.167   1.575   2.892  0.00  0.00    -0.373 OA
ATOM     19  H   LIG A   1       0.555   1.908   3.721  0.00  0.00    +0.211 HD
ENDBRANCH   9  18
BRANCH   4  20
ATOM     20  O   LIG A   1      -0.786  -0.529  -0.465  0.00  0.00    -0.309 OA
BRANCH  20  21
ATOM     21  C   LIG A   1      -1.982  -1.322  -0.337  0.00  0.00    +0.286 C 
ATOM     22  C   LIG A   1      -2.065  -2.386  -1.466  0.00  0.00    +0.201 C 
ATOM     23  C   LIG A   1      -1.183  -3.619  -1.193  0.00  0.00    +0.179 C 
ATOM     24  C   LIG A   1      -0.388  -3.480   0.106  0.00  0.00    +0.177 C 
ATOM     25  C   LIG A   1      -1.383  -3.114   1.208  0.00  0.00    +0.178 C 
ATOM     26  O   LIG A   1      -2.094  -1.890   0.971  0.00  0.00    -0.340 OA
BRANCH  24  27
ATOM     27  O   LIG A   1       0.274  -4.716   0.391  0.00  0.00    -0.387 OA
ATOM     28  H   LIG A   1       0.797  -4.923  -0.408  0.00  0.00    +0.210 HD
ENDBRANCH  24  27
BRANCH  23  29
ATOM     29  O   LIG A   1      -0.265  -3.862  -2.272  0.00  0.00    -0.386 OA
ATOM     30  H   LIG A   1      -0.790  -4.122  -3.050  0.00  0.00    +0.210 HD
ENDBRANCH  23  29
BRANCH  22  31
ATOM     31  O   LIG A   1      -3.433  -2.829  -1.588  0.00  0.00    -0.384 OA
ATOM     32  H   LIG A   1      -3.497  -3.440  -2.342  0.00  0.00    +0.210 HD
ENDBRANCH  22  31
BRANCH  25  33
ATOM     33  C   LIG A   1      -0.714  -3.014   2.582  0.00  0.00    +0.190 C 
BRANCH  33  34
ATOM     34  O   LIG A   1      -1.688  -2.662   3.568  0.00  0.00    -0.392 OA
ATOM     35  H   LIG A   1      -2.231  -1.958   3.161  0.00  0.00    +0.209 HD
ENDBRANCH  33  34
ENDBRANCH  25  33
ENDBRANCH  20  21
ENDBRANCH   4  20
TORSDOF 12
