@<TRIPOS>MOLECULE
NuBBE_117
 47 49 0 0 0
SMALL
GASTEIGER

@<TRIPOS>ATOM
      1 O           3.6827   -2.8837    2.5820 O.2     1  LIG1       -0.2454
      2 C           2.4633   -2.9326    2.5609 C.2     1  LIG1        0.3360
      3 C           1.6586   -2.4196    1.4247 C.2     1  LIG1        0.0747
      4 C           0.3742   -2.0745    1.5943 C.2     1  LIG1        0.0981
      5 O          -0.4433   -1.5403    0.6383 O.2     1  LIG1       -0.4699
      6 C           0.2435   -0.9072   -0.4493 C.3     1  LIG1        0.2110
      7 H          -0.4947   -0.7131   -1.2311 H       1  LIG1        0.1063
      8 C           1.3729   -1.7768   -1.0245 C.3     1  LIG1        0.0605
      9 C           2.3573   -2.2382    0.0869 C.3     1  LIG1        0.0100
     10 C           2.9551   -3.5502   -0.4690 C.3     1  LIG1       -0.0261
     11 C           1.8893   -4.0478   -1.3903 C.2     1  LIG1       -0.0730
     12 C           1.0079   -3.0820   -1.6882 C.2     1  LIG1        0.0421
     13 C          -0.1328   -3.2375   -2.5983 C.2     1  LIG1        0.3330
     14 O           0.0162   -4.2849   -3.4284 O.3     1  LIG1       -0.4773
     15 O          -1.0946   -2.5052   -2.6686 O.2     1  LIG1       -0.2455
     16 H           3.1523   -1.4906    0.2118 H       1  LIG1        0.0363
     17 H           1.9279   -1.1799   -1.7630 H       1  LIG1        0.0418
     18 O           0.8072    0.3580   -0.0534 O.3     1  LIG1       -0.3093
     19 C          -0.1946    1.2733    0.4079 C.3     1  LIG1        0.1918
     20 H          -0.7018    0.8323    1.2758 H       1  LIG1        0.0939
     21 O          -1.1310    1.5034   -0.6458 O.3     1  LIG1       -0.3404
     22 C          -2.1876    2.3822   -0.2703 C.3     1  LIG1        0.1130
     23 H          -2.7007    1.9957    0.6213 H       1  LIG1        0.0647
     24 C          -1.6224    3.7785    0.0257 C.3     1  LIG1        0.1119
     25 H          -1.1527    4.2068   -0.8683 H       1  LIG1        0.0647
     26 C          -0.5799    3.6650    1.1391 C.3     1  LIG1        0.1141
     27 H          -1.0725    3.4415    2.0944 H       1  LIG1        0.0648
     28 C           0.4783    2.5989    0.8354 C.3     1  LIG1        0.1342
     29 H           1.1545    2.9494    0.0464 H       1  LIG1        0.0671
     30 O           1.2817    2.4246    2.0154 O.3     1  LIG1       -0.3841
     31 O           0.0660    4.9346    1.3372 O.3     1  LIG1       -0.3864
     32 O          -2.6290    4.6991    0.4619 O.3     1  LIG1       -0.3865
     33 C          -3.2029    2.4093   -1.4167 C.3     1  LIG1        0.0730
     34 O          -4.2978    3.2682   -1.1098 O.3     1  LIG1       -0.3924
     35 O           1.7519   -3.5085    3.5526 O.3     1  LIG1       -0.4773
     36 H          -0.1920   -2.1601    2.5118 H       1  LIG1        0.1029
     37 H           3.1839   -4.2891    0.3034 H       1  LIG1        0.0314
     38 H           3.8684   -3.3576   -1.0448 H       1  LIG1        0.0314
     39 H           1.8677   -5.0561   -1.7842 H       1  LIG1        0.0577
     40 H          -0.7718   -4.2447   -4.0081 H       1  LIG1        0.2954
     41 H           1.5518    3.3285    2.2748 H       1  LIG1        0.2101
     42 H          -0.6620    5.5899    1.3471 H       1  LIG1        0.2100
     43 H          -3.3760    4.6160   -0.1721 H       1  LIG1        0.2100
     44 H          -3.5796    1.4009   -1.6248 H       1  LIG1        0.0584
     45 H          -2.7306    2.7642   -2.3391 H       1  LIG1        0.0584
     46 H          -4.9725    2.7209   -0.6659 H       1  LIG1        0.2095
     47 H           0.8098   -3.6610    3.3649 H       1  LIG1        0.2954
@<TRIPOS>BOND
     1     1     2    2
     2     2     3    1
     3     3     4    2
     4     4     5    1
     5     5     6    1
     6     6     7    1
     7     6     8    1
     8     8     9    1
     9     9    10    1
    10    10    11    1
    11    11    12    2
    12    12    13    1
    13    13    14    1
    14    13    15    2
    15     3     9    1
    16     9    16    1
    17    12     8    1
    18     8    17    1
    19     6    18    1
    20    19    21    1
    21    21    22    1
    22    22    23    1
    23    22    24    1
    24    24    26    1
    25    26    27    1
    26    26    28    1
    27    19    28    1
    28    26    31    1
    29    22    33    1
    30    33    34    1
    31     2    35    1
    32    19    20    1
    33    19    18    1
    34    24    32    1
    35    24    25    1
    36    28    30    1
    37    28    29    1
    38     4    36    1
    39    10    37    1
    40    10    38    1
    41    11    39    1
    42    14    40    1
    43    30    41    1
    44    31    42    1
    45    32    43    1
    46    33    44    1
    47    33    45    1
    48    34    46    1
    49    35    47    1
