@<TRIPOS>MOLECULE
NuBBE_993
 67 70 0 0 0
SMALL
GASTEIGER

@<TRIPOS>ATOM
      1 C          -2.6321   -3.1393    1.5526 C.3     1  LIG1       -0.0586
      2 C          -1.1145   -2.8783    1.3901 C.3     1  LIG1       -0.0191
      3 C          -0.8879   -2.3677   -0.0651 C.3     1  LIG1       -0.0252
      4 C           0.2888   -1.3783   -0.2069 C.3     1  LIG1       -0.0338
      5 C           0.5043   -0.9519   -1.6633 C.3     1  LIG1       -0.0494
      6 C           1.5031    0.1810   -1.7295 C.3     1  LIG1       -0.0492
      7 C           0.9032    1.4731   -1.1772 C.3     1  LIG1       -0.0279
      8 C           2.0257    2.5043   -1.0282 C.3     1  LIG1       -0.0052
      9 C           1.4513    3.8630   -0.6466 C.3     1  LIG1        0.1607
     10 H           0.6859    4.1864   -1.3617 H       1  LIG1        0.0815
     11 O           2.5044    4.8329   -0.5818 O.3     1  LIG1       -0.4538
     12 C           2.8754    5.3349   -1.7952 C.2     1  LIG1        0.3046
     13 C           3.9341    6.3837   -1.6406 C.3     1  LIG1        0.0333
     14 O           2.4060    4.9996   -2.8688 O.2     1  LIG1       -0.2511
     15 C           0.0217    1.2943    0.1157 C.3     1  LIG1        0.0177
     16 C           0.4208    2.3484    1.1999 C.3     1  LIG1        0.0188
     17 C           0.7349    3.7455    0.6935 C.2     1  LIG1        0.1742
     18 O           0.4742    4.7318    1.3857 O.2     1  LIG1       -0.2935
     19 C          -1.4869    1.5168   -0.2519 C.3     1  LIG1        0.0989
     20 O          -1.7256    2.7897   -0.8932 O.3     1  LIG1       -0.4642
     21 C          -2.2865    2.7608   -2.1237 C.2     1  LIG1        0.3040
     22 C          -2.6804    4.1059   -2.6166 C.3     1  LIG1        0.0332
     23 O          -2.4933    1.7396   -2.7667 O.2     1  LIG1       -0.2512
     24 C           0.2314   -0.1541    0.7642 C.3     1  LIG1       -0.0285
     25 C          -0.6563   -0.4181    2.0037 C.3     1  LIG1       -0.0488
     26 C          -0.6340   -1.8721    2.4624 C.3     1  LIG1       -0.0464
     27 C          -0.7290   -3.6513   -0.9021 C.3     1  LIG1        0.0097
     28 C          -0.1956   -4.6625    0.0678 C.2     1  LIG1        0.1372
     29 C          -0.2671   -4.1968    1.5047 C.3     1  LIG1        0.0229
     30 H           0.7670   -3.9498    1.7803 H       1  LIG1        0.0383
     31 C          -0.8120   -5.2503    2.4807 C.3     1  LIG1       -0.0459
     32 C           0.0297   -6.5193    2.5676 C.3     1  LIG1       -0.0646
     33 O           0.2763   -5.7330   -0.2958 O.2     1  LIG1       -0.2971
     34 H          -3.2135   -2.2339    1.3443 H       1  LIG1        0.0235
     35 H          -2.8871   -3.4602    2.5676 H       1  LIG1        0.0235
     36 H          -2.9815   -3.9150    0.8607 H       1  LIG1        0.0235
     37 H          -1.7805   -1.8414   -0.4300 H       1  LIG1        0.0313
     38 H           1.1919   -1.9389    0.0807 H       1  LIG1        0.0307
     39 H          -0.4408   -0.6591   -2.1363 H       1  LIG1        0.0268
     40 H           0.9029   -1.7846   -2.2509 H       1  LIG1        0.0268
     41 H           1.8026    0.3402   -2.7731 H       1  LIG1        0.0268
     42 H           2.4138   -0.0927   -1.1825 H       1  LIG1        0.0268
     43 H           0.2611    1.8514   -1.9823 H       1  LIG1        0.0309
     44 H           2.5763    2.5838   -1.9735 H       1  LIG1        0.0308
     45 H           2.7676    2.1735   -0.2890 H       1  LIG1        0.0308
     46 H           3.4726    7.3175   -1.3146 H       1  LIG1        0.0342
     47 H           4.4224    6.5405   -2.6076 H       1  LIG1        0.0342
     48 H           4.6971    6.0593   -0.9295 H       1  LIG1        0.0342
     49 H           1.3279    2.0210    1.7253 H       1  LIG1        0.0349
     50 H          -0.3671    2.4356    1.9579 H       1  LIG1        0.0349
     51 H          -1.8527    0.6824   -0.8590 H       1  LIG1        0.0703
     52 H          -2.1070    1.5328    0.6492 H       1  LIG1        0.0703
     53 H          -2.3752    4.2130   -3.6664 H       1  LIG1        0.0342
     54 H          -2.2000    4.9002   -2.0452 H       1  LIG1        0.0342
     55 H          -3.7709    4.2186   -2.5478 H       1  LIG1        0.0342
     56 H           1.2588   -0.1161    1.1629 H       1  LIG1        0.0310
     57 H          -1.6956   -0.1274    1.8360 H       1  LIG1        0.0268
     58 H          -0.2899    0.1996    2.8343 H       1  LIG1        0.0268
     59 H          -1.2438   -1.9691    3.3700 H       1  LIG1        0.0271
     60 H           0.3916   -2.0994    2.7777 H       1  LIG1        0.0271
     61 H          -0.0339   -3.5651   -1.7375 H       1  LIG1        0.0345
     62 H          -1.6947   -4.0124   -1.2664 H       1  LIG1        0.0345
     63 H          -0.8666   -4.8089    3.4837 H       1  LIG1        0.0269
     64 H          -1.8273   -5.5538    2.2036 H       1  LIG1        0.0269
     65 H           1.0827   -6.2918    2.7553 H       1  LIG1        0.0230
     66 H          -0.0427   -7.1101    1.6500 H       1  LIG1        0.0230
     67 H          -0.3354   -7.1583    3.3783 H       1  LIG1        0.0230
@<TRIPOS>BOND
     1     2     3    1
     2     3     4    1
     3     4     5    1
     4     5     6    1
     5     6     7    1
     6     7     8    1
     7     8     9    1
     8    11    12    1
     9    12    13    1
    10    12    14    2
    11     7    15    1
    12    15    16    1
    13    16    17    1
    14     9    17    1
    15    19    20    1
    16    20    21    1
    17    21    22    1
    18    21    23    2
    19     4    24    1
    20    15    24    1
    21    24    25    1
    22    25    26    1
    23     2    26    1
    24     3    27    1
    25    27    28    1
    26    28    29    1
    27     2    29    1
    28    31    32    1
    29     1     2    1
    30     9    10    1
    31     9    11    1
    32    15    19    1
    33    17    18    2
    34    28    33    2
    35    29    30    1
    36    29    31    1
    37     1    34    1
    38     1    35    1
    39     1    36    1
    40     3    37    1
    41     4    38    1
    42     5    39    1
    43     5    40    1
    44     6    41    1
    45     6    42    1
    46     7    43    1
    47     8    44    1
    48     8    45    1
    49    13    46    1
    50    13    47    1
    51    13    48    1
    52    16    49    1
    53    16    50    1
    54    19    51    1
    55    19    52    1
    56    22    53    1
    57    22    54    1
    58    22    55    1
    59    24    56    1
    60    25    57    1
    61    25    58    1
    62    26    59    1
    63    26    60    1
    64    27    61    1
    65    27    62    1
    66    31    63    1
    67    31    64    1
    68    32    65    1
    69    32    66    1
    70    32    67    1
