@<TRIPOS>MOLECULE
NuBBE_1799
 69 69 0 0 0
SMALL
GASTEIGER

@<TRIPOS>ATOM
      1 O          -3.6210    1.3702    3.0439 O.2     1  LIG1       -0.2505
      2 C          -2.4085    1.2187    2.7132 C.2     1  LIG1        0.3107
      3 O          -1.7115    1.9892    1.7938 O.3     1  LIG1       -0.4611
      4 C          -1.4976    0.1413    3.1849 C.3     1  LIG1        0.0622
      5 C          -1.8534   -1.3230    2.8085 C.3     1  LIG1       -0.0114
      6 C          -1.7977   -1.7982    1.3290 C.3     1  LIG1        0.0830
      7 O          -2.0429   -3.2271    1.2191 O.3     1  LIG1       -0.3716
      8 C          -1.0818   -4.1358    1.7794 C.3     1  LIG1        0.0535
      9 C          -1.5394   -5.5778    1.5076 C.3     1  LIG1       -0.0389
     10 C           0.3331   -3.9378    1.2325 C.3     1  LIG1       -0.0389
     11 C          -2.8605   -1.1132    0.4014 C.3     1  LIG1        0.0742
     12 O          -2.5490    0.2495    0.2072 O.3     1  LIG1       -0.3746
     13 C          -3.4489    1.1922   -0.3668 C.3     1  LIG1        0.0532
     14 C          -3.4233    1.0613   -1.8734 C.3     1  LIG1       -0.0390
     15 C          -4.8138    1.2816    0.3071 C.3     1  LIG1       -0.0390
     16 C          -0.1200    0.6775    2.7420 C.3     1  LIG1       -0.0027
     17 C          -0.4530    1.3438    1.4432 C.3     1  LIG1        0.1038
     18 C           0.4349    2.3539    0.7165 C.3     1  LIG1       -0.0156
     19 C           1.8829    1.9350    0.5081 C.3     1  LIG1       -0.0497
     20 C           2.7325    3.0118   -0.1923 C.3     1  LIG1       -0.0529
     21 C           2.3038    3.5058   -1.5825 C.3     1  LIG1       -0.0531
     22 C           2.3201    2.5227   -2.7602 C.3     1  LIG1       -0.0530
     23 C           3.6890    1.9986   -3.2214 C.3     1  LIG1       -0.0528
     24 C           4.4567    1.0622   -2.2796 C.3     1  LIG1       -0.0496
     25 C           3.7218   -0.2170   -1.8694 C.3     1  LIG1       -0.0350
     26 C           3.3862   -1.1194   -3.0147 C.2     1  LIG1       -0.0911
     27 C           2.7180   -2.2707   -2.8740 C.2     1  LIG1       -0.1026
     28 H          -1.5465    0.2074    4.2871 H       1  LIG1        0.0415
     29 H          -2.8478   -1.5715    3.2054 H       1  LIG1        0.0299
     30 H          -1.1652   -1.9467    3.3882 H       1  LIG1        0.0299
     31 H          -0.7975   -1.5864    0.9422 H       1  LIG1        0.0619
     32 H          -1.0761   -4.0118    2.8668 H       1  LIG1        0.0590
     33 H          -0.7067   -6.2893    1.5722 H       1  LIG1        0.0254
     34 H          -2.0148   -5.6851    0.5273 H       1  LIG1        0.0254
     35 H          -2.2713   -5.8940    2.2598 H       1  LIG1        0.0254
     36 H           0.3632   -3.3097    0.3393 H       1  LIG1        0.0254
     37 H           0.8244   -4.8860    0.9871 H       1  LIG1        0.0254
     38 H           0.9526   -3.4668    2.0041 H       1  LIG1        0.0254
     39 H          -3.8461   -1.2350    0.8509 H       1  LIG1        0.0586
     40 H          -2.8601   -1.6128   -0.5723 H       1  LIG1        0.0586
     41 H          -3.0029    2.1826   -0.1874 H       1  LIG1        0.0590
     42 H          -4.3650    1.3647   -2.3310 H       1  LIG1        0.0254
     43 H          -3.1461    0.0542   -2.1888 H       1  LIG1        0.0254
     44 H          -2.6384    1.7250   -2.2650 H       1  LIG1        0.0254
     45 H          -5.1657    0.3295    0.7029 H       1  LIG1        0.0254
     46 H          -5.5738    1.7125   -0.3459 H       1  LIG1        0.0254
     47 H          -4.7535    1.9685    1.1622 H       1  LIG1        0.0254
     48 H           0.6498   -0.0972    2.6711 H       1  LIG1        0.0309
     49 H           0.1995    1.4466    3.4556 H       1  LIG1        0.0309
     50 H          -0.5715    0.5546    0.7038 H       1  LIG1        0.0734
     51 H           0.3756    3.3325    1.1949 H       1  LIG1        0.0301
     52 H          -0.0160    2.4838   -0.2811 H       1  LIG1        0.0301
     53 H           1.8970    0.9978   -0.0428 H       1  LIG1        0.0266
     54 H           2.3502    1.7167    1.4753 H       1  LIG1        0.0266
     55 H           3.7678    2.6794   -0.2200 H       1  LIG1        0.0265
     56 H           2.7638    3.8893    0.4651 H       1  LIG1        0.0265
     57 H           2.9430    4.3585   -1.8512 H       1  LIG1        0.0265
     58 H           1.2919    3.9239   -1.5070 H       1  LIG1        0.0265
     59 H           1.9099    3.0747   -3.6216 H       1  LIG1        0.0265
     60 H           1.6184    1.7013   -2.5875 H       1  LIG1        0.0265
     61 H           4.3349    2.8518   -3.4652 H       1  LIG1        0.0265
     62 H           3.5362    1.4768   -4.1755 H       1  LIG1        0.0265
     63 H           4.7666    1.6013   -1.3845 H       1  LIG1        0.0268
     64 H           5.4060    0.7884   -2.7567 H       1  LIG1        0.0268
     65 H           2.7854    0.0311   -1.3793 H       1  LIG1        0.0307
     66 H           4.3374   -0.7520   -1.1353 H       1  LIG1        0.0307
     67 H           3.6651   -0.7995   -4.0141 H       1  LIG1        0.0566
     68 H           2.3936   -2.6372   -1.9046 H       1  LIG1        0.0532
     69 H           2.4756   -2.8670   -3.7475 H       1  LIG1        0.0532
@<TRIPOS>BOND
     1     1     2    2
     2     2     3    1
     3     2     4    1
     4     4     5    1
     5     5     6    1
     6     6     7    1
     7     7     8    1
     8     8     9    1
     9     8    10    1
    10     6    11    1
    11    11    12    1
    12    12    13    1
    13    13    14    1
    14    13    15    1
    15     4    16    1
    16    16    17    1
    17     3    17    1
    18    17    18    1
    19    18    19    1
    20    19    20    1
    21    20    21    1
    22    21    22    1
    23    22    23    1
    24    23    24    1
    25    24    25    1
    26    25    26    1
    27    26    27    2
    28     4    28    1
    29     5    29    1
    30     5    30    1
    31     6    31    1
    32     8    32    1
    33     9    33    1
    34     9    34    1
    35     9    35    1
    36    10    36    1
    37    10    37    1
    38    10    38    1
    39    11    39    1
    40    11    40    1
    41    13    41    1
    42    14    42    1
    43    14    43    1
    44    14    44    1
    45    15    45    1
    46    15    46    1
    47    15    47    1
    48    16    48    1
    49    16    49    1
    50    17    50    1
    51    18    51    1
    52    18    52    1
    53    19    53    1
    54    19    54    1
    55    20    55    1
    56    20    56    1
    57    21    57    1
    58    21    58    1
    59    22    59    1
    60    22    60    1
    61    23    61    1
    62    23    62    1
    63    24    63    1
    64    24    64    1
    65    25    65    1
    66    25    66    1
    67    26    67    1
    68    27    68    1
    69    27    69    1
