REMARK  Name = NuBBE_1288
REMARK  18 active torsions:
REMARK  status: ('A' for Active; 'I' for Inactive)
REMARK    1  A    between atoms: C_1  and  C_2
REMARK    2  A    between atoms: C_2  and  C_41
REMARK    3  A    between atoms: C_8  and  O_9
REMARK    4  A    between atoms: C_8  and  C_10
REMARK    5  A    between atoms: C_10  and  O_11
REMARK    6  A    between atoms: O_11  and  C_12
REMARK    7  A    between atoms: C_20  and  C_34
REMARK    8  A    between atoms: C_21  and  O_23
REMARK    9  A    between atoms: O_23  and  C_24
REMARK   10  A    between atoms: C_24  and  C_25
REMARK   11  A    between atoms: C_25  and  C_26
REMARK   12  A    between atoms: C_27  and  C_28
REMARK   13  A    between atoms: C_31  and  O_33
REMARK   14  A    between atoms: C_34  and  O_35
REMARK   15  A    between atoms: O_35  and  C_36
REMARK   16  A    between atoms: C_38  and  O_40
REMARK   17  A    between atoms: C_42  and  C_43
REMARK   18  A    between atoms: C_52  and  O_56
REMARK                            x       y       z     vdW  Elec       q    Type
REMARK                         _______ _______ _______ _____ _____    ______ ____
ROOT
ATOM      1  C   LIG A   1       0.092  -1.913   3.451  0.00  0.00    +0.017 C 
ATOM      2  C   LIG A   1      -0.049  -1.147   2.114  0.00  0.00    +0.039 C 
ATOM      3  C   LIG A   1       0.834   0.244   2.128  0.00  0.00    +0.082 C 
ATOM      4  C   LIG A   1       0.615   1.238   0.894  0.00  0.00    +0.036 C 
ATOM      5  C   LIG A   1       1.788   0.764   0.001  0.00  0.00    +0.174 C 
ATOM      6  O   LIG A   1       2.806   0.213   0.861  0.00  0.00    -0.339 OA
ATOM      7  C   LIG A   1       2.357   0.170   2.215  0.00  0.00    +0.272 C 
ATOM      8  C   LIG A   1      -0.822   1.128   0.290  0.00  0.00    +0.054 C 
ATOM      9  C   LIG A   1      -1.808   0.061   0.758  0.00  0.00    +0.152 C 
ATOM     10  O   LIG A   1      -3.127   0.656   0.782  0.00  0.00    -0.372 OA
ATOM     11  C   LIG A   1      -3.053   1.813  -0.070  0.00  0.00    +0.182 C 
ATOM     12  C   LIG A   1      -1.704   2.408   0.308  0.00  0.00    +0.133 C 
ATOM     13  C   LIG A   1      -1.048   3.426  -0.612  0.00  0.00    +0.199 C 
ATOM     14  C   LIG A   1       0.418   3.653  -0.158  0.00  0.00    +0.077 C 
ATOM     15  C   LIG A   1       0.933   2.801   1.051  0.00  0.00    +0.127 C 
ATOM     16  C   LIG A   1      -1.507  -0.563   2.103  0.00  0.00    +0.153 C 
ENDROOT
BRANCH   2  17
ATOM     17  C   LIG A   1       0.135  -2.211   0.951  0.00  0.00    +0.133 C 
ATOM     18  C   LIG A   1       1.428  -3.057   0.500  0.00  0.00    +0.105 C 
ATOM     19  C   LIG A   1       2.876  -3.039   0.793  0.00  0.00    +0.045 C 
ATOM     20  C   LIG A   1       0.924  -4.330  -0.152  0.00  0.00    +0.068 C 
ATOM     21  C   LIG A   1      -0.393  -4.548   0.623  0.00  0.00    +0.044 C 
ATOM     22  C   LIG A   1      -1.036  -3.158   0.493  0.00  0.00    +0.158 C 
ATOM     23  O   LIG A   1      -1.484  -2.983  -0.906  0.00  0.00    -0.333 OA
ATOM     24  C   LIG A   1      -0.413  -3.027  -1.856  0.00  0.00    +0.343 C 
ATOM     25  C   LIG A   1       0.538  -4.227  -1.629  0.00  0.00    +0.154 C 
ATOM     26  C   LIG A   1       1.418  -3.982  -2.796  0.00  0.00    +0.051 C 
ATOM     27  C   LIG A   1       0.638  -3.394  -3.714  0.00  0.00    +0.189 C 
ATOM     28  O   LIG A   1      -0.676  -3.091  -3.285  0.00  0.00    -0.468 OA
ATOM     29  O   LIG A   1       1.025  -1.828  -0.057  0.00  0.00    -0.358 OA
BRANCH  25  30
ATOM     30  O   LIG A   1      -0.090  -5.497  -1.950  0.00  0.00    -0.378 OA
ATOM     31  H   LIG A   1      -0.771  -5.299  -2.623  0.00  0.00    +0.211 HD
ENDBRANCH  25  30
ENDBRANCH   2  17
BRANCH   7  32
ATOM     32  O   LIG A   1       2.805   1.387   2.850  0.00  0.00    -0.356 OA
ATOM     33  H   LIG A   1       3.142   1.918   2.104  0.00  0.00    +0.213 HD
ENDBRANCH   7  32
BRANCH   7  34
ATOM     34  C   LIG A   1       3.083  -0.823   3.175  0.00  0.00    +0.367 C 
ATOM     35  O   LIG A   1       2.774  -1.075   4.339  0.00  0.00    -0.245 OA
BRANCH  34  36
ATOM     36  O   LIG A   1       4.246  -1.242   2.591  0.00  0.00    -0.464 OA
ATOM     37  C   LIG A   1       5.235  -1.802   3.450  0.00  0.00    +0.280 C 
ENDBRANCH  34  36
ENDBRANCH   7  34
BRANCH  15  38
ATOM     38  O   LIG A   1       2.340   3.103   1.145  0.00  0.00    -0.391 OA
ATOM     39  H   LIG A   1       2.434   4.064   1.281  0.00  0.00    +0.210 HD
ENDBRANCH  15  38
BRANCH  12  40
ATOM     40  C   LIG A   1      -2.011   3.063   1.663  0.00  0.00    +0.319 C 
ATOM     41  O   LIG A   1      -1.553   2.687   2.741  0.00  0.00    -0.250 OA
BRANCH  40  42
ATOM     42  O   LIG A   1      -2.896   4.091   1.530  0.00  0.00    -0.467 OA
ATOM     43  C   LIG A   1      -3.518   4.522   2.747  0.00  0.00    +0.280 C 
ENDBRANCH  40  42
ENDBRANCH  12  40
BRANCH  16  44
ATOM     44  O   LIG A   1      -2.528  -1.512   2.420  0.00  0.00    -0.389 OA
ATOM     45  H   LIG A   1      -3.374  -1.069   2.202  0.00  0.00    +0.210 HD
ENDBRANCH  16  44
BRANCH  13  46
ATOM     46  O   LIG A   1      -0.991   2.941  -1.984  0.00  0.00    -0.457 OA
BRANCH  46  47
ATOM     47  C   LIG A   1      -2.069   3.172  -2.789  0.00  0.00    +0.335 C 
ATOM     48  O   LIG A   1      -3.101   3.711  -2.428  0.00  0.00    -0.245 OA
BRANCH  47  49
ATOM     49  C   LIG A   1      -1.817   2.687  -4.188  0.00  0.00    +0.029 C 
ATOM     50  C   LIG A   1      -2.782   3.249  -5.192  0.00  0.00    +0.051 C 
ATOM     51  C   LIG A   1      -0.813   1.829  -4.482  0.00  0.00    -0.020 C 
ATOM     52  C   LIG A   1      -0.387   1.385  -5.850  0.00  0.00    +0.035 C 
ENDBRANCH  47  49
ENDBRANCH  46  47
ENDBRANCH  13  46
TORSDOF 12
