@<TRIPOS>MOLECULE
NuBBE_2092
 45 46 0 0 0
SMALL
GASTEIGER

@<TRIPOS>ATOM
      1 C          -1.2755   -4.0714   -0.1271 C.3     1  LIG1        0.0333
      2 C          -1.9427   -2.9672   -0.8701 C.2     1  LIG1        0.3045
      3 O          -1.3005   -2.0595   -1.3888 O.2     1  LIG1       -0.2511
      4 O          -3.2903   -3.1258   -0.9202 O.3     1  LIG1       -0.4572
      5 C          -4.1474   -2.1872   -1.6505 C.3     1  LIG1        0.1233
      6 C          -3.8242   -2.2085   -3.1522 C.3     1  LIG1       -0.0236
      7 C          -5.5782   -2.7466   -1.4788 C.3     1  LIG1       -0.0236
      8 C          -4.1212   -0.7474   -1.0471 C.3     1  LIG1        0.0513
      9 N          -2.8267   -0.1003   -1.0942 N.am    1  LIG1       -0.3080
     10 C          -2.5533    1.1150   -0.5278 C.2     1  LIG1        0.2370
     11 O          -3.3585    1.8485   -0.0098 O.2     1  LIG1       -0.2708
     12 C          -1.0956    1.3945   -0.5590 C.2     1  LIG1        0.0001
     13 C          -0.4519    1.6109    0.5930 C.2     1  LIG1       -0.0568
     14 C           0.9870    1.7375    0.6632 C.2     1  LIG1       -0.0610
     15 C           1.6153    2.3928    1.6516 C.2     1  LIG1       -0.0545
     16 C           3.0787    2.4335    1.8209 C.ar    1  LIG1       -0.0213
     17 C           3.5987    2.6797    3.1135 C.ar    1  LIG1       -0.0509
     18 C           4.9781    2.6731    3.3564 C.ar    1  LIG1       -0.0156
     19 C           5.8137    2.4296    2.2902 C.ar    1  LIG1        0.1663
     20 O           7.1707    2.3651    2.3369 O.3     1  LIG1       -0.4526
     21 C           7.4770    2.0945    0.9528 C.3     1  LIG1        0.2332
     22 O           6.3078    1.9952    0.1145 O.3     1  LIG1       -0.4526
     23 C           5.3226    2.2180    1.0254 C.ar    1  LIG1        0.1668
     24 C           3.9697    2.2263    0.7562 C.ar    1  LIG1       -0.0090
     25 H          -0.2404   -3.7720    0.0722 H       1  LIG1        0.0342
     26 H          -1.2723   -4.9644   -0.7539 H       1  LIG1        0.0342
     27 H          -1.7659   -4.2501    0.8316 H       1  LIG1        0.0342
     28 H          -3.9530   -3.2177   -3.5627 H       1  LIG1        0.0268
     29 H          -2.7895   -1.9254   -3.3593 H       1  LIG1        0.0268
     30 H          -4.4793   -1.5307   -3.7105 H       1  LIG1        0.0268
     31 H          -5.6861   -3.7185   -1.9769 H       1  LIG1        0.0268
     32 H          -6.3343   -2.0714   -1.8952 H       1  LIG1        0.0268
     33 H          -5.8109   -2.9199   -0.4219 H       1  LIG1        0.0268
     34 H          -4.4392   -0.7755    0.0022 H       1  LIG1        0.0501
     35 H          -4.8139   -0.0967   -1.5902 H       1  LIG1        0.0501
     36 H          -2.0183   -0.6769   -1.3045 H       1  LIG1        0.1491
     37 H          -0.6042    1.3512   -1.5207 H       1  LIG1        0.0669
     38 H          -1.0031    1.6266    1.5312 H       1  LIG1        0.0619
     39 H           1.5501    1.2119   -0.1049 H       1  LIG1        0.0618
     40 H           1.0333    2.9126    2.4104 H       1  LIG1        0.0623
     41 H           2.9244    2.8575    3.9496 H       1  LIG1        0.0625
     42 H           5.3745    2.8421    4.3511 H       1  LIG1        0.0655
     43 H           8.0322    1.1512    0.8930 H       1  LIG1        0.1166
     44 H           8.1119    2.9016    0.5703 H       1  LIG1        0.1166
     45 H           3.6308    2.0640   -0.2600 H       1  LIG1        0.0661
@<TRIPOS>BOND
     1     1     2    1
     2     2     3    2
     3     2     4    1
     4     4     5    1
     5     5     6    1
     6     5     7    1
     7     5     8    1
     8     8     9    1
     9     9    10   am
    10    10    11    2
    11    10    12    1
    12    12    13    2
    13    13    14    1
    14    14    15    2
    15    15    16    1
    16    16    17   ar
    17    17    18   ar
    18    18    19   ar
    19    19    20    1
    20    20    21    1
    21    21    22    1
    22    22    23    1
    23    19    23   ar
    24    23    24   ar
    25    16    24   ar
    26     1    25    1
    27     1    26    1
    28     1    27    1
    29     6    28    1
    30     6    29    1
    31     6    30    1
    32     7    31    1
    33     7    32    1
    34     7    33    1
    35     8    34    1
    36     8    35    1
    37     9    36    1
    38    12    37    1
    39    13    38    1
    40    14    39    1
    41    15    40    1
    42    17    41    1
    43    18    42    1
    44    21    43    1
    45    21    44    1
    46    24    45    1
