REMARK  Name = NuBBE_1241
REMARK  4 active torsions:
REMARK  status: ('A' for Active; 'I' for Inactive)
REMARK    1  A    between atoms: C_9  and  C_11
REMARK    2  A    between atoms: C_11  and  C_12
REMARK    3  A    between atoms: C_11  and  O_13
REMARK    4  A    between atoms: C_11  and  C_14
REMARK                            x       y       z     vdW  Elec       q    Type
REMARK                         _______ _______ _______ _____ _____    ______ ____
ROOT
ATOM      1  O   LIG A   1      -6.325   0.815   0.229  0.00  0.00    -0.245 OA
ATOM      2  C   LIG A   1      -5.126   1.045   0.121  0.00  0.00    +0.337 A 
ATOM      3  O   LIG A   1      -4.173   0.037   0.120  0.00  0.00    -0.422 OA
ATOM      4  C   LIG A   1      -2.799   0.328  -0.010  0.00  0.00    +0.142 A 
ATOM      5  C   LIG A   1      -1.918  -0.752   0.000  0.00  0.00    +0.092 A 
ATOM      6  C   LIG A   1      -0.578  -0.464  -0.137  0.00  0.00    +0.128 A 
ATOM      7  C   LIG A   1      -0.114   0.838  -0.266  0.00  0.00    -0.001 A 
ATOM      8  C   LIG A   1       1.368   0.828  -0.322  0.00  0.00    +0.086 C 
ATOM      9  C   LIG A   1       1.594  -0.675  -0.574  0.00  0.00    +0.209 C 
ATOM     10  O   LIG A   1       0.415  -1.407  -0.139  0.00  0.00    -0.485 OA
ATOM     11  C   LIG A   1      -0.987   1.915  -0.265  0.00  0.00    +0.018 A 
ATOM     12  C   LIG A   1      -2.356   1.654  -0.142  0.00  0.00    +0.018 A 
ATOM     13  C   LIG A   1      -3.340   2.725  -0.138  0.00  0.00    +0.018 A 
ATOM     14  C   LIG A   1      -4.637   2.428  -0.014  0.00  0.00    +0.092 A 
ENDROOT
BRANCH   9  15
ATOM     15  C   LIG A   1       2.876  -1.254   0.073  0.00  0.00    +0.097 C 
ATOM     16  C   LIG A   1       3.094  -2.705  -0.379  0.00  0.00    +0.045 C 
ATOM     17  C   LIG A   1       2.837  -1.219   1.605  0.00  0.00    +0.045 C 
BRANCH  15  18
ATOM     18  O   LIG A   1       4.009  -0.479  -0.344  0.00  0.00    -0.386 OA
ATOM     19  H   LIG A   1       4.211  -0.707  -1.268  0.00  0.00    +0.210 HD
ENDBRANCH  15  18
ENDBRANCH   9  15
TORSDOF 2
