@<TRIPOS>MOLECULE
NuBBE_1282
 38 40 0 0 0
SMALL
GASTEIGER

@<TRIPOS>ATOM
      1 O           1.8370    4.0259   -3.8276 O.2     1  LIG1       -0.2452
      2 C           1.3014    3.1064   -3.2440 C.ar    1  LIG1        0.3372
      3 O           1.2726    1.8100   -3.7429 O.2     1  LIG1       -0.4219
      4 C           0.6319    0.7548   -3.0558 C.ar    1  LIG1        0.1461
      5 C           0.6788   -0.4816   -3.6928 C.ar    1  LIG1        0.0245
      6 C           0.0349   -1.5202   -3.0356 C.ar    1  LIG1        0.1418
      7 C          -0.6153   -1.4089   -1.8065 C.ar    1  LIG1        0.0625
      8 C          -0.6115   -0.1408   -1.1564 C.ar    1  LIG1        0.1420
      9 O          -1.2016    0.1334    0.0793 O.3     1  LIG1       -0.4879
     10 C          -1.2452   -0.9628    0.9957 C.3     1  LIG1        0.1181
     11 C          -1.1887   -0.5311    2.4707 C.3     1  LIG1        0.1171
     12 H          -2.0499    0.1077    2.7045 H       1  LIG1        0.0656
     13 C           0.1141    0.1910    2.9172 C.3     1  LIG1        0.0894
     14 O          -0.0304    0.4681    4.3251 O.3     1  LIG1       -0.3865
     15 C           1.3573   -0.6922    2.7688 C.3     1  LIG1       -0.0338
     16 C           0.3258    1.5212    2.2048 C.3     1  LIG1       -0.0338
     17 O          -1.3452   -1.7242    3.2688 O.3     1  LIG1       -0.3856
     18 C          -0.0016    0.9577   -1.8245 C.ar    1  LIG1        0.0600
     19 C           0.0168    2.3242   -1.2942 C.ar    1  LIG1       -0.0408
     20 C           0.6301    3.3112   -1.9502 C.ar    1  LIG1        0.0237
     21 C          -1.1350   -2.7191   -1.5643 C.ar    1  LIG1       -0.0126
     22 C          -0.7559   -3.5104   -2.6227 C.ar    1  LIG1        0.0933
     23 O          -0.0443   -2.7884   -3.5184 O.2     1  LIG1       -0.4627
     24 H           1.1664   -0.6258   -4.6476 H       1  LIG1        0.0692
     25 H          -0.4261   -1.6691    0.8260 H       1  LIG1        0.0724
     26 H          -2.1890   -1.4987    0.8384 H       1  LIG1        0.0724
     27 H           0.7768    0.9304    4.6166 H       1  LIG1        0.2102
     28 H           1.2822   -1.5870    3.3960 H       1  LIG1        0.0258
     29 H           2.2520   -0.1574    3.1072 H       1  LIG1        0.0258
     30 H           1.5231   -1.0002    1.7328 H       1  LIG1        0.0258
     31 H          -0.5645    2.1562    2.2759 H       1  LIG1        0.0258
     32 H           0.5773    1.3589    1.1595 H       1  LIG1        0.0258
     33 H           1.1548    2.0876    2.6411 H       1  LIG1        0.0258
     34 H          -1.0807   -1.4629    4.1741 H       1  LIG1        0.2100
     35 H          -0.4861    2.5297   -0.3557 H       1  LIG1        0.0628
     36 H           0.6606    4.3241   -1.5656 H       1  LIG1        0.0689
     37 H          -1.7151   -3.0671   -0.7225 H       1  LIG1        0.0656
     38 H          -0.9082   -4.5507   -2.8755 H       1  LIG1        0.1030
@<TRIPOS>BOND
     1     1     2    2
     2     2     3   ar
     3     3     4   ar
     4     4     5   ar
     5     5     6   ar
     6     6     7   ar
     7     7     8   ar
     8     8     9    1
     9     9    10    1
    10    11    13    1
    11    13    14    1
    12    13    15    1
    13    13    16    1
    14    11    17    1
    15     8    18   ar
    16     4    18   ar
    17    18    19   ar
    18    19    20   ar
    19     2    20   ar
    20     7    21   ar
    21    21    22   ar
    22    22    23   ar
    23     6    23   ar
    24    11    12    1
    25    11    10    1
    26     5    24    1
    27    10    25    1
    28    10    26    1
    29    14    27    1
    30    15    28    1
    31    15    29    1
    32    15    30    1
    33    16    31    1
    34    16    32    1
    35    16    33    1
    36    17    34    1
    37    19    35    1
    38    20    36    1
    39    21    37    1
    40    22    38    1
