REMARK  Name = NuBBE_1371
REMARK  6 active torsions:
REMARK  status: ('A' for Active; 'I' for Inactive)
REMARK    1  A    between atoms: C_2  and  O_3
REMARK    2  A    between atoms: C_2  and  C_6
REMARK    3  A    between atoms: O_3  and  C_4
REMARK    4  A    between atoms: C_4  and  C_5
REMARK    5  A    between atoms: C_6  and  C_7
REMARK    6  A    between atoms: C_7  and  O_8
REMARK                            x       y       z     vdW  Elec       q    Type
REMARK                         _______ _______ _______ _____ _____    ______ ____
ROOT
ATOM      1  C   LIG A   1       0.157   0.558   1.195  0.00  0.00    +0.164 C 
ATOM      2  C   LIG A   1       0.684   1.855   0.590  0.00  0.00    -0.000 A 
ATOM      3  C   LIG A   1       0.373   3.087   1.207  0.00  0.00    +0.007 A 
ATOM      4  C   LIG A   1       0.785   4.293   0.652  0.00  0.00    +0.000 A 
ATOM      5  C   LIG A   1       1.524   4.288  -0.521  0.00  0.00    +0.001 A 
ATOM      6  C   LIG A   1       1.852   3.075  -1.135  0.00  0.00    +0.009 A 
ATOM      7  C   LIG A   1       1.430   1.836  -0.610  0.00  0.00    -0.011 A 
ATOM      8  C   LIG A   1       1.746   0.543  -1.265  0.00  0.00    -0.007 A 
ATOM      9  C   LIG A   1       2.238   0.451  -2.580  0.00  0.00    +0.009 A 
ATOM     10  C   LIG A   1       2.523  -0.785  -3.176  0.00  0.00    +0.001 A 
ATOM     11  C   LIG A   1       2.334  -1.965  -2.468  0.00  0.00    +0.001 A 
ATOM     12  C   LIG A   1       1.855  -1.911  -1.165  0.00  0.00    +0.012 A 
ATOM     13  C   LIG A   1       1.554  -0.671  -0.581  0.00  0.00    +0.028 A 
ATOM     14  C   LIG A   1       0.987  -0.660   0.783  0.00  0.00    +0.200 C 
ATOM     15  O   LIG A   1       1.110  -1.642   1.516  0.00  0.00    -0.289 OA
ENDROOT
BRANCH   1  16
ATOM     16  O   LIG A   1       0.245   0.680   2.620  0.00  0.00    -0.375 OA
ATOM     17  H   LIG A   1       0.200  -0.232   2.978  0.00  0.00    +0.211 HD
ENDBRANCH   1  16
BRANCH   1  18
ATOM     18  C   LIG A   1      -1.304   0.355   0.766  0.00  0.00    +0.168 C 
BRANCH  18  20
ATOM     19  O   LIG A   1      -1.992  -1.165   2.513  0.00  0.00    -0.251 OA
ATOM     20  C   LIG A   1      -1.875  -0.926   1.322  0.00  0.00    +0.311 C 
BRANCH  20  21
ATOM     21  O   LIG A   1      -2.226  -1.767   0.308  0.00  0.00    -0.465 OA
BRANCH  21  22
ATOM     22  C   LIG A   1      -2.690  -3.064   0.716  0.00  0.00    +0.228 C 
ATOM     23  C   LIG A   1      -4.151  -3.013   1.128  0.00  0.00    +0.048 C 
ENDBRANCH  21  22
ENDBRANCH  20  21
ENDBRANCH  18  20
ENDBRANCH   1  18
TORSDOF 5
