@<TRIPOS>MOLECULE
NuBBE_1462
 70 74 0 0 0
SMALL
GASTEIGER

@<TRIPOS>ATOM
      1 O           1.2594   -4.1570    3.8921 O.2     1  LIG1       -0.2920
      2 C           1.1809   -3.5786    2.8089 C.2     1  LIG1        0.1651
      3 C           2.4147   -3.2506    1.9554 C.3     1  LIG1        0.0320
      4 C           2.6104   -4.4765    1.0339 C.3     1  LIG1       -0.0525
      5 C           2.1945   -1.8960    1.1430 C.3     1  LIG1       -0.0027
      6 H           2.9656   -1.8934    0.3548 H       1  LIG1        0.0328
      7 C           0.7991   -1.8459    0.3871 C.3     1  LIG1        0.0546
      8 C           0.1386   -0.5222    0.0264 C.2     1  LIG1       -0.0097
      9 C          -1.3210   -0.5821    0.4385 C.3     1  LIG1        0.1518
     10 O          -1.5514   -1.9533    0.8577 O.2     1  LIG1       -0.4805
     11 C          -0.3024   -2.4674    1.1997 C.2     1  LIG1        0.1130
     12 C          -0.1634   -3.2400    2.2809 C.2     1  LIG1        0.0198
     13 C          -1.6843    0.3044    1.6385 C.3     1  LIG1       -0.0169
     14 C           0.5807    0.4243   -0.8191 C.2     1  LIG1       -0.0388
     15 C          -0.3312    1.4851   -1.4071 C.3     1  LIG1        0.1345
     16 H           0.0384    1.6423   -2.4215 H       1  LIG1        0.0789
     17 C          -1.8706    1.0934   -1.5173 C.3     1  LIG1        0.0752
     18 C          -2.1801   -0.2339   -0.7809 C.2     1  LIG1       -0.0024
     19 C          -3.1102   -1.0752   -1.2691 C.2     1  LIG1        0.0266
     20 C          -3.9246   -0.7712   -2.4512 C.2     1  LIG1        0.3327
     21 O          -3.5426    0.2896   -3.1903 O.3     1  LIG1       -0.4524
     22 C          -2.2157    0.8494   -3.0368 C.3     1  LIG1        0.1441
     23 H          -1.5208    0.1073   -3.4568 H       1  LIG1        0.0797
     24 C          -2.1276    2.0852   -3.9127 C.ar    1  LIG1        0.0314
     25 C          -3.1687    2.9258   -4.2688 C.ar    1  LIG1        0.0984
     26 O          -2.7370    3.9348   -5.0645 O.2     1  LIG1       -0.4706
     27 C          -1.4109    3.7415   -5.2607 C.ar    1  LIG1        0.0921
     28 C          -0.9893    2.6148   -4.5950 C.ar    1  LIG1       -0.0172
     29 O          -4.9118   -1.4408   -2.7196 O.2     1  LIG1       -0.2456
     30 C          -2.8138    2.1893   -0.9521 C.3     1  LIG1       -0.0482
     31 O          -0.1472    2.6979   -0.6565 O.3     1  LIG1       -0.4563
     32 C           0.9106    3.4616   -1.0514 C.2     1  LIG1        0.3045
     33 C           0.8982    4.7957   -0.3752 C.3     1  LIG1        0.0333
     34 O           1.7458    3.1337   -1.8831 O.2     1  LIG1       -0.2511
     35 C           0.8902   -2.6043   -0.9695 C.3     1  LIG1       -0.0485
     36 C           2.5417   -0.6176    1.9558 C.3     1  LIG1        0.0498
     37 C           1.7407   -0.3451    3.2106 C.2     1  LIG1        0.3072
     38 O           2.1603    0.8364    3.7543 O.3     1  LIG1       -0.4679
     39 C           1.0947    1.4986    4.4294 C.3     1  LIG1        0.0817
     40 O           0.7907   -0.9748    3.6039 O.2     1  LIG1       -0.2509
     41 C           3.6691   -3.2213    2.8629 C.3     1  LIG1       -0.0525
     42 H           1.6659   -4.8624    0.6423 H       1  LIG1        0.0239
     43 H           3.0463   -5.3193    1.5856 H       1  LIG1        0.0239
     44 H           3.2844   -4.2505    0.2013 H       1  LIG1        0.0239
     45 H          -1.0064   -3.5271    2.8957 H       1  LIG1        0.0686
     46 H          -1.3162   -0.1111    2.5803 H       1  LIG1        0.0275
     47 H          -2.7745    0.3592    1.7556 H       1  LIG1        0.0275
     48 H          -1.2981    1.3237    1.5483 H       1  LIG1        0.0275
     49 H           1.5907    0.3857   -1.2221 H       1  LIG1        0.0610
     50 H          -3.3499   -2.0201   -0.7918 H       1  LIG1        0.0690
     51 H          -4.2281    2.9324   -4.0472 H       1  LIG1        0.1033
     52 H          -0.9189    4.4689   -5.8921 H       1  LIG1        0.1029
     53 H           0.0235    2.2347   -4.6035 H       1  LIG1        0.0653
     54 H          -2.5465    3.1866   -1.3178 H       1  LIG1        0.0241
     55 H          -2.7970    2.2358    0.1395 H       1  LIG1        0.0241
     56 H          -3.8583    2.0134   -1.2379 H       1  LIG1        0.0241
     57 H           0.6505    5.5591   -1.1171 H       1  LIG1        0.0342
     58 H           1.8827    4.9901    0.0578 H       1  LIG1        0.0342
     59 H           0.1562    4.8248    0.4264 H       1  LIG1        0.0342
     60 H           1.6839   -2.1905   -1.6036 H       1  LIG1        0.0242
     61 H          -0.0447   -2.5350   -1.5427 H       1  LIG1        0.0242
     62 H           1.0806   -3.6700   -0.8626 H       1  LIG1        0.0242
     63 H           3.6055   -0.6306    2.2264 H       1  LIG1        0.0381
     64 H           2.4122    0.2607    1.3133 H       1  LIG1        0.0381
     65 H           0.5561    0.8497    5.1279 H       1  LIG1        0.0661
     66 H           0.4094    1.8788    3.6649 H       1  LIG1        0.0661
     67 H           1.5051    2.3468    4.9814 H       1  LIG1        0.0661
     68 H           3.7582   -4.1529    3.4391 H       1  LIG1        0.0239
     69 H           3.6407   -2.4200    3.6058 H       1  LIG1        0.0239
     70 H           4.5873   -3.1248    2.2726 H       1  LIG1        0.0239
@<TRIPOS>BOND
     1     1     2    2
     2     2     3    1
     3     3     4    1
     4     3     5    1
     5     5     7    1
     6     7     8    1
     7     8     9    1
     8     9    10    1
     9    10    11    1
    10    11    12    2
    11     2    12    1
    12     9    13    1
    13     8    14    2
    14    14    15    1
    15    15    17    1
    16    17    18    1
    17     9    18    1
    18    18    19    2
    19    19    20    1
    20    20    21    1
    21    21    22    1
    22    22    23    1
    23    22    24    1
    24    24    25   ar
    25    25    26   ar
    26    26    27   ar
    27    27    28   ar
    28    24    28   ar
    29    20    29    2
    30    22    17    1
    31    17    30    1
    32    31    32    1
    33    32    33    1
    34    32    34    2
    35    11     7    1
    36     7    35    1
    37    36    37    1
    38    37    38    1
    39    38    39    1
    40    37    40    2
    41     3    41    1
    42    15    31    1
    43    15    16    1
    44     5    36    1
    45     5     6    1
    46     4    42    1
    47     4    43    1
    48     4    44    1
    49    12    45    1
    50    13    46    1
    51    13    47    1
    52    13    48    1
    53    14    49    1
    54    19    50    1
    55    25    51    1
    56    27    52    1
    57    28    53    1
    58    30    54    1
    59    30    55    1
    60    30    56    1
    61    33    57    1
    62    33    58    1
    63    33    59    1
    64    35    60    1
    65    35    61    1
    66    35    62    1
    67    36    63    1
    68    36    64    1
    69    39    65    1
    70    39    66    1
    71    39    67    1
    72    41    68    1
    73    41    69    1
    74    41    70    1
