@<TRIPOS>MOLECULE
NuBBE_942
 41 43 0 0 0
SMALL
GASTEIGER

@<TRIPOS>ATOM
      1 O           2.0524    1.8813   -2.6621 O.2     1  LIG1       -0.2669
      2 C           1.4087    1.2472   -1.8263 C.ar    1  LIG1        0.2623
      3 C           1.9356    1.1483   -0.4330 C.ar    1  LIG1        0.0816
      4 C           1.2661    0.4567    0.4976 C.ar    1  LIG1        0.1432
      5 C           0.0512   -0.2939    0.1480 C.ar    1  LIG1        0.0448
      6 C          -0.4925   -0.2149   -1.1524 C.ar    1  LIG1        0.1009
      7 N           0.1839    0.6390   -2.1026 N.ar    1  LIG1       -0.3073
      8 C          -0.3753    0.8862   -3.4217 C.3     1  LIG1        0.0154
      9 C          -1.6579   -0.9873   -1.4485 C.ar    1  LIG1        0.1858
     10 O          -2.1243   -0.9665   -2.7438 O.3     1  LIG1       -0.4895
     11 C          -3.5335   -1.0363   -2.9376 C.3     1  LIG1        0.0791
     12 C          -2.2339   -1.8218   -0.4590 C.ar    1  LIG1        0.1636
     13 C          -1.6740   -1.8744    0.8155 C.ar    1  LIG1       -0.0155
     14 C          -0.5511   -1.1135    1.1156 C.ar    1  LIG1       -0.0454
     15 O          -3.2754   -2.6439   -0.8126 O.3     1  LIG1       -0.4914
     16 C          -4.2125   -2.9497    0.2156 C.3     1  LIG1        0.0790
     17 O           1.6615    0.3669    1.8200 O.3     1  LIG1       -0.4808
     18 C           2.7190    1.2275    2.2982 C.3     1  LIG1        0.1235
     19 C           3.5598    1.8405    1.2032 C.2     1  LIG1       -0.0407
     20 C           3.1780    1.7992   -0.0784 C.2     1  LIG1       -0.0461
     21 C           2.0631    2.3388    3.1258 C.3     1  LIG1       -0.0215
     22 C           3.5940    0.3540    3.2025 C.3     1  LIG1       -0.0215
     23 H          -1.4099    1.2300   -3.3298 H       1  LIG1        0.0457
     24 H          -0.2947   -0.0181   -4.0314 H       1  LIG1        0.0457
     25 H           0.1603    1.6822   -3.9490 H       1  LIG1        0.0457
     26 H          -3.8364   -2.0735   -3.1108 H       1  LIG1        0.0660
     27 H          -3.7722   -0.4754   -3.8466 H       1  LIG1        0.0660
     28 H          -4.1016   -0.5845   -2.1170 H       1  LIG1        0.0660
     29 H          -2.0616   -2.5338    1.5850 H       1  LIG1        0.0655
     30 H          -0.1277   -1.1937    2.1152 H       1  LIG1        0.0626
     31 H          -5.1139   -3.3435   -0.2637 H       1  LIG1        0.0660
     32 H          -4.4985   -2.0558    0.7809 H       1  LIG1        0.0660
     33 H          -3.8224   -3.7280    0.8785 H       1  LIG1        0.0660
     34 H           4.4817    2.3455    1.4765 H       1  LIG1        0.0611
     35 H           3.7772    2.2498   -0.8644 H       1  LIG1        0.0624
     36 H           1.4026    2.9543    2.5030 H       1  LIG1        0.0271
     37 H           2.8065    2.9966    3.5893 H       1  LIG1        0.0271
     38 H           1.4326    1.9165    3.9168 H       1  LIG1        0.0271
     39 H           4.0365   -0.4746    2.6368 H       1  LIG1        0.0271
     40 H           2.9945   -0.1033    3.9989 H       1  LIG1        0.0271
     41 H           4.4039    0.9260    3.6680 H       1  LIG1        0.0271
@<TRIPOS>BOND
     1     1     2    2
     2     2     3   ar
     3     3     4   ar
     4     4     5   ar
     5     5     6   ar
     6     6     7   ar
     7     2     7   ar
     8     7     8    1
     9     6     9   ar
    10     9    10    1
    11    10    11    1
    12     9    12   ar
    13    12    13   ar
    14    13    14   ar
    15     5    14   ar
    16    12    15    1
    17    15    16    1
    18     4    17    1
    19    17    18    1
    20    18    19    1
    21    19    20    2
    22     3    20    1
    23    18    21    1
    24    18    22    1
    25     8    23    1
    26     8    24    1
    27     8    25    1
    28    11    26    1
    29    11    27    1
    30    11    28    1
    31    13    29    1
    32    14    30    1
    33    16    31    1
    34    16    32    1
    35    16    33    1
    36    19    34    1
    37    20    35    1
    38    21    36    1
    39    21    37    1
    40    21    38    1
    41    22    39    1
    42    22    40    1
    43    22    41    1
