@<TRIPOS>MOLECULE
NuBBE_1415
 35 39 0 0 0
SMALL
GASTEIGER

@<TRIPOS>ATOM
      1 O          -6.2217    0.5677   -0.0372 O.3     1  LIG1       -0.5065
      2 C          -4.8699    0.7354    0.0065 C.ar    1  LIG1        0.1238
      3 C          -4.2965    2.0019    0.0424 C.ar    1  LIG1        0.0222
      4 C          -2.9069    2.1217    0.1293 C.ar    1  LIG1        0.1343
      5 O          -2.3636    3.3749    0.1537 O.3     1  LIG1       -0.5058
      6 C          -2.0899    0.9817    0.1754 C.ar    1  LIG1        0.1015
      7 C          -2.6880   -0.2798    0.0302 C.ar    1  LIG1        0.1380
      8 O          -1.9932   -1.4556   -0.0930 O.3     1  LIG1       -0.4897
      9 C          -0.6709   -1.2698   -0.6248 C.3     1  LIG1        0.1066
     10 C           0.1016   -0.3350    0.3079 C.3     1  LIG1        0.0968
     11 C           1.5934   -0.1858    0.0507 C.ar    1  LIG1       -0.0233
     12 C           2.5970    0.5869   -0.4811 C.ar    1  LIG1       -0.0116
     13 C           3.8145   -0.0510   -0.5686 C.ar    1  LIG1        0.1665
     14 C           3.9791   -1.3794   -0.1944 C.ar    1  LIG1        0.1665
     15 O           5.2238   -1.8399   -0.4971 O.3     1  LIG1       -0.4526
     16 C           5.8794   -0.6055   -0.8548 C.3     1  LIG1        0.2332
     17 O           4.9695    0.4992   -1.0299 O.3     1  LIG1       -0.4526
     18 C           2.9991   -2.0876    0.4751 C.ar    1  LIG1       -0.0126
     19 C           1.8521   -1.3722    0.7044 C.ar    1  LIG1       -0.0381
     20 C           0.5766   -1.2098    1.5178 C.3     1  LIG1       -0.0073
     21 C          -0.6157    1.0271    0.3769 C.2     1  LIG1        0.1841
     22 O          -0.0373    2.1246    0.5083 O.2     1  LIG1       -0.2907
     23 C          -4.0775   -0.4044   -0.0047 C.ar    1  LIG1        0.0225
     24 H          -6.6558    1.4360    0.0005 H       1  LIG1        0.2921
     25 H          -4.9222    2.8876    0.0211 H       1  LIG1        0.0691
     26 H          -3.0132    4.0362   -0.1314 H       1  LIG1        0.2922
     27 H          -0.7274   -0.8952   -1.6544 H       1  LIG1        0.0710
     28 H          -0.2267   -2.2724   -0.6809 H       1  LIG1        0.0710
     29 H           2.4456    1.6138   -0.7866 H       1  LIG1        0.0658
     30 H           6.4362   -0.7413   -1.7877 H       1  LIG1        0.1166
     31 H           6.5882   -0.3652   -0.0528 H       1  LIG1        0.1166
     32 H           3.1589   -3.0923    0.8372 H       1  LIG1        0.0658
     33 H           0.6978   -0.6522    2.4583 H       1  LIG1        0.0327
     34 H           0.0019   -2.1133    1.7422 H       1  LIG1        0.0327
     35 H          -4.5385   -1.3871   -0.0588 H       1  LIG1        0.0691
@<TRIPOS>BOND
     1     1     2    1
     2     2     3   ar
     3     3     4   ar
     4     4     5    1
     5     4     6   ar
     6     6     7   ar
     7     7     8    1
     8     8     9    1
     9     9    10    1
    10    10    11    1
    11    11    12   ar
    12    12    13   ar
    13    13    14   ar
    14    14    15    1
    15    15    16    1
    16    16    17    1
    17    13    17    1
    18    14    18   ar
    19    18    19   ar
    20    11    19   ar
    21    19    20    1
    22    10    20    1
    23    10    21    1
    24     6    21    1
    25    21    22    2
    26     7    23   ar
    27     2    23   ar
    28     1    24    1
    29     3    25    1
    30     5    26    1
    31     9    27    1
    32     9    28    1
    33    12    29    1
    34    16    30    1
    35    16    31    1
    36    18    32    1
    37    20    33    1
    38    20    34    1
    39    23    35    1
