REMARK  Name = NuBBE_1709
REMARK  2 active torsions:
REMARK  status: ('A' for Active; 'I' for Inactive)
REMARK    1  A    between atoms: C_4  and  O_5
REMARK    2  A    between atoms: C_14  and  O_15
REMARK                            x       y       z     vdW  Elec       q    Type
REMARK                         _______ _______ _______ _____ _____    ______ ____
ROOT
ATOM      1  O   LIG A   1      -2.473   0.166  -0.002  0.00  0.00    -0.286 OA
ATOM      2  C   LIG A   1      -1.247   0.152  -0.001  0.00  0.00    +0.204 A 
ATOM      3  C   LIG A   1      -0.486   1.407  -0.001  0.00  0.00    +0.106 A 
ATOM      4  C   LIG A   1      -1.128   2.650  -0.001  0.00  0.00    +0.131 A 
ATOM      5  C   LIG A   1      -0.379   3.824   0.000  0.00  0.00    +0.046 A 
ATOM      6  C   LIG A   1       1.015   3.757   0.001  0.00  0.00    +0.007 A 
ATOM      7  C   LIG A   1       1.657   2.516   0.001  0.00  0.00    +0.047 A 
ATOM      8  C   LIG A   1       0.906   1.338   0.000  0.00  0.00    +0.143 A 
ATOM      9  O   LIG A   1       1.616   0.161   0.000  0.00  0.00    -0.455 OA
ATOM     10  C   LIG A   1       0.915  -1.021   0.000  0.00  0.00    +0.140 A 
ATOM     11  C   LIG A   1       1.669  -2.196   0.000  0.00  0.00    +0.050 A 
ATOM     12  C   LIG A   1       1.030  -3.439   0.000  0.00  0.00    +0.049 A 
ATOM     13  C   LIG A   1      -0.362  -3.496  -0.000  0.00  0.00    +0.118 A 
ATOM     14  C   LIG A   1      -1.125  -2.334  -0.000  0.00  0.00    +0.060 A 
ATOM     15  C   LIG A   1      -0.477  -1.098  -0.000  0.00  0.00    +0.068 A 
ENDROOT
BRANCH   4  16
ATOM     16  O   LIG A   1      -2.490   2.785  -0.001  0.00  0.00    -0.506 OA
ATOM     17  H   LIG A   1      -2.881   1.881  -0.002  0.00  0.00    +0.292 HD
ENDBRANCH   4  16
BRANCH  13  18
ATOM     18  O   LIG A   1      -1.023  -4.687  -0.000  0.00  0.00    -0.507 OA
ATOM     19  H   LIG A   1      -0.377  -5.412  -0.001  0.00  0.00    +0.292 HD
ENDBRANCH  13  18
TORSDOF 2
