@<TRIPOS>MOLECULE
NuBBE_1690
 55 55 0 0 0
SMALL
GASTEIGER

@<TRIPOS>ATOM
      1 C          -3.5019   -5.6658    2.2144 C.2     1  LIG1       -0.1023
      2 C          -3.9200   -5.5033    0.9508 C.2     1  LIG1       -0.0874
      3 C          -4.1561   -4.1648    0.3110 C.3     1  LIG1       -0.0168
      4 C          -3.3209   -3.9244   -0.9167 C.2     1  LIG1       -0.0839
      5 C          -1.9810   -3.8340   -0.9908 C.2     1  LIG1       -0.0839
      6 C          -0.9897   -4.0628    0.1088 C.3     1  LIG1       -0.0165
      7 C          -0.6433   -2.8549    0.9172 C.2     1  LIG1       -0.0842
      8 C           0.0161   -1.7542    0.5334 C.2     1  LIG1       -0.0876
      9 C           0.4180   -1.3903   -0.8644 C.3     1  LIG1       -0.0348
     10 C           1.0491   -0.0189   -1.0295 C.3     1  LIG1       -0.0496
     11 C           0.1267    1.1551   -0.7090 C.3     1  LIG1       -0.0528
     12 C          -0.1801    1.3277    0.7654 C.3     1  LIG1       -0.0530
     13 C          -0.9177    2.5874    1.1826 C.3     1  LIG1       -0.0528
     14 C          -0.1904    3.9368    1.2345 C.3     1  LIG1       -0.0490
     15 C           0.5185    4.5139   -0.0058 C.3     1  LIG1       -0.0268
     16 C           1.6993    3.8392   -0.7122 C.ar    1  LIG1       -0.0299
     17 C           2.6813    2.9791   -0.1286 C.ar    1  LIG1        0.1032
     18 C           2.8634    2.7539    1.3461 C.2     1  LIG1        0.3406
     19 O           4.0698    2.2890    1.6331 O.3     1  LIG1       -0.4770
     20 O           2.1018    2.8955    2.3233 O.2     1  LIG1       -0.2450
     21 C           3.4524    2.1593   -1.0073 C.ar    1  LIG1        0.1311
     22 O           4.2469    1.1210   -0.5742 O.3     1  LIG1       -0.5059
     23 C           3.3611    2.2440   -2.3961 C.ar    1  LIG1       -0.0193
     24 C           2.5052    3.1707   -2.9652 C.ar    1  LIG1       -0.0580
     25 C           1.6866    3.9538   -2.1399 C.ar    1  LIG1       -0.0576
     26 H          -3.3178   -6.6563    2.6178 H       1  LIG1        0.0532
     27 H          -3.3006   -4.8167    2.8613 H       1  LIG1        0.0532
     28 H          -4.0934   -6.3843    0.3369 H       1  LIG1        0.0569
     29 H          -3.9878   -3.3455    1.0196 H       1  LIG1        0.0350
     30 H          -5.2145   -4.1053    0.0259 H       1  LIG1        0.0350
     31 H          -3.8840   -3.7403   -1.8313 H       1  LIG1        0.0572
     32 H          -1.5412   -3.6120   -1.9618 H       1  LIG1        0.0572
     33 H          -0.0750   -4.4969   -0.3117 H       1  LIG1        0.0350
     34 H          -1.3514   -4.8218    0.8041 H       1  LIG1        0.0350
     35 H          -0.8949   -2.9257    1.9742 H       1  LIG1        0.0572
     36 H           0.2604   -1.0675    1.3390 H       1  LIG1        0.0569
     37 H          -0.4560   -1.4046   -1.5208 H       1  LIG1        0.0307
     38 H           1.1492   -2.1224   -1.2183 H       1  LIG1        0.0307
     39 H           1.3636    0.0890   -2.0778 H       1  LIG1        0.0268
     40 H           1.9664    0.0265   -0.4323 H       1  LIG1        0.0268
     41 H          -0.7709    1.1823   -1.3292 H       1  LIG1        0.0265
     42 H           0.6510    2.0077   -1.0583 H       1  LIG1        0.0265
     43 H           0.7143    1.1836    1.3784 H       1  LIG1        0.0265
     44 H          -0.8703    0.5264    1.0279 H       1  LIG1        0.0265
     45 H          -1.2419    2.3762    2.2150 H       1  LIG1        0.0265
     46 H          -1.8415    2.6685    0.6005 H       1  LIG1        0.0265
     47 H           0.4756    3.9671    2.0857 H       1  LIG1        0.0268
     48 H          -0.9453    4.6689    1.5579 H       1  LIG1        0.0268
     49 H           0.8592    5.5237    0.2504 H       1  LIG1        0.0313
     50 H          -0.2887    4.6562   -0.7441 H       1  LIG1        0.0313
     51 H           4.0258    2.3148    2.6175 H       1  LIG1        0.2954
     52 H           4.3141    1.1857    0.4004 H       1  LIG1        0.2922
     53 H           3.9296    1.5562   -3.0193 H       1  LIG1        0.0654
     54 H           2.4281    3.2366   -4.0484 H       1  LIG1        0.0619
     55 H           0.9426    4.5770   -2.6405 H       1  LIG1        0.0621
@<TRIPOS>BOND
     1     1     2    2
     2     2     3    1
     3     3     4    1
     4     4     5    2
     5     5     6    1
     6     6     7    1
     7     7     8    2
     8     8     9    1
     9     9    10    1
    10    10    11    1
    11    11    12    1
    12    12    13    1
    13    13    14    1
    14    14    15    1
    15    15    16    1
    16    16    17   ar
    17    17    18    1
    18    18    19    1
    19    18    20    2
    20    17    21   ar
    21    21    22    1
    22    21    23   ar
    23    23    24   ar
    24    24    25   ar
    25    16    25   ar
    26     1    26    1
    27     1    27    1
    28     2    28    1
    29     3    29    1
    30     3    30    1
    31     4    31    1
    32     5    32    1
    33     6    33    1
    34     6    34    1
    35     7    35    1
    36     8    36    1
    37     9    37    1
    38     9    38    1
    39    10    39    1
    40    10    40    1
    41    11    41    1
    42    11    42    1
    43    12    43    1
    44    12    44    1
    45    13    45    1
    46    13    46    1
    47    14    47    1
    48    14    48    1
    49    15    49    1
    50    15    50    1
    51    19    51    1
    52    22    52    1
    53    23    53    1
    54    24    54    1
    55    25    55    1
