@<TRIPOS>MOLECULE
NuBBE_2001
 54 56 0 0 0
SMALL
GASTEIGER

@<TRIPOS>ATOM
      1 C          -2.8945   -1.6977   -1.3984 C.3     1  LIG1       -0.0327
      2 C          -1.5742   -1.3409   -2.0482 C.ar    1  LIG1        0.0340
      3 C          -1.2941    0.0041   -2.3495 C.ar    1  LIG1        0.1418
      4 C          -0.1152    0.3570   -2.9933 C.ar    1  LIG1        0.1012
      5 C           0.2089    1.7951   -3.2061 C.2     1  LIG1        0.1740
      6 C          -0.7352    2.7864   -2.5858 C.3     1  LIG1        0.0520
      7 C          -1.4929    2.1464   -1.4313 C.3     1  LIG1        0.1323
      8 H          -2.3187    2.8395   -1.2313 H       1  LIG1        0.0789
      9 C          -0.7390    1.9775   -0.1005 C.ar    1  LIG1       -0.0033
     10 C           0.3717    1.1593    0.1065 C.ar    1  LIG1       -0.0514
     11 C           0.9602    1.0449    1.3735 C.ar    1  LIG1       -0.0159
     12 C           0.5103    1.7415    2.5076 C.ar    1  LIG1        0.1619
     13 O           1.3022    1.3708    3.5578 O.3     1  LIG1       -0.4886
     14 C           1.0842    1.6666    4.9185 C.3     1  LIG1        0.0870
     15 C           1.3707    0.5002    5.8394 C.3     1  LIG1       -0.0307
     16 C          -0.5932    2.5844    2.3227 C.ar    1  LIG1        0.1619
     17 O          -1.2999    3.3269    3.2301 O.3     1  LIG1       -0.4914
     18 C          -0.5781    4.0910    4.1713 C.3     1  LIG1        0.0790
     19 C          -1.1992    2.6738    1.0295 C.ar    1  LIG1       -0.0096
     20 O          -2.1624    0.9511   -1.8736 O.3     1  LIG1       -0.4826
     21 O           1.1765    2.1228   -3.8302 O.2     1  LIG1       -0.2917
     22 C           0.8625   -0.6029   -3.2405 C.ar    1  LIG1        0.1372
     23 O           2.0753   -0.2545   -3.7799 O.3     1  LIG1       -0.5056
     24 C           0.6856   -1.9339   -2.8151 C.ar    1  LIG1        0.0337
     25 C           1.9082   -2.8046   -2.9005 C.3     1  LIG1       -0.0327
     26 C          -0.5595   -2.3193   -2.2559 C.ar    1  LIG1        0.1332
     27 O          -0.9100   -3.5525   -1.7631 O.3     1  LIG1       -0.4915
     28 C          -0.2144   -4.7413   -2.1245 C.3     1  LIG1        0.0868
     29 C           0.8288   -5.1094   -1.0759 C.3     1  LIG1       -0.0307
     30 H          -3.6211   -0.8776   -1.4554 H       1  LIG1        0.0280
     31 H          -2.7547   -1.9361   -0.3392 H       1  LIG1        0.0280
     32 H          -3.3624   -2.5459   -1.9086 H       1  LIG1        0.0280
     33 H          -1.4280    3.0884   -3.3828 H       1  LIG1        0.0385
     34 H          -0.1709    3.6615   -2.2523 H       1  LIG1        0.0385
     35 H           0.8312    0.5569   -0.6671 H       1  LIG1        0.0623
     36 H           1.8002    0.3586    1.4886 H       1  LIG1        0.0655
     37 H           0.0318    1.8118    5.1185 H       1  LIG1        0.0694
     38 H           1.7286    2.5139    5.1983 H       1  LIG1        0.0694
     39 H           0.4727   -0.1284    5.8610 H       1  LIG1        0.0262
     40 H           1.5194    0.8668    6.8620 H       1  LIG1        0.0262
     41 H           2.2118   -0.1158    5.5237 H       1  LIG1        0.0262
     42 H          -1.2747    4.7244    4.7259 H       1  LIG1        0.0660
     43 H           0.2405    4.6652    3.7356 H       1  LIG1        0.0660
     44 H          -0.1968    3.4882    4.9664 H       1  LIG1        0.0660
     45 H          -2.0683    3.3226    0.9065 H       1  LIG1        0.0659
     46 H           2.0813    0.7123   -3.9684 H       1  LIG1        0.2922
     47 H           2.8192   -2.2624   -3.1693 H       1  LIG1        0.0280
     48 H           1.7935   -3.5837   -3.6548 H       1  LIG1        0.0280
     49 H           2.1406   -3.1907   -1.9106 H       1  LIG1        0.0280
     50 H           0.1748   -4.7026   -3.1442 H       1  LIG1        0.0694
     51 H          -0.9609   -5.5435   -2.1459 H       1  LIG1        0.0694
     52 H           0.6574   -6.1152   -0.6845 H       1  LIG1        0.0262
     53 H           0.8404   -4.4028   -0.2389 H       1  LIG1        0.0262
     54 H           1.8297   -5.1480   -1.5178 H       1  LIG1        0.0262
@<TRIPOS>BOND
     1     1     2    1
     2     2     3   ar
     3     3     4   ar
     4     4     5    1
     5     5     6    1
     6     6     7    1
     7     9    10   ar
     8    10    11   ar
     9    11    12   ar
    10    12    13    1
    11    13    14    1
    12    14    15    1
    13    12    16   ar
    14    16    17    1
    15    17    18    1
    16    16    19   ar
    17     9    19   ar
    18     7    20    1
    19     3    20    1
    20     5    21    2
    21     4    22   ar
    22    22    23    1
    23    22    24   ar
    24    24    25    1
    25    24    26   ar
    26     2    26   ar
    27    26    27    1
    28    27    28    1
    29    28    29    1
    30     7     9    1
    31     7     8    1
    32     1    30    1
    33     1    31    1
    34     1    32    1
    35     6    33    1
    36     6    34    1
    37    10    35    1
    38    11    36    1
    39    14    37    1
    40    14    38    1
    41    15    39    1
    42    15    40    1
    43    15    41    1
    44    18    42    1
    45    18    43    1
    46    18    44    1
    47    19    45    1
    48    23    46    1
    49    25    47    1
    50    25    48    1
    51    25    49    1
    52    28    50    1
    53    28    51    1
    54    29    52    1
    55    29    53    1
    56    29    54    1
