REMARK  Name = NuBBE_1239
REMARK  5 active torsions:
REMARK  status: ('A' for Active; 'I' for Inactive)
REMARK    1  A    between atoms: C_3  and  C_4
REMARK    2  A    between atoms: C_4  and  O_5
REMARK    3  A    between atoms: O_5  and  C_6
REMARK    4  A    between atoms: C_11  and  O_12
REMARK    5  A    between atoms: O_12  and  C_13
REMARK                            x       y       z     vdW  Elec       q    Type
REMARK                         _______ _______ _______ _____ _____    ______ ____
ROOT
ATOM      1  O   LIG A   1      -3.034   0.365   0.559  0.00  0.00    -0.286 OA
ATOM      2  C   LIG A   1      -1.846   0.460   0.263  0.00  0.00    +0.204 A 
ATOM      3  C   LIG A   1      -0.930  -0.717   0.211  0.00  0.00    +0.130 A 
ATOM      4  C   LIG A   1       0.380  -0.469   0.024  0.00  0.00    +0.071 A 
ATOM      5  N   LIG A   1       0.897   0.806  -0.151  0.00  0.00    -0.273 N 
ATOM      6  C   LIG A   1       2.283   0.763  -0.322  0.00  0.00    +0.298 C 
ATOM      7  C   LIG A   1       2.649  -0.683  -0.251  0.00  0.00    +0.187 C 
ATOM      8  C   LIG A   1       1.505  -1.364  -0.050  0.00  0.00    +0.078 C 
ATOM      9  O   LIG A   1       3.092   1.667  -0.482  0.00  0.00    -0.263 OA
ATOM     10  C   LIG A   1       0.087   1.964  -0.185  0.00  0.00    +0.061 A 
ATOM     11  C   LIG A   1       0.588   3.252  -0.398  0.00  0.00    +0.027 A 
ATOM     12  C   LIG A   1      -0.279   4.350  -0.454  0.00  0.00    +0.002 A 
ATOM     13  C   LIG A   1      -1.651   4.175  -0.297  0.00  0.00    +0.001 A 
ATOM     14  C   LIG A   1      -2.159   2.901  -0.069  0.00  0.00    +0.014 A 
ATOM     15  C   LIG A   1      -1.290   1.803  -0.010  0.00  0.00    +0.046 A 
ENDROOT
BRANCH   3  16
ATOM     16  C   LIG A   1      -1.445  -2.102   0.377  0.00  0.00    +0.345 C 
ATOM     17  O   LIG A   1      -0.779  -3.052   0.751  0.00  0.00    -0.245 OA
BRANCH  16  18
ATOM     18  O   LIG A   1      -2.749  -2.158   0.012  0.00  0.00    -0.464 OA
ATOM     19  C   LIG A   1      -3.404  -3.410   0.204  0.00  0.00    +0.280 C 
ENDBRANCH  16  18
ENDBRANCH   3  16
BRANCH   7  20
ATOM     20  O   LIG A   1       3.940  -1.101  -0.370  0.00  0.00    -0.490 OA
ATOM     21  C   LIG A   1       4.239  -2.360   0.215  0.00  0.00    +0.277 C 
ENDBRANCH   7  20
TORSDOF 3
