@<TRIPOS>MOLECULE
NuBBE_2524
 45 47 0 0 0
SMALL
GASTEIGER

@<TRIPOS>ATOM
      1 C          -0.2048   -2.7077    0.5158 C.3     1  UNL1        0.0791
      2 O           1.1801   -2.5431    0.2273 O.3     1  UNL1       -0.4884
      3 C           1.7556   -1.3272    0.5402 C.ar    1  UNL1        0.2088
      4 C           3.1519   -1.3938    0.8878 C.ar    1  UNL1        0.2110
      5 O           3.7913   -2.5850    0.6451 O.3     1  UNL1       -0.4883
      6 C           4.2344   -3.3228    1.7790 C.3     1  UNL1        0.0791
      7 C           3.8380   -0.2142    1.2017 C.ar    1  UNL1        0.2080
      8 O           5.1424    0.0430    1.5182 O.3     1  UNL1       -0.4884
      9 C           6.0926   -0.9453    1.8374 C.3     1  UNL1        0.0791
     10 C           3.1390    1.0076    1.1162 C.ar    1  UNL1        0.1770
     11 O           3.8527    2.1509    1.3978 O.3     1  UNL1       -0.5027
     12 C           1.8048    1.0910    0.7121 C.ar    1  UNL1        0.1128
     13 C           1.1662    2.4029    0.4830 C.ar    1  UNL1        0.1969
     14 O           1.7010    3.4905    0.6508 O.2     1  UNL1       -0.2869
     15 C          -0.2096    2.3849   -0.0062 C.ar    1  UNL1        0.0288
     16 C          -0.8356    1.2170   -0.2014 C.ar    1  UNL1        0.1395
     17 C          -2.2399    1.2119   -0.6982 C.ar    1  UNL1        0.0211
     18 C          -2.7376    0.1643   -1.4891 C.ar    1  UNL1       -0.0474
     19 C          -4.0455    0.1987   -2.0159 C.ar    1  UNL1       -0.0156
     20 C          -4.8753    1.2960   -1.7696 C.ar    1  UNL1        0.1613
     21 O          -6.1411    1.4891   -2.2536 O.3     1  UNL1       -0.4915
     22 C          -6.6646    0.4878   -3.1162 C.3     1  UNL1        0.0790
     23 C          -4.3937    2.3187   -0.9628 C.ar    1  UNL1        0.1591
     24 O          -5.1702    3.4138   -0.7003 O.3     1  UNL1       -0.5033
     25 C          -3.1106    2.2811   -0.4200 C.ar    1  UNL1       -0.0059
     26 O          -0.2256   -0.0209   -0.0030 O.2     1  UNL1       -0.4507
     27 C           1.0896   -0.0772    0.4343 C.ar    1  UNL1        0.1881
     28 H          -0.4075   -3.7818    0.5822 H       1  UNL1        0.0660
     29 H          -0.8211   -2.3247   -0.3033 H       1  UNL1        0.0660
     30 H          -0.4875   -2.2585    1.4737 H       1  UNL1        0.0660
     31 H           3.8336   -4.3399    1.7346 H       1  UNL1        0.0660
     32 H           3.9716   -2.8707    2.7402 H       1  UNL1        0.0660
     33 H           5.3214   -3.4339    1.7053 H       1  UNL1        0.0660
     34 H           7.0274   -0.4224    2.0697 H       1  UNL1        0.0660
     35 H           6.2924   -1.5943    0.9834 H       1  UNL1        0.0660
     36 H           5.8169   -1.4861    2.7455 H       1  UNL1        0.0660
     37 H           4.7723    1.8628    1.5545 H       1  UNL1        0.2923
     38 H          -0.6393    3.3561   -0.2064 H       1  UNL1        0.0693
     39 H          -2.1044   -0.6871   -1.7300 H       1  UNL1        0.0626
     40 H          -4.3675   -0.6348   -2.6332 H       1  UNL1        0.0655
     41 H          -7.6435    0.8303   -3.4665 H       1  UNL1        0.0660
     42 H          -6.8121   -0.4523   -2.5745 H       1  UNL1        0.0660
     43 H          -6.0297    0.3449   -3.9969 H       1  UNL1        0.0660
     44 H          -5.9940    3.2705   -1.2066 H       1  UNL1        0.2923
     45 H          -2.8144    3.1100    0.2176 H       1  UNL1        0.0662
@<TRIPOS>BOND
     1     1     2    1
     2     2     3    1
     3     3     4   ar
     4     4     5    1
     5     5     6    1
     6     4     7   ar
     7     7     8    1
     8     8     9    1
     9     7    10   ar
    10    10    11    1
    11    10    12   ar
    12    12    13   ar
    13    13    14    2
    14    13    15   ar
    15    15    16   ar
    16    16    17    1
    17    17    18   ar
    18    18    19   ar
    19    19    20   ar
    20    20    21    1
    21    21    22    1
    22    20    23   ar
    23    23    24    1
    24    23    25   ar
    25    17    25   ar
    26    16    26   ar
    27    26    27   ar
    28     3    27   ar
    29    12    27   ar
    30     1    28    1
    31     1    29    1
    32     1    30    1
    33     6    31    1
    34     6    32    1
    35     6    33    1
    36     9    34    1
    37     9    35    1
    38     9    36    1
    39    11    37    1
    40    15    38    1
    41    18    39    1
    42    19    40    1
    43    22    41    1
    44    22    42    1
    45    22    43    1
    46    24    44    1
    47    25    45    1
