REMARK  Name = NuBBE_537
REMARK  8 active torsions:
REMARK  status: ('A' for Active; 'I' for Inactive)
REMARK    1  A    between atoms: O_1  and  C_2
REMARK    2  A    between atoms: C_2  and  C_4
REMARK    3  A    between atoms: C_2  and  C_12
REMARK    4  A    between atoms: C_5  and  C_6
REMARK    5  A    between atoms: C_12  and  C_13
REMARK    6  A    between atoms: C_13  and  C_15
REMARK    7  A    between atoms: C_13  and  O_24
REMARK    8  A    between atoms: C_15  and  C_16
REMARK                            x       y       z     vdW  Elec       q    Type
REMARK                         _______ _______ _______ _____ _____    ______ ____
ROOT
ATOM      1  C   LIG A   1       0.318  -0.237   0.294  0.00  0.00    +0.067 C 
ENDROOT
BRANCH   1   2
ATOM      2  C   LIG A   1      -1.175  -0.065   0.615  0.00  0.00    +0.140 C 
BRANCH   2   3
ATOM      3  O   LIG A   1      -1.595  -1.111   1.492  0.00  0.00    -0.388 OA
ATOM      4  H   LIG A   1      -2.401  -0.799   1.945  0.00  0.00    +0.210 HD
ENDBRANCH   2   3
BRANCH   2   5
ATOM      5  C   LIG A   1      -1.429   1.237   1.309  0.00  0.00    +0.004 C 
ATOM      6  C   LIG A   1      -2.239   2.209   0.857  0.00  0.00    +0.006 C 
BRANCH   6   7
ATOM      7  C   LIG A   1      -2.476   3.496   1.540  0.00  0.00    -0.025 A 
ATOM      8  C   LIG A   1      -3.367   4.418   0.970  0.00  0.00    +0.008 A 
ATOM      9  C   LIG A   1      -3.599   5.659   1.575  0.00  0.00    +0.001 A 
ATOM     10  C   LIG A   1      -2.946   5.994   2.759  0.00  0.00    +0.000 A 
ATOM     11  C   LIG A   1      -2.067   5.088   3.341  0.00  0.00    +0.001 A 
ATOM     12  C   LIG A   1      -1.835   3.852   2.736  0.00  0.00    +0.008 A 
ENDBRANCH   6   7
ENDBRANCH   2   5
ENDBRANCH   1   2
BRANCH   1  13
ATOM     13  C   LIG A   1       0.629  -1.570  -0.408  0.00  0.00    +0.121 C 
BRANCH  13  14
ATOM     14  O   LIG A   1       0.246  -2.686   0.388  0.00  0.00    -0.392 OA
ATOM     15  H   LIG A   1      -0.605  -2.456   0.824  0.00  0.00    +0.210 HD
ENDBRANCH  13  14
BRANCH  13  16
ATOM     16  C   LIG A   1       2.126  -1.701  -0.723  0.00  0.00    +0.076 C 
BRANCH  16  17
ATOM     17  C   LIG A   1       2.508  -3.024  -1.409  0.00  0.00    +0.183 C 
ATOM     18  O   LIG A   1       3.940  -2.997  -1.642  0.00  0.00    -0.458 OA
ATOM     19  C   LIG A   1       4.508  -4.007  -2.347  0.00  0.00    +0.332 C 
ATOM     20  C   LIG A   1       3.622  -4.777  -3.239  0.00  0.00    +0.087 C 
ATOM     21  C   LIG A   1       2.353  -4.408  -3.452  0.00  0.00    -0.016 C 
ATOM     22  C   LIG A   1       1.763  -3.244  -2.727  0.00  0.00    +0.072 C 
ATOM     23  O   LIG A   1       5.713  -4.248  -2.309  0.00  0.00    -0.246 OA
ENDBRANCH  16  17
ENDBRANCH  13  16
ENDBRANCH   1  13
TORSDOF 8
