REMARK  Name = NuBBE_2015
REMARK  11 active torsions:
REMARK  status: ('A' for Active; 'I' for Inactive)
REMARK    1  A    between atoms: C_3  and  O_5
REMARK    2  A    between atoms: O_5  and  C_6
REMARK    3  A    between atoms: C_8  and  C_9
REMARK    4  A    between atoms: C_9  and  C_10
REMARK    5  A    between atoms: C_12  and  C_14
REMARK    6  A    between atoms: C_15  and  C_17
REMARK    7  A    between atoms: C_26  and  O_33
REMARK    8  A    between atoms: C_27  and  O_29
REMARK    9  A    between atoms: O_29  and  C_30
REMARK   10  A    between atoms: C_30  and  C_31
REMARK   11  A    between atoms: O_33  and  C_34
REMARK                            x       y       z     vdW  Elec       q    Type
REMARK                         _______ _______ _______ _____ _____    ______ ____
ROOT
ATOM      1  O   LIG A   1      -2.765   0.930   0.570  0.00  0.00    -0.291 OA
ATOM      2  C   LIG A   1      -1.700   0.355   0.610  0.00  0.00    +0.198 C 
ATOM      3  C   LIG A   1      -1.621  -1.186   0.742  0.00  0.00    +0.187 C 
ATOM      4  C   LIG A   1      -0.193  -1.765   0.604  0.00  0.00    +0.050 C 
ATOM      5  C   LIG A   1       1.020  -0.838   0.954  0.00  0.00    +0.020 C 
ATOM      6  C   LIG A   1       1.573  -0.027  -0.272  0.00  0.00    +0.007 C 
ATOM      7  C   LIG A   1       2.332  -0.671  -1.424  0.00  0.00    +0.009 C 
ATOM      8  C   LIG A   1       0.432   0.940  -0.668  0.00  0.00    +0.066 C 
ATOM      9  C   LIG A   1      -0.368   1.126   0.682  0.00  0.00    +0.173 C 
ATOM     10  C   LIG A   1       0.471   0.387   1.814  0.00  0.00    +0.219 C 
ENDROOT
BRANCH   8  11
ATOM     11  C   LIG A   1      -0.378   0.677  -1.954  0.00  0.00    -0.037 A 
ATOM     12  C   LIG A   1      -0.948   1.783  -2.634  0.00  0.00    +0.008 A 
ATOM     13  C   LIG A   1      -1.633   1.637  -3.857  0.00  0.00    +0.050 A 
ATOM     14  C   LIG A   1      -1.756   0.374  -4.389  0.00  0.00    +0.166 A 
ATOM     15  O   LIG A   1      -2.362   0.033  -5.558  0.00  0.00    -0.453 OA
ATOM     16  C   LIG A   1      -2.156  -1.397  -5.567  0.00  0.00    +0.466 C 
ATOM     17  O   LIG A   1      -1.433  -1.875  -4.416  0.00  0.00    -0.453 OA
ATOM     18  C   LIG A   1      -1.231  -0.709  -3.744  0.00  0.00    +0.167 A 
ATOM     19  C   LIG A   1      -0.551  -0.586  -2.547  0.00  0.00    +0.053 A 
ENDBRANCH   8  11
BRANCH   3  20
ATOM     20  O   LIG A   1      -2.478  -1.915  -0.131  0.00  0.00    -0.372 OA
ATOM     21  C   LIG A   1      -3.870  -1.674   0.066  0.00  0.00    +0.195 C 
ENDBRANCH   3  20
BRANCH   9  22
ATOM     22  O   LIG A   1      -0.495   2.534   0.881  0.00  0.00    -0.365 OA
ATOM     23  C   LIG A   1      -1.426   2.954   1.867  0.00  0.00    +0.195 C 
ENDBRANCH   9  22
BRANCH   5  24
ATOM     24  C   LIG A   1       2.136  -1.690   1.638  0.00  0.00    +0.037 C 
BRANCH  24  25
ATOM     25  C   LIG A   1       2.597  -2.929   0.883  0.00  0.00    -0.034 C 
ATOM     26  C   LIG A   1       3.760  -3.074   0.231  0.00  0.00    +0.004 C 
ENDBRANCH  24  25
ENDBRANCH   5  24
BRANCH  10  27
ATOM     27  O   LIG A   1       1.552   1.171   2.363  0.00  0.00    -0.490 OA
BRANCH  27  28
ATOM     28  C   LIG A   1       1.422   1.976   3.478  0.00  0.00    +0.088 C 
ATOM     29  C   LIG A   1       2.658   2.759   3.841  0.00  0.00    +0.085 C 
ATOM     30  C   LIG A   1       0.352   2.138   4.280  0.00  0.00    +0.052 C 
ENDBRANCH  27  28
ENDBRANCH  10  27
TORSDOF 7
