REMARK  Name = NuBBE_122
REMARK  6 active torsions:
REMARK  status: ('A' for Active; 'I' for Inactive)
REMARK    1  A    between atoms: C_4  and  O_5
REMARK    2  A    between atoms: C_7  and  O_8
REMARK    3  A    between atoms: C_12  and  C_13
REMARK    4  A    between atoms: C_16  and  O_17
REMARK    5  A    between atoms: C_18  and  O_19
REMARK    6  A    between atoms: C_21  and  O_22
REMARK                            x       y       z     vdW  Elec       q    Type
REMARK                         _______ _______ _______ _____ _____    ______ ____
ROOT
ATOM      1  O   LIG A   1      -3.481  -1.038  -0.615  0.00  0.00    -0.283 OA
ATOM      2  C   LIG A   1      -2.279  -0.920  -0.390  0.00  0.00    +0.238 A 
ATOM      3  C   LIG A   1      -1.470  -2.114  -0.121  0.00  0.00    +0.109 A 
ATOM      4  C   LIG A   1      -2.033  -3.396  -0.107  0.00  0.00    +0.135 A 
ATOM      5  C   LIG A   1      -1.238  -4.512   0.147  0.00  0.00    +0.091 A 
ATOM      6  C   LIG A   1       0.121  -4.335   0.386  0.00  0.00    +0.124 A 
ATOM      7  C   LIG A   1       0.692  -3.066   0.375  0.00  0.00    +0.092 A 
ATOM      8  C   LIG A   1      -0.109  -1.953   0.120  0.00  0.00    +0.146 A 
ATOM      9  O   LIG A   1       0.508  -0.730   0.120  0.00  0.00    -0.451 OA
ATOM     10  C   LIG A   1      -0.257   0.401  -0.118  0.00  0.00    +0.181 A 
ATOM     11  C   LIG A   1      -1.580   0.395  -0.380  0.00  0.00    +0.208 A 
ENDROOT
BRANCH  10  12
ATOM     12  C   LIG A   1       0.544   1.636  -0.076  0.00  0.00    +0.025 A 
ATOM     13  C   LIG A   1       1.573   1.834  -1.014  0.00  0.00    +0.015 A 
ATOM     14  C   LIG A   1       2.346   3.000  -0.993  0.00  0.00    +0.050 A 
ATOM     15  C   LIG A   1       2.088   3.964  -0.028  0.00  0.00    +0.158 A 
ATOM     16  C   LIG A   1       1.075   3.769   0.908  0.00  0.00    +0.159 A 
ATOM     17  C   LIG A   1       0.306   2.614   0.899  0.00  0.00    +0.060 A 
BRANCH  15  18
ATOM     18  O   LIG A   1       2.804   5.126   0.045  0.00  0.00    -0.503 OA
ATOM     19  H   LIG A   1       3.483   5.111  -0.652  0.00  0.00    +0.292 HD
ENDBRANCH  15  18
BRANCH  16  20
ATOM     20  O   LIG A   1       0.828   4.722   1.853  0.00  0.00    -0.503 OA
ATOM     21  H   LIG A   1       1.487   5.424   1.678  0.00  0.00    +0.292 HD
ENDBRANCH  16  20
ENDBRANCH  10  12
BRANCH   4  22
ATOM     22  O   LIG A   1      -3.362  -3.629  -0.338  0.00  0.00    -0.506 OA
ATOM     23  H   LIG A   1      -3.800  -2.761  -0.502  0.00  0.00    +0.292 HD
ENDBRANCH   4  22
BRANCH   6  24
ATOM     24  O   LIG A   1       0.940  -5.396   0.638  0.00  0.00    -0.506 OA
ATOM     25  H   LIG A   1       0.410  -6.211   0.625  0.00  0.00    +0.292 HD
ENDBRANCH   6  24
BRANCH  11  26
ATOM     26  O   LIG A   1      -2.338   1.519  -0.657  0.00  0.00    -0.501 OA
ATOM     27  H   LIG A   1      -1.765   2.303  -0.678  0.00  0.00    +0.292 HD
ENDBRANCH  11  26
TORSDOF 6
