@<TRIPOS>MOLECULE
NuBBE_2502
 35 37 0 0 0
SMALL
GASTEIGER

@<TRIPOS>ATOM
      1 C          -3.1437    0.0637   -1.1345 C.2     1  LIG1       -0.0992
      2 C          -1.9425   -0.1710   -0.5736 C.2     1  LIG1       -0.0728
      3 C          -1.5893   -1.6072   -0.2408 C.3     1  LIG1       -0.0310
      4 C          -0.2531   -2.0607   -0.7910 C.3     1  LIG1       -0.0389
      5 C           0.9698   -1.6503    0.0035 C.3     1  LIG1        0.0283
      6 C           1.3925   -2.2902    1.2731 C.2     1  LIG1        0.0361
      7 C           0.7400   -3.0648    2.1490 C.2     1  LIG1       -0.0883
      8 C           2.6499   -1.5285    1.5713 C.2     1  LIG1        0.3353
      9 O           3.6666   -1.9702    2.0964 O.2     1  LIG1       -0.2453
     10 O           2.4498   -0.2716    1.0247 O.3     1  LIG1       -0.4569
     11 C           1.0740   -0.2498    0.5892 C.3     1  LIG1        0.1173
     12 H           0.4942   -0.1269    1.5211 H       1  LIG1        0.0746
     13 C           0.5447    0.8007   -0.3980 C.3     1  LIG1        0.0240
     14 H           0.7171    0.4673   -1.4293 H       1  LIG1        0.0387
     15 C           1.0206    2.2414   -0.3394 C.2     1  LIG1       -0.0694
     16 C           2.2424    2.6685   -0.6845 C.2     1  LIG1       -0.0990
     17 C          -0.1462    3.1761   -0.1633 C.3     1  LIG1       -0.0310
     18 C          -1.2975    2.3440   -0.7054 C.3     1  LIG1       -0.0422
     19 C          -1.0053    0.9495   -0.1351 C.3     1  LIG1       -0.0100
     20 H          -1.1632    1.0295    0.9535 H       1  LIG1        0.0353
     21 H          -3.8245   -0.7471   -1.3824 H       1  LIG1        0.0534
     22 H          -3.5217    1.0627   -1.3232 H       1  LIG1        0.0534
     23 H          -2.3418   -2.2769   -0.6830 H       1  LIG1        0.0310
     24 H          -1.6446   -1.7632    0.8401 H       1  LIG1        0.0310
     25 H          -0.1457   -1.6697   -1.8149 H       1  LIG1        0.0275
     26 H          -0.2479   -3.1523   -0.9044 H       1  LIG1        0.0275
     27 H           1.8011   -1.8095   -0.7053 H       1  LIG1        0.0387
     28 H          -0.2790   -3.3889    1.9679 H       1  LIG1        0.0540
     29 H           1.1671   -3.2977    3.1217 H       1  LIG1        0.0540
     30 H           3.0388    1.9775   -0.9393 H       1  LIG1        0.0535
     31 H           2.4608    3.7304   -0.7676 H       1  LIG1        0.0535
     32 H          -0.0437    4.1171   -0.7117 H       1  LIG1        0.0310
     33 H          -0.2988    3.3965    0.8997 H       1  LIG1        0.0310
     34 H          -1.2789    2.3257   -1.8036 H       1  LIG1        0.0274
     35 H          -2.2620    2.7458   -0.3811 H       1  LIG1        0.0274
@<TRIPOS>BOND
     1     2     3    1
     2     3     4    1
     3     4     5    1
     4     5     6    1
     5     6     8    1
     6     8    10    1
     7    10    11    1
     8     5    11    1
     9    11    13    1
    10    13    15    1
    11    15    17    1
    12    17    18    1
    13    18    19    1
    14     2    19    1
    15    13    19    1
    16     1     2    2
    17     6     7    2
    18     8     9    2
    19    11    12    1
    20    13    14    1
    21    15    16    2
    22    19    20    1
    23     1    21    1
    24     1    22    1
    25     3    23    1
    26     3    24    1
    27     4    25    1
    28     4    26    1
    29     5    27    1
    30     7    28    1
    31     7    29    1
    32    16    30    1
    33    16    31    1
    34    17    32    1
    35    17    33    1
    36    18    34    1
    37    18    35    1
