REMARK  Name = NuBBE_2262
REMARK  8 active torsions:
REMARK  status: ('A' for Active; 'I' for Inactive)
REMARK    1  A    between atoms: C_1  and  C_3
REMARK    2  A    between atoms: C_7  and  C_12
REMARK    3  A    between atoms: C_8  and  O_11
REMARK    4  A    between atoms: C_9  and  O_10
REMARK    5  A    between atoms: C_12  and  C_13
REMARK    6  A    between atoms: C_12  and  C_14
REMARK    7  A    between atoms: C_12  and  O_15
REMARK    8  A    between atoms: C_16  and  C_19
REMARK                            x       y       z     vdW  Elec       q    Type
REMARK                         _______ _______ _______ _____ _____    ______ ____
ROOT
ATOM      1  C   LIG A   1      -1.996  -2.513  -0.054  0.00  0.00    +0.025 A 
ATOM      2  C   LIG A   1      -1.348  -1.236  -0.019  0.00  0.00    +0.038 A 
ATOM      3  C   LIG A   1       0.079  -1.211  -0.033  0.00  0.00    -0.010 A 
ATOM      4  C   LIG A   1       0.752   0.046   0.007  0.00  0.00    +0.019 A 
ATOM      5  C   LIG A   1       0.096   1.294   0.057  0.00  0.00    +0.029 A 
ATOM      6  C   LIG A   1      -1.292   1.244   0.073  0.00  0.00    +0.165 A 
ATOM      7  C   LIG A   1      -1.990   0.027   0.026  0.00  0.00    +0.167 A 
ATOM      8  C   LIG A   1       0.808  -2.436  -0.089  0.00  0.00    -0.043 A 
ATOM      9  C   LIG A   1       0.133  -3.661  -0.136  0.00  0.00    +0.005 A 
ATOM     10  C   LIG A   1      -1.251  -3.698  -0.120  0.00  0.00    +0.012 A 
ATOM     11  C   LIG A   1       2.318  -2.479  -0.102  0.00  0.00    +0.044 C 
ENDROOT
BRANCH   5  12
ATOM     12  C   LIG A   1       0.898   2.594   0.077  0.00  0.00    +0.089 C 
ATOM     13  C   LIG A   1       1.829   2.663   1.294  0.00  0.00    +0.046 C 
ATOM     14  C   LIG A   1       1.690   2.790  -1.224  0.00  0.00    +0.046 C 
BRANCH  12  15
ATOM     15  O   LIG A   1       0.000   3.717   0.183  0.00  0.00    -0.384 OA
ATOM     16  H   LIG A   1       0.549   4.524   0.187  0.00  0.00    +0.211 HD
ENDBRANCH  12  15
ENDBRANCH   5  12
BRANCH   1  17
ATOM     17  C   LIG A   1      -3.472  -2.703  -0.003  0.00  0.00    +0.259 C 
ATOM     18  O   LIG A   1      -3.981  -3.819  -0.047  0.00  0.00    -0.296 OA
ENDBRANCH   1  17
BRANCH   7  19
ATOM     19  O   LIG A   1      -3.359   0.144   0.007  0.00  0.00    -0.503 OA
ATOM     20  H   LIG A   1      -3.524   1.111   0.027  0.00  0.00    +0.292 HD
ENDBRANCH   7  19
BRANCH   6  21
ATOM     21  O   LIG A   1      -2.085   2.366   0.130  0.00  0.00    -0.503 OA
ATOM     22  H   LIG A   1      -1.468   3.132   0.167  0.00  0.00    +0.292 HD
ENDBRANCH   6  21
TORSDOF 5
