@<TRIPOS>MOLECULE
NuBBE_2508
 33 37 0 0 0
SMALL
GASTEIGER

@<TRIPOS>ATOM
      1 O          -6.0286   -0.5548    1.0750 O.3     1  LIG1       -0.5066
      2 C          -4.6663   -0.5165    1.0232 C.ar    1  LIG1        0.1204
      3 C          -3.9860    0.6657    0.7565 C.ar    1  LIG1        0.0219
      4 C          -2.5922    0.6536    0.7019 C.ar    1  LIG1        0.1307
      5 C          -1.8715   -0.5238    0.9418 C.ar    1  LIG1        0.0352
      6 C          -2.5784   -1.7064    1.2074 C.ar    1  LIG1       -0.0481
      7 C          -3.9743   -1.7011    1.2458 C.ar    1  LIG1       -0.0196
      8 C          -0.3655   -0.5092    0.9762 C.3     1  LIG1        0.1385
      9 H          -0.0368   -0.8842    1.9572 H       1  LIG1        0.0793
     10 C           0.2228    0.8910    0.7419 C.3     1  LIG1        0.0631
     11 H           0.3857    1.3953    1.7007 H       1  LIG1        0.0423
     12 C          -0.6988    1.7037   -0.1541 C.3     1  LIG1        0.1002
     13 O          -1.9894    1.8572    0.4415 O.3     1  LIG1       -0.4907
     14 C           1.4822    0.5097    0.0550 C.ar    1  LIG1        0.0082
     15 C           1.3766   -0.8166   -0.3765 C.ar    1  LIG1        0.1288
     16 O           0.1877   -1.4091   -0.0249 O.3     1  LIG1       -0.4830
     17 C           2.3676   -1.4351   -1.1152 C.ar    1  LIG1        0.0259
     18 C           3.4799   -0.6616   -1.3829 C.ar    1  LIG1        0.1697
     19 C           3.5934    0.6494   -0.9513 C.ar    1  LIG1        0.1667
     20 C           2.6010    1.2782   -0.2253 C.ar    1  LIG1       -0.0090
     21 O           4.7666    1.2209   -1.3353 O.3     1  LIG1       -0.4526
     22 C           5.3876    0.1256   -2.0388 C.3     1  LIG1        0.2332
     23 O           4.5735   -1.0648   -2.0872 O.3     1  LIG1       -0.4525
     24 H          -6.3700    0.3316    0.8709 H       1  LIG1        0.2921
     25 H          -4.5159    1.5960    0.5823 H       1  LIG1        0.0691
     26 H          -2.0434   -2.6354    1.3937 H       1  LIG1        0.0624
     27 H          -4.5202   -2.6170    1.4550 H       1  LIG1        0.0654
     28 H          -0.8137    1.2674   -1.1567 H       1  LIG1        0.0704
     29 H          -0.2854    2.7081   -0.3021 H       1  LIG1        0.0704
     30 H           2.2785   -2.4557   -1.4600 H       1  LIG1        0.0692
     31 H           2.6962    2.3091    0.0899 H       1  LIG1        0.0659
     32 H           6.3338   -0.1172   -1.5409 H       1  LIG1        0.1166
     33 H           5.6032    0.4456   -3.0647 H       1  LIG1        0.1166
@<TRIPOS>BOND
     1     2     3   ar
     2     3     4   ar
     3     4     5   ar
     4     5     6   ar
     5     6     7   ar
     6     2     7   ar
     7     5     8    1
     8     8    10    1
     9    10    12    1
    10    12    13    1
    11     4    13    1
    12    10    14    1
    13    14    15   ar
    14    15    16    1
    15     8    16    1
    16    15    17   ar
    17    17    18   ar
    18    18    19   ar
    19    19    20   ar
    20    14    20   ar
    21    19    21    1
    22    21    22    1
    23    22    23    1
    24    18    23    1
    25     1     2    1
    26     8     9    1
    27    10    11    1
    28     1    24    1
    29     3    25    1
    30     6    26    1
    31     7    27    1
    32    12    28    1
    33    12    29    1
    34    17    30    1
    35    20    31    1
    36    22    32    1
    37    22    33    1
