@<TRIPOS>MOLECULE
NuBBE_1860
 44 46 0 0 0
SMALL
GASTEIGER

@<TRIPOS>ATOM
      1 O          -1.5556   -2.5473    5.2134 O.3     1  LIG1       -0.5068
      2 C          -0.8078   -1.6952    4.4552 C.ar    1  LIG1        0.1169
      3 C          -0.0361   -2.1578    3.3948 C.ar    1  LIG1       -0.0199
      4 C           0.7021   -1.2467    2.6357 C.ar    1  LIG1       -0.0551
      5 C          -0.8404   -0.3440    4.7741 C.ar    1  LIG1       -0.0199
      6 C          -0.0967    0.5652    4.0193 C.ar    1  LIG1       -0.0551
      7 C           0.6736    0.1236    2.9337 C.ar    1  LIG1       -0.0471
      8 C           1.4713    1.0957    2.0967 C.3     1  LIG1       -0.0253
      9 C           0.6296    2.1775    1.4041 C.3     1  LIG1       -0.0226
     10 C          -0.4076    1.6136    0.4245 C.3     1  LIG1        0.0598
     11 H          -1.1003    0.9542    0.9621 H       1  LIG1        0.0596
     12 O           0.2781    0.8558   -0.5758 O.3     1  LIG1       -0.3688
     13 C          -0.6192    0.2011   -1.4833 C.3     1  LIG1        0.0840
     14 H          -1.2702   -0.4569   -0.8919 H       1  LIG1        0.0646
     15 C          -1.4578    1.2405   -2.2379 C.3     1  LIG1       -0.0223
     16 C          -2.1749    2.1729   -1.2647 C.3     1  LIG1       -0.0481
     17 C          -1.1948    2.7438   -0.2448 C.3     1  LIG1       -0.0265
     18 C           0.1821   -0.6604   -2.4423 C.ar    1  LIG1       -0.0187
     19 C           1.4939   -0.3176   -2.8106 C.ar    1  LIG1       -0.0527
     20 C           2.2227   -1.1134   -3.6977 C.ar    1  LIG1       -0.0198
     21 C           1.6362   -2.2544   -4.2299 C.ar    1  LIG1        0.1169
     22 O           2.3085   -3.0578   -5.1023 O.3     1  LIG1       -0.5068
     23 C           0.3365   -2.6104   -3.8889 C.ar    1  LIG1       -0.0198
     24 C          -0.3901   -1.8148   -2.9993 C.ar    1  LIG1       -0.0527
     25 H          -1.4458   -3.4458    4.8634 H       1  LIG1        0.2921
     26 H           0.0047   -3.2122    3.1436 H       1  LIG1        0.0654
     27 H           1.2993   -1.6131    1.8021 H       1  LIG1        0.0621
     28 H          -1.4429    0.0020    5.6095 H       1  LIG1        0.0654
     29 H          -0.1248    1.6187    4.2848 H       1  LIG1        0.0621
     30 H           2.0542    0.5518    1.3424 H       1  LIG1        0.0314
     31 H           2.2088    1.5791    2.7495 H       1  LIG1        0.0314
     32 H           1.3247    2.8274    0.8563 H       1  LIG1        0.0293
     33 H           0.1289    2.8043    2.1514 H       1  LIG1        0.0293
     34 H          -2.1891    0.7525   -2.8930 H       1  LIG1        0.0293
     35 H          -0.8073    1.8493   -2.8796 H       1  LIG1        0.0293
     36 H          -2.9628    1.6180   -0.7406 H       1  LIG1        0.0267
     37 H          -2.6643    2.9859   -1.8123 H       1  LIG1        0.0267
     38 H          -1.7339    3.3362    0.5026 H       1  LIG1        0.0290
     39 H          -0.5043    3.4183   -0.7674 H       1  LIG1        0.0290
     40 H           1.9589    0.5750   -2.3952 H       1  LIG1        0.0622
     41 H           3.2377   -0.8266   -3.9541 H       1  LIG1        0.0654
     42 H           3.1901   -2.6774   -5.2511 H       1  LIG1        0.2921
     43 H          -0.1091   -3.5049   -4.3141 H       1  LIG1        0.0654
     44 H          -1.4061   -2.1056   -2.7426 H       1  LIG1        0.0622
@<TRIPOS>BOND
     1     1     2    1
     2     2     3   ar
     3     3     4   ar
     4     2     5   ar
     5     5     6   ar
     6     6     7   ar
     7     4     7   ar
     8     7     8    1
     9     8     9    1
    10    10    12    1
    11    12    13    1
    12    13    14    1
    13    13    15    1
    14    15    16    1
    15    16    17    1
    16    10    17    1
    17    13    18    1
    18    18    19   ar
    19    19    20   ar
    20    20    21   ar
    21    21    22    1
    22    21    23   ar
    23    23    24   ar
    24    18    24   ar
    25    10    11    1
    26    10     9    1
    27     1    25    1
    28     3    26    1
    29     4    27    1
    30     5    28    1
    31     6    29    1
    32     8    30    1
    33     8    31    1
    34     9    32    1
    35     9    33    1
    36    15    34    1
    37    15    35    1
    38    16    36    1
    39    16    37    1
    40    17    38    1
    41    17    39    1
    42    19    40    1
    43    20    41    1
    44    22    42    1
    45    23    43    1
    46    24    44    1
