@<TRIPOS>MOLECULE
NuBBE_264
 45 48 0 0 0
SMALL
GASTEIGER

@<TRIPOS>ATOM
      1 C          -4.4315   -1.5009   -1.9393 C.2     1  LIG1       -0.1026
      2 C          -3.8139   -0.3987   -1.4973 C.2     1  LIG1       -0.0899
      3 C          -2.4992    0.1190   -2.0317 C.3     1  LIG1       -0.0185
      4 C          -1.3539    0.1943   -0.9623 C.3     1  LIG1        0.0595
      5 C          -0.1009    0.7134   -1.6212 C.2     1  LIG1        0.1130
      6 O           0.8195   -0.2624   -1.9427 O.2     1  LIG1       -0.4872
      7 C           0.5548   -1.3677   -1.0501 C.3     1  LIG1        0.1286
      8 H           0.6268   -2.2544   -1.6950 H       1  LIG1        0.0787
      9 C           1.6583   -1.5151   -0.0135 C.ar    1  LIG1       -0.0034
     10 C           2.0003   -2.8096    0.4601 C.ar    1  LIG1       -0.0514
     11 C           3.0837   -3.0100    1.3252 C.ar    1  LIG1       -0.0158
     12 C           3.8092   -1.9047    1.7068 C.ar    1  LIG1        0.1662
     13 O           4.9102   -1.9082    2.5045 O.3     1  LIG1       -0.4526
     14 C           5.2364   -0.5024    2.5218 C.3     1  LIG1        0.2332
     15 O           4.3188    0.3091    1.7605 O.3     1  LIG1       -0.4526
     16 C           3.4745   -0.6430    1.2801 C.ar    1  LIG1        0.1666
     17 C           2.4080   -0.4147    0.4342 C.ar    1  LIG1       -0.0095
     18 C          -0.9080   -1.2375   -0.5798 C.3     1  LIG1        0.0138
     19 H          -1.4504   -1.9352   -1.2365 H       1  LIG1        0.0350
     20 C          -1.2488   -1.7256    0.8215 C.3     1  LIG1       -0.0575
     21 C           0.1917    2.0125   -1.7454 C.2     1  LIG1        0.0271
     22 C          -0.7237    2.9991   -1.1259 C.2     1  LIG1        0.2231
     23 C          -1.5327    2.4931    0.0486 C.2     1  LIG1        0.1637
     24 O          -2.1131    3.3413    0.9776 O.2     1  LIG1       -0.4916
     25 C          -1.3658    4.5136    1.2911 C.3     1  LIG1        0.0790
     26 C          -1.7734    1.1699    0.1267 C.2     1  LIG1       -0.0243
     27 O          -0.7550    4.1456   -1.5387 O.2     1  LIG1       -0.2839
     28 H          -5.3823   -1.8090   -1.5137 H       1  LIG1        0.0532
     29 H          -4.0163   -2.1130   -2.7334 H       1  LIG1        0.0532
     30 H          -4.2924    0.1862   -0.7131 H       1  LIG1        0.0567
     31 H          -2.6889    1.1146   -2.4567 H       1  LIG1        0.0320
     32 H          -2.1724   -0.4992   -2.8805 H       1  LIG1        0.0320
     33 H           1.4333   -3.6794    0.1307 H       1  LIG1        0.0623
     34 H           3.3581   -4.0020    1.6669 H       1  LIG1        0.0655
     35 H           6.2447   -0.3682    2.1124 H       1  LIG1        0.1166
     36 H           5.2303   -0.1552    3.5611 H       1  LIG1        0.1166
     37 H           2.2003    0.5951    0.1010 H       1  LIG1        0.0659
     38 H          -0.8099   -1.0994    1.6024 H       1  LIG1        0.0234
     39 H          -0.9048   -2.7546    0.9686 H       1  LIG1        0.0234
     40 H          -2.3360   -1.7366    0.9618 H       1  LIG1        0.0234
     41 H           1.0895    2.3873   -2.2149 H       1  LIG1        0.0691
     42 H          -1.9228    5.0699    2.0516 H       1  LIG1        0.0660
     43 H          -1.2594    5.1841    0.4361 H       1  LIG1        0.0660
     44 H          -0.3878    4.2520    1.7074 H       1  LIG1        0.0660
     45 H          -2.4049    0.8064    0.9329 H       1  LIG1        0.0620
@<TRIPOS>BOND
     1     1     2    2
     2     2     3    1
     3     3     4    1
     4     4     5    1
     5     5     6    1
     6     6     7    1
     7     9    10   ar
     8    10    11   ar
     9    11    12   ar
    10    12    13    1
    11    13    14    1
    12    14    15    1
    13    15    16    1
    14    12    16   ar
    15    16    17   ar
    16     9    17   ar
    17     7    18    1
    18     4    18    1
    19     5    21    2
    20    21    22    1
    21    22    23    1
    22    23    24    1
    23    24    25    1
    24    23    26    2
    25     4    26    1
    26    22    27    2
    27     7     9    1
    28     7     8    1
    29    18    20    1
    30    18    19    1
    31     1    28    1
    32     1    29    1
    33     2    30    1
    34     3    31    1
    35     3    32    1
    36    10    33    1
    37    11    34    1
    38    14    35    1
    39    14    36    1
    40    17    37    1
    41    20    38    1
    42    20    39    1
    43    20    40    1
    44    21    41    1
    45    25    42    1
    46    25    43    1
    47    25    44    1
    48    26    45    1
