@<TRIPOS>MOLECULE
NuBBE_1438
 86 90 0 0 0
SMALL
GASTEIGER

@<TRIPOS>ATOM
      1 C           0.2246    1.3493   -6.0620 C.3     1  LIG1       -0.0572
      2 C           1.7250    1.2948   -5.6687 C.3     1  LIG1       -0.0056
      3 C           2.4539    0.4454   -6.7395 C.3     1  LIG1       -0.0572
      4 C           2.3222    2.7281   -5.6997 C.3     1  LIG1        0.0606
      5 H           3.4081    2.6859   -5.5436 H       1  LIG1        0.0599
      6 O           2.1067    3.3801   -6.9485 O.3     1  LIG1       -0.3912
      7 C           1.7009    3.6032   -4.6251 C.3     1  LIG1       -0.0258
      8 C           2.0601    3.0491   -3.2700 C.3     1  LIG1       -0.0442
      9 C           1.6486    1.5933   -3.0588 C.3     1  LIG1       -0.0193
     10 C           2.1029    1.1696   -1.6725 C.3     1  LIG1       -0.0401
     11 C           1.9489    0.6366   -4.2403 C.3     1  LIG1       -0.0273
     12 C           1.2413   -0.7457   -4.1593 C.3     1  LIG1       -0.0488
     13 C           0.8251   -1.2333   -2.7810 C.3     1  LIG1       -0.0489
     14 C          -0.0537   -0.1919   -2.0683 C.3     1  LIG1       -0.0289
     15 C           0.6271    1.1663   -1.9813 C.3     1  LIG1       -0.0194
     16 C          -0.2700    2.2617   -1.4252 C.3     1  LIG1       -0.0460
     17 C          -1.4167    1.7259   -0.5656 C.3     1  LIG1       -0.0463
     18 C          -1.0021    0.5075    0.3168 C.3     1  LIG1       -0.0233
     19 C           0.1314    0.9951    1.2416 C.3     1  LIG1       -0.0588
     20 C          -0.6173   -0.6737   -0.6665 C.3     1  LIG1       -0.0231
     21 C           0.3120   -1.6991    0.0162 C.3     1  LIG1       -0.0588
     22 C          -1.9947   -1.3449   -0.9198 C.3     1  LIG1       -0.0466
     23 C          -2.7384   -1.2906    0.4027 C.3     1  LIG1       -0.0489
     24 C          -2.2840    0.0020    1.1008 C.3     1  LIG1       -0.0325
     25 C          -2.2905   -0.0976    2.6666 C.3     1  LIG1       -0.0405
     26 C          -1.4356   -1.2296    3.3023 C.3     1  LIG1       -0.0499
     27 C          -1.3746   -1.1488    4.8388 C.3     1  LIG1       -0.0500
     28 C          -0.5193   -2.2439    5.5227 C.3     1  LIG1       -0.0415
     29 C           0.9508   -2.1804    5.0927 C.3     1  LIG1       -0.0622
     30 C          -0.7105   -2.1967    7.0731 C.3     1  LIG1       -0.0441
     31 C           0.1091   -3.2661    7.8023 C.3     1  LIG1       -0.0624
     32 C          -0.4285   -0.8256    7.6984 C.3     1  LIG1       -0.0624
     33 C          -3.7509   -0.2331    3.1458 C.3     1  LIG1       -0.0621
     34 H          -0.4011    1.6694   -5.2225 H       1  LIG1        0.0236
     35 H          -0.1470    0.3769   -6.4028 H       1  LIG1        0.0236
     36 H           0.0452    2.0386   -6.8936 H       1  LIG1        0.0236
     37 H           3.5321    0.4138   -6.5465 H       1  LIG1        0.0236
     38 H           2.3064    0.8497   -7.7465 H       1  LIG1        0.0236
     39 H           2.0895   -0.5868   -6.7586 H       1  LIG1        0.0236
     40 H           2.7122    2.9747   -7.6029 H       1  LIG1        0.2098
     41 H           0.6146    3.6772   -4.7449 H       1  LIG1        0.0290
     42 H           2.0756    4.6298   -4.7178 H       1  LIG1        0.0290
     43 H           1.6330    3.7058   -2.5050 H       1  LIG1        0.0272
     44 H           3.1496    3.1168   -3.1421 H       1  LIG1        0.0272
     45 H           2.4810    1.9249   -0.9869 H       1  LIG1        0.0276
     46 H           2.6653    0.2507   -1.5651 H       1  LIG1        0.0276
     47 H           3.0280    0.4360   -4.1543 H       1  LIG1        0.0312
     48 H           1.8974   -1.5012   -4.6106 H       1  LIG1        0.0268
     49 H           0.3307   -0.7614   -4.7619 H       1  LIG1        0.0268
     50 H           1.7220   -1.4920   -2.2104 H       1  LIG1        0.0268
     51 H           0.2598   -2.1662   -2.9016 H       1  LIG1        0.0268
     52 H          -0.9098   -0.0233   -2.7383 H       1  LIG1        0.0312
     53 H          -0.7010    2.8367   -2.2542 H       1  LIG1        0.0271
     54 H           0.3171    2.9670   -0.8253 H       1  LIG1        0.0271
     55 H          -2.2479    1.4479   -1.2271 H       1  LIG1        0.0271
     56 H          -1.8011    2.5423    0.0596 H       1  LIG1        0.0271
     57 H           1.0353    1.2591    0.6931 H       1  LIG1        0.0235
     58 H           0.4575    0.2549    1.9665 H       1  LIG1        0.0235
     59 H          -0.1742    1.8903    1.7949 H       1  LIG1        0.0235
     60 H           0.4023   -2.6183   -0.5727 H       1  LIG1        0.0235
     61 H          -0.0662   -2.0134    0.9899 H       1  LIG1        0.0235
     62 H           1.3172   -1.2924    0.1636 H       1  LIG1        0.0235
     63 H          -1.9027   -2.3738   -1.2842 H       1  LIG1        0.0271
     64 H          -2.5801   -0.7970   -1.6686 H       1  LIG1        0.0271
     65 H          -2.5158   -2.1863    0.9860 H       1  LIG1        0.0268
     66 H          -3.8220   -1.2817    0.2334 H       1  LIG1        0.0268
     67 H          -3.0663    0.7449    0.8810 H       1  LIG1        0.0309
     68 H          -1.9242    0.8624    3.0526 H       1  LIG1        0.0301
     69 H          -0.4172   -1.1743    2.9301 H       1  LIG1        0.0268
     70 H          -1.8176   -2.2147    3.0167 H       1  LIG1        0.0268
     71 H          -2.3882   -1.2363    5.2431 H       1  LIG1        0.0268
     72 H          -0.9978   -0.1567    5.1129 H       1  LIG1        0.0268
     73 H          -0.9052   -3.2172    5.1877 H       1  LIG1        0.0301
     74 H           1.4075   -1.2212    5.3522 H       1  LIG1        0.0232
     75 H           1.0551   -2.3246    4.0132 H       1  LIG1        0.0232
     76 H           1.5381   -2.9782    5.5574 H       1  LIG1        0.0232
     77 H          -1.7673   -2.4246    7.2707 H       1  LIG1        0.0298
     78 H           1.1794   -3.0356    7.7907 H       1  LIG1        0.0232
     79 H          -0.0405   -4.2521    7.3514 H       1  LIG1        0.0232
     80 H          -0.1963   -3.3310    8.8527 H       1  LIG1        0.0232
     81 H           0.5779   -0.4693    7.4598 H       1  LIG1        0.0232
     82 H          -0.5183   -0.8713    8.7895 H       1  LIG1        0.0232
     83 H          -1.1494   -0.0766    7.3560 H       1  LIG1        0.0232
     84 H          -4.1567   -1.2218    2.9067 H       1  LIG1        0.0233
     85 H          -4.3931    0.5221    2.6820 H       1  LIG1        0.0233
     86 H          -3.8351   -0.0853    4.2263 H       1  LIG1        0.0233
@<TRIPOS>BOND
     1     2     4    1
     2     4     7    1
     3     7     8    1
     4     8     9    1
     5     9    10    1
     6     9    11    1
     7     2    11    1
     8    11    12    1
     9    12    13    1
    10    13    14    1
    11    14    15    1
    12    10    15    1
    13     9    15    1
    14    15    16    1
    15    16    17    1
    16    17    18    1
    17    18    20    1
    18    14    20    1
    19    20    22    1
    20    22    23    1
    21    23    24    1
    22    18    24    1
    23    25    26    1
    24    26    27    1
    25    27    28    1
    26    28    29    1
    27    28    30    1
    28    30    31    1
    29    30    32    1
    30    25    33    1
    31     1     2    1
    32     2     3    1
    33     4     5    1
    34     4     6    1
    35    18    19    1
    36    20    21    1
    37    24    25    1
    38     1    34    1
    39     1    35    1
    40     1    36    1
    41     3    37    1
    42     3    38    1
    43     3    39    1
    44     6    40    1
    45     7    41    1
    46     7    42    1
    47     8    43    1
    48     8    44    1
    49    10    45    1
    50    10    46    1
    51    11    47    1
    52    12    48    1
    53    12    49    1
    54    13    50    1
    55    13    51    1
    56    14    52    1
    57    16    53    1
    58    16    54    1
    59    17    55    1
    60    17    56    1
    61    19    57    1
    62    19    58    1
    63    19    59    1
    64    21    60    1
    65    21    61    1
    66    21    62    1
    67    22    63    1
    68    22    64    1
    69    23    65    1
    70    23    66    1
    71    24    67    1
    72    25    68    1
    73    26    69    1
    74    26    70    1
    75    27    71    1
    76    27    72    1
    77    28    73    1
    78    29    74    1
    79    29    75    1
    80    29    76    1
    81    30    77    1
    82    31    78    1
    83    31    79    1
    84    31    80    1
    85    32    81    1
    86    32    82    1
    87    32    83    1
    88    33    84    1
    89    33    85    1
    90    33    86    1
