REMARK  Name = NuBBE_27
REMARK  9 active torsions:
REMARK  status: ('A' for Active; 'I' for Inactive)
REMARK    1  A    between atoms: C_1  and  O_2
REMARK    2  A    between atoms: O_2  and  C_3
REMARK    3  A    between atoms: C_4  and  O_5
REMARK    4  A    between atoms: O_5  and  C_6
REMARK    5  A    between atoms: C_7  and  O_8
REMARK    6  A    between atoms: O_8  and  C_9
REMARK    7  A    between atoms: C_11  and  C_12
REMARK    8  A    between atoms: C_12  and  C_13
REMARK    9  A    between atoms: C_13  and  C_14
REMARK                            x       y       z     vdW  Elec       q    Type
REMARK                         _______ _______ _______ _____ _____    ______ ____
ROOT
ATOM      1  C   LIG A   1      -0.632   3.335   0.733  0.00  0.00    +0.165 A 
ATOM      2  C   LIG A   1       0.459   3.561   1.601  0.00  0.00    +0.203 A 
ATOM      3  C   LIG A   1       1.137   2.444   2.158  0.00  0.00    +0.165 A 
ATOM      4  C   LIG A   1       0.717   1.143   1.843  0.00  0.00    +0.053 A 
ATOM      5  C   LIG A   1      -0.347   0.921   0.969  0.00  0.00    -0.040 A 
ATOM      6  C   LIG A   1      -0.982   2.022   0.397  0.00  0.00    +0.053 A 
ENDROOT
BRANCH   1   8
ATOM      7  C   LIG A   1      -2.718   4.164  -0.065  0.00  0.00    +0.277 C 
ATOM      8  O   LIG A   1      -1.335   4.390   0.208  0.00  0.00    -0.491 OA
ENDBRANCH   1   8
BRANCH   2   9
ATOM      9  O   LIG A   1       0.888   4.795   2.040  0.00  0.00    -0.488 OA
ATOM     10  C   LIG A   1       0.747   5.901   1.156  0.00  0.00    +0.277 C 
ENDBRANCH   2   9
BRANCH   3  11
ATOM     11  O   LIG A   1       2.198   2.698   3.002  0.00  0.00    -0.491 OA
ATOM     12  C   LIG A   1       2.887   1.567   3.533  0.00  0.00    +0.277 C 
ENDBRANCH   3  11
BRANCH   5  13
ATOM     13  C   LIG A   1      -0.854  -0.475   0.699  0.00  0.00    +0.044 C 
BRANCH  13  14
ATOM     14  C   LIG A   1      -0.778  -0.863  -0.772  0.00  0.00    +0.101 C 
BRANCH  14  15
ATOM     15  C   LIG A   1      -1.319  -2.268  -0.986  0.00  0.00    +0.222 C 
ATOM     16  N   LIG A   1      -0.437  -3.333  -0.853  0.00  0.00    -0.242 N 
ATOM     17  C   LIG A   1      -0.938  -4.672  -1.136  0.00  0.00    +0.116 C 
ATOM     18  C   LIG A   1      -0.626  -5.096  -2.568  0.00  0.00    +0.020 C 
ATOM     19  C   LIG A   1       0.873  -4.962  -2.825  0.00  0.00    +0.011 C 
ATOM     20  C   LIG A   1       1.360  -3.563  -2.474  0.00  0.00    +0.096 C 
ATOM     21  C   LIG A   1       0.912  -3.138  -1.090  0.00  0.00    +0.222 C 
ATOM     22  O   LIG A   1       1.668  -2.574  -0.294  0.00  0.00    -0.275 OA
ATOM     23  O   LIG A   1      -2.501  -2.421  -1.304  0.00  0.00    -0.275 OA
ENDBRANCH  14  15
ENDBRANCH  13  14
ENDBRANCH   5  13
TORSDOF 6
