@<TRIPOS>MOLECULE
NuBBE_1380
 29 28 0 0 0
SMALL
GASTEIGER

@<TRIPOS>ATOM
      1 C          -4.1480    0.2992   -0.0490 C.3     1  LIG1       -0.0440
      2 C          -2.6764    0.4967   -0.2990 C.2     1  LIG1       -0.0796
      3 C          -2.2769    1.9226   -0.5621 C.3     1  LIG1       -0.0440
      4 C          -1.8199   -0.5432   -0.2794 C.2     1  LIG1       -0.0852
      5 C          -0.3457   -0.4987   -0.5917 C.3     1  LIG1       -0.0316
      6 C           0.4963   -0.2773    0.6708 C.3     1  LIG1       -0.0172
      7 C           2.0181   -0.2164    0.4113 C.3     1  LIG1        0.0814
      8 O           2.2955    0.8605   -0.4860 O.3     1  LIG1       -0.3848
      9 C           2.7498    0.0782    1.7289 C.3     1  LIG1       -0.0324
     10 C           2.5390   -1.5043   -0.1969 C.2     1  LIG1       -0.0602
     11 C           3.1690   -1.6242   -1.3720 C.2     1  LIG1       -0.1000
     12 H          -4.7243    0.6392   -0.9161 H       1  LIG1        0.0274
     13 H          -4.4671    0.8736    0.8267 H       1  LIG1        0.0274
     14 H          -4.4040   -0.7506    0.1281 H       1  LIG1        0.0274
     15 H          -2.6709    2.5746    0.2250 H       1  LIG1        0.0274
     16 H          -2.6805    2.2561   -1.5230 H       1  LIG1        0.0274
     17 H          -1.1940    2.0699   -0.5794 H       1  LIG1        0.0274
     18 H          -2.2076   -1.5379   -0.0584 H       1  LIG1        0.0571
     19 H          -0.1375    0.2782   -1.3350 H       1  LIG1        0.0308
     20 H          -0.0795   -1.4483   -1.0711 H       1  LIG1        0.0308
     21 H           0.2728   -1.0621    1.4061 H       1  LIG1        0.0299
     22 H           0.1831    0.6747    1.1214 H       1  LIG1        0.0299
     23 H           2.0543    1.6895   -0.0399 H       1  LIG1        0.2106
     24 H           2.4539    1.0578    2.1248 H       1  LIG1        0.0260
     25 H           3.8349    0.1254    1.5798 H       1  LIG1        0.0260
     26 H           2.5385   -0.6750    2.4959 H       1  LIG1        0.0260
     27 H           2.3623   -2.4115    0.3814 H       1  LIG1        0.0594
     28 H           3.3718   -0.7564   -1.9965 H       1  LIG1        0.0533
     29 H           3.4931   -2.5903   -1.7448 H       1  LIG1        0.0533
@<TRIPOS>BOND
     1     1     2    1
     2     2     3    1
     3     2     4    2
     4     4     5    1
     5     5     6    1
     6     6     7    1
     7     7     8    1
     8     7     9    1
     9     7    10    1
    10    10    11    2
    11     1    12    1
    12     1    13    1
    13     1    14    1
    14     3    15    1
    15     3    16    1
    16     3    17    1
    17     4    18    1
    18     5    19    1
    19     5    20    1
    20     6    21    1
    21     6    22    1
    22     8    23    1
    23     9    24    1
    24     9    25    1
    25     9    26    1
    26    10    27    1
    27    11    28    1
    28    11    29    1
