@<TRIPOS>MOLECULE
NuBBE_1348
 96 101 0 0 0
SMALL
GASTEIGER

@<TRIPOS>ATOM
      1 C          -4.1803   -2.0563   -0.9861 C.3     1  LIG1       -0.0562
      2 C          -3.0080   -2.3235   -0.0091 C.3     1  LIG1        0.0055
      3 C          -2.3490   -3.6938   -0.3927 C.3     1  LIG1        0.1084
      4 O          -1.6596   -3.5618   -1.7126 O.3     1  LIG1       -0.4606
      5 C          -2.4122   -3.6060   -2.8724 C.2     1  LIG1        0.3117
      6 C          -1.7273   -2.7342   -3.9509 C.3     1  LIG1        0.0701
      7 C          -1.0488   -3.4541   -5.0880 C.ar    1  LIG1       -0.0368
      8 C           0.2861   -3.8494   -4.9331 C.ar    1  LIG1       -0.0581
      9 C           1.0118   -4.3693   -6.0058 C.ar    1  LIG1       -0.0615
     10 C           0.4364   -4.4358   -7.2708 C.ar    1  LIG1       -0.0617
     11 C          -0.8961   -4.0647   -7.4419 C.ar    1  LIG1       -0.0615
     12 C          -1.6528   -3.6203   -6.3476 C.ar    1  LIG1       -0.0581
     13 O          -3.5077   -4.0750   -2.9916 O.2     1  LIG1       -0.2505
     14 C          -1.2937   -4.0292    0.6813 C.3     1  LIG1       -0.0146
     15 C          -0.1977   -2.9749    0.8864 C.3     1  LIG1       -0.0437
     16 C          -0.5587   -1.4581    0.6982 C.3     1  LIG1       -0.0249
     17 C          -1.8597   -1.2594   -0.1502 C.3     1  LIG1       -0.0268
     18 C          -2.2652    0.1952   -0.0567 C.3     1  LIG1       -0.0486
     19 C          -1.2128    1.0823   -0.7323 C.3     1  LIG1       -0.0463
     20 C           0.3175    0.6669   -0.8227 C.3     1  LIG1       -0.0194
     21 C           0.6252   -0.7479   -0.1300 C.3     1  LIG1       -0.0257
     22 C           1.9784   -0.7796    0.6062 C.3     1  LIG1       -0.0306
     23 C           2.2498    0.4523    1.4035 C.2     1  LIG1       -0.0836
     24 C           1.9113    1.6885    0.9940 C.2     1  LIG1       -0.0634
     25 C           1.3813    1.8542   -0.4290 C.3     1  LIG1       -0.0051
     26 C           0.7960    3.2854   -0.6545 C.3     1  LIG1       -0.0429
     27 C           0.0967    3.8633    0.5699 C.3     1  LIG1       -0.0463
     28 C           1.0258    3.9691    1.7974 C.3     1  LIG1       -0.0255
     29 C           2.2444    2.9936    1.7151 C.3     1  LIG1       -0.0135
     30 C           2.9936    2.8756    3.0609 C.3     1  LIG1       -0.0408
     31 C           2.1337    2.6910    4.3341 C.3     1  LIG1       -0.0343
     32 C           1.6075    1.2553    4.5021 C.3     1  LIG1       -0.0598
     33 C           0.9538    3.6795    4.3423 C.3     1  LIG1       -0.0473
     34 C           0.1623    3.6685    3.0431 C.3     1  LIG1       -0.0466
     35 C           3.0351    2.9814    5.5476 C.3     1  LIG1       -0.0598
     36 C           1.5343    5.4288    1.8278 C.3     1  LIG1       -0.0590
     37 C           2.6922    1.8383   -1.3145 C.3     1  LIG1       -0.0553
     38 C           0.5530    0.4604   -2.3603 C.3     1  LIG1       -0.0585
     39 C          -0.6665   -0.8136    2.1113 C.3     1  LIG1       -0.0590
     40 H          -3.0782   -4.5121   -0.4267 H       1  LIG1        0.0739
     41 C          -3.7043   -2.3382    1.3703 C.3     1  LIG1       -0.0562
     42 H          -3.8402   -1.8379   -1.9970 H       1  LIG1        0.0236
     43 H          -4.7970   -1.2036   -0.6873 H       1  LIG1        0.0236
     44 H          -4.8483   -2.9288   -1.0136 H       1  LIG1        0.0236
     45 H          -0.9884   -2.0960   -3.4583 H       1  LIG1        0.0426
     46 H          -2.4620   -2.0209   -4.3373 H       1  LIG1        0.0426
     47 H           0.7827   -3.7111   -3.9758 H       1  LIG1        0.0620
     48 H           2.0388   -4.6923   -5.8603 H       1  LIG1        0.0618
     49 H           1.0297   -4.7691   -8.1191 H       1  LIG1        0.0618
     50 H          -1.3363   -4.1056   -8.4368 H       1  LIG1        0.0618
     51 H          -2.6998   -3.3680   -6.5074 H       1  LIG1        0.0620
     52 H          -0.8000   -4.9780    0.4361 H       1  LIG1        0.0301
     53 H          -1.7870   -4.2060    1.6459 H       1  LIG1        0.0301
     54 H           0.6257   -3.2461    0.2151 H       1  LIG1        0.0272
     55 H           0.2191   -3.1340    1.8933 H       1  LIG1        0.0272
     56 H          -1.5461   -1.3706   -1.1937 H       1  LIG1        0.0312
     57 H          -2.4441    0.5086    0.9781 H       1  LIG1        0.0268
     58 H          -3.2191    0.3761   -0.5595 H       1  LIG1        0.0268
     59 H          -1.3709    2.0658   -0.3242 H       1  LIG1        0.0271
     60 H          -1.5758    1.2060   -1.7602 H       1  LIG1        0.0271
     61 H           0.7695   -1.4456   -0.9694 H       1  LIG1        0.0315
     62 H           2.7922   -0.9248   -0.1150 H       1  LIG1        0.0310
     63 H           2.0435   -1.6463    1.2732 H       1  LIG1        0.0310
     64 H           2.7884    0.2806    2.3266 H       1  LIG1        0.0572
     65 H           0.1205    3.2947   -1.5177 H       1  LIG1        0.0274
     66 H           1.5953    3.9890   -0.9302 H       1  LIG1        0.0274
     67 H          -0.7672    3.2688    0.8595 H       1  LIG1        0.0271
     68 H          -0.3329    4.8376    0.3025 H       1  LIG1        0.0271
     69 H           2.9824    3.4725    1.0519 H       1  LIG1        0.0351
     70 H           3.5650    3.8082    3.1746 H       1  LIG1        0.0276
     71 H           3.7680    2.1001    3.0057 H       1  LIG1        0.0276
     72 H           0.9079    0.9778    3.7139 H       1  LIG1        0.0235
     73 H           1.0696    1.1397    5.4498 H       1  LIG1        0.0235
     74 H           2.4263    0.5275    4.5093 H       1  LIG1        0.0235
     75 H           1.3152    4.6971    4.5277 H       1  LIG1        0.0271
     76 H           0.2723    3.4457    5.1697 H       1  LIG1        0.0271
     77 H          -0.6556    4.3972    3.1149 H       1  LIG1        0.0271
     78 H          -0.3241    2.6902    2.9307 H       1  LIG1        0.0271
     79 H           3.4305    4.0024    5.5089 H       1  LIG1        0.0235
     80 H           3.8885    2.2942    5.5723 H       1  LIG1        0.0235
     81 H           2.4824    2.8714    6.4860 H       1  LIG1        0.0235
     82 H           2.0514    5.6763    0.8925 H       1  LIG1        0.0235
     83 H           2.2316    5.6155    2.6467 H       1  LIG1        0.0235
     84 H           0.6998    6.1321    1.9324 H       1  LIG1        0.0235
     85 H           3.4623    2.5205   -0.9297 H       1  LIG1        0.0238
     86 H           2.4972    2.1732   -2.3402 H       1  LIG1        0.0238
     87 H           3.1614    0.8514   -1.3663 H       1  LIG1        0.0238
     88 H           0.4797    1.4158   -2.8941 H       1  LIG1        0.0235
     89 H          -0.1823   -0.2107   -2.8002 H       1  LIG1        0.0235
     90 H           1.5365    0.0271   -2.5708 H       1  LIG1        0.0235
     91 H          -0.6452    0.2802    2.0663 H       1  LIG1        0.0235
     92 H           0.1597   -1.1077    2.7682 H       1  LIG1        0.0235
     93 H          -1.5855   -1.0953    2.6293 H       1  LIG1        0.0235
     94 H          -4.1848   -1.3712    1.5661 H       1  LIG1        0.0236
     95 H          -3.0461   -2.5518    2.2114 H       1  LIG1        0.0236
     96 H          -4.5017   -3.0940    1.3932 H       1  LIG1        0.0236
@<TRIPOS>BOND
     1     2     3    1
     2     4     5    1
     3     5     6    1
     4     6     7    1
     5     7     8   ar
     6     8     9   ar
     7     9    10   ar
     8    10    11   ar
     9    11    12   ar
    10     7    12   ar
    11     5    13    2
    12     3    14    1
    13    14    15    1
    14    15    16    1
    15    16    17    1
    16    17    18    1
    17    18    19    1
    18    19    20    1
    19    20    21    1
    20    21    22    1
    21    22    23    1
    22    23    24    2
    23    24    25    1
    24    25    26    1
    25    26    27    1
    26    27    28    1
    27    28    29    1
    28    24    29    1
    29    29    30    1
    30    30    31    1
    31    31    33    1
    32    33    34    1
    33    34    28    1
    34    20    25    1
    35    21    16    1
    36    17     2    1
    37     1     2    1
    38     2    41    1
    39    16    39    1
    40    20    38    1
    41    25    37    1
    42    28    36    1
    43    31    32    1
    44    31    35    1
    45     3    40    1
    46     3     4    1
    47     1    42    1
    48     1    43    1
    49     1    44    1
    50     6    45    1
    51     6    46    1
    52     8    47    1
    53     9    48    1
    54    10    49    1
    55    11    50    1
    56    12    51    1
    57    14    52    1
    58    14    53    1
    59    15    54    1
    60    15    55    1
    61    17    56    1
    62    18    57    1
    63    18    58    1
    64    19    59    1
    65    19    60    1
    66    21    61    1
    67    22    62    1
    68    22    63    1
    69    23    64    1
    70    26    65    1
    71    26    66    1
    72    27    67    1
    73    27    68    1
    74    29    69    1
    75    30    70    1
    76    30    71    1
    77    32    72    1
    78    32    73    1
    79    32    74    1
    80    33    75    1
    81    33    76    1
    82    34    77    1
    83    34    78    1
    84    35    79    1
    85    35    80    1
    86    35    81    1
    87    36    82    1
    88    36    83    1
    89    36    84    1
    90    37    85    1
    91    37    86    1
    92    37    87    1
    93    38    88    1
    94    38    89    1
    95    38    90    1
    96    39    91    1
    97    39    92    1
    98    39    93    1
    99    41    94    1
   100    41    95    1
   101    41    96    1
