REMARK  Name = NuBBE_1143
REMARK  6 active torsions:
REMARK  status: ('A' for Active; 'I' for Inactive)
REMARK    1  A    between atoms: C_12  and  O_13
REMARK    2  A    between atoms: O_13  and  C_14
REMARK    3  A    between atoms: C_14  and  C_15
REMARK    4  A    between atoms: C_15  and  C_17
REMARK    5  A    between atoms: C_15  and  O_20
REMARK    6  A    between atoms: C_17  and  C_18
REMARK                            x       y       z     vdW  Elec       q    Type
REMARK                         _______ _______ _______ _____ _____    ______ ____
ROOT
ATOM      1  O   LIG A   1      -3.450   3.850  -1.289  0.00  0.00    -0.245 OA
ATOM      2  C   LIG A   1      -2.254   3.624  -1.245  0.00  0.00    +0.337 A 
ATOM      3  C   LIG A   1      -1.280   4.654  -1.657  0.00  0.00    +0.092 A 
ATOM      4  C   LIG A   1       0.035   4.433  -1.656  0.00  0.00    +0.019 A 
ATOM      5  C   LIG A   1       0.550   3.131  -1.256  0.00  0.00    +0.022 A 
ATOM      6  C   LIG A   1       1.925   2.874  -1.298  0.00  0.00    +0.023 A 
ATOM      7  C   LIG A   1       2.383   1.592  -0.946  0.00  0.00    +0.025 A 
ATOM      8  C   LIG A   1       1.463   0.625  -0.532  0.00  0.00    +0.180 A 
ATOM      9  O   LIG A   1       2.132  -0.538  -0.268  0.00  0.00    -0.459 OA
ATOM     10  C   LIG A   1       3.453  -0.315  -0.476  0.00  0.00    +0.196 A 
ATOM     11  C   LIG A   1       3.664   0.980  -0.880  0.00  0.00    +0.050 A 
ATOM     12  C   LIG A   1       0.081   0.847  -0.410  0.00  0.00    +0.206 A 
ATOM     13  C   LIG A   1      -0.337   2.133  -0.823  0.00  0.00    +0.184 A 
ATOM     14  O   LIG A   1      -1.732   2.412  -0.803  0.00  0.00    -0.418 OA
ENDROOT
BRANCH  12  15
ATOM     15  O   LIG A   1      -0.887  -0.031   0.072  0.00  0.00    -0.482 OA
BRANCH  15  16
ATOM     16  C   LIG A   1      -0.420  -1.321   0.524  0.00  0.00    +0.265 C 
BRANCH  16  17
ATOM     17  C   LIG A   1      -1.600  -2.151   1.103  0.00  0.00    +0.177 C 
BRANCH  17  18
ATOM     18  C   LIG A   1      -1.198  -3.515   1.665  0.00  0.00    -0.048 C 
ATOM     19  C   LIG A   1      -0.544  -4.470   0.703  0.00  0.00    +0.041 C 
ATOM     20  C   LIG A   1      -1.432  -3.915   2.931  0.00  0.00    +0.010 C 
ENDBRANCH  17  18
BRANCH  17  21
ATOM     21  O   LIG A   1      -2.265  -1.408   2.132  0.00  0.00    -0.384 OA
ATOM     22  H   LIG A   1      -2.468  -0.535   1.751  0.00  0.00    +0.210 HD
ENDBRANCH  17  21
ENDBRANCH  16  17
ENDBRANCH  15  16
ENDBRANCH  12  15
TORSDOF 5
