REMARK  Name = NuBBE_1918
REMARK  13 active torsions:
REMARK  status: ('A' for Active; 'I' for Inactive)
REMARK    1  A    between atoms: C_1  and  C_3
REMARK    2  A    between atoms: C_1  and  O_14
REMARK    3  A    between atoms: C_3  and  C_4
REMARK    4  A    between atoms: C_4  and  C_5
REMARK    5  A    between atoms: C_5  and  C_6
REMARK    6  A    between atoms: C_6  and  C_7
REMARK    7  A    between atoms: C_7  and  C_8
REMARK    8  A    between atoms: C_8  and  C_9
REMARK    9  A    between atoms: C_9  and  C_10
REMARK   10  A    between atoms: C_10  and  C_11
REMARK   11  A    between atoms: C_11  and  C_12
REMARK   12  A    between atoms: C_12  and  C_13
REMARK   13  A    between atoms: O_14  and  C_15
REMARK                            x       y       z     vdW  Elec       q    Type
REMARK                         _______ _______ _______ _____ _____    ______ ____
ROOT
ATOM      1  C   LIG A   1       2.003  -0.629   1.222  0.00  0.00    +0.000 C 
ENDROOT
BRANCH   1   2
ATOM      2  C   LIG A   1       2.631  -0.982   2.576  0.00  0.00    +0.011 C 
BRANCH   2   3
ATOM      3  C   LIG A   1       4.159  -0.921   2.562  0.00  0.00    +0.121 C 
BRANCH   3   4
ATOM      4  C   LIG A   1       4.718   0.467   2.350  0.00  0.00    +0.312 C 
ATOM      5  O   LIG A   1       4.059   1.485   2.130  0.00  0.00    -0.250 OA
BRANCH   4   6
ATOM      6  O   LIG A   1       6.077   0.411   2.514  0.00  0.00    -0.434 OA
BRANCH   6   7
ATOM      7  C   LIG A   1       6.648   1.601   2.960  0.00  0.00    +0.191 C 
ATOM      8  C   LIG A   1       7.966   1.732   3.082  0.00  0.00    +0.050 C 
ENDBRANCH   6   7
ENDBRANCH   4   6
ENDBRANCH   3   4
ENDBRANCH   2   3
ENDBRANCH   1   2
BRANCH   1   9
ATOM      9  C   LIG A   1       0.470  -0.707   1.257  0.00  0.00    +0.000 C 
BRANCH   9  10
ATOM     10  C   LIG A   1      -0.139  -0.366  -0.113  0.00  0.00    -0.000 C 
BRANCH  10  11
ATOM     11  C   LIG A   1      -1.675  -0.453  -0.137  0.00  0.00    -0.000 C 
BRANCH  11  12
ATOM     12  C   LIG A   1      -2.246  -0.101  -1.525  0.00  0.00    -0.000 C 
BRANCH  12  13
ATOM     13  C   LIG A   1      -3.781  -0.187  -1.582  0.00  0.00    -0.000 C 
BRANCH  13  14
ATOM     14  C   LIG A   1      -4.337   0.172  -2.971  0.00  0.00    -0.000 C 
BRANCH  14  15
ATOM     15  C   LIG A   1      -5.868   0.085  -3.019  0.00  0.00    -0.003 C 
ATOM     16  C   LIG A   1      -6.421   0.434  -4.396  0.00  0.00    +0.004 C 
ENDBRANCH  14  15
ENDBRANCH  13  14
ENDBRANCH  12  13
ENDBRANCH  11  12
ENDBRANCH  10  11
ENDBRANCH   9  10
ENDBRANCH   1   9
TORSDOF 12
