@<TRIPOS>MOLECULE
NuBBE_876
 60 63 0 0 0
SMALL
GASTEIGER

@<TRIPOS>ATOM
      1 O          -1.5158    3.6522   -2.1291 O.3     1  LIG1       -0.5055
      2 C          -2.2350    2.8301   -1.3009 C.ar    1  LIG1        0.1375
      3 C          -3.6367    2.9733   -1.2545 C.ar    1  LIG1        0.0367
      4 C          -4.3672    2.0841   -0.4641 C.ar    1  LIG1        0.1314
      5 O          -5.7268    2.1168   -0.3131 O.3     1  LIG1       -0.4857
      6 C          -6.3891    3.3305   -0.7014 C.3     1  LIG1        0.1054
      7 C          -6.2603    4.3569    0.4349 C.3     1  LIG1       -0.0252
      8 C          -7.8720    2.9618   -0.8576 C.3     1  LIG1       -0.0252
      9 C          -5.8535    3.8393   -2.0451 C.3     1  LIG1       -0.0092
     10 C          -4.3489    4.0740   -1.9943 C.3     1  LIG1       -0.0171
     11 C          -3.7295    1.0647    0.2371 C.ar    1  LIG1        0.0228
     12 C          -2.3378    0.9480    0.2013 C.ar    1  LIG1        0.1343
     13 O          -1.7678   -0.0257    0.9731 O.3     1  LIG1       -0.5058
     14 C          -1.5622    1.8308   -0.5605 C.ar    1  LIG1        0.1005
     15 C          -0.0623    1.8096   -0.5177 C.2     1  LIG1        0.1705
     16 C           0.6718    0.4799   -0.3935 C.3     1  LIG1        0.0147
     17 C           2.1911    0.6629   -0.4535 C.3     1  LIG1       -0.0207
     18 C           2.9221   -0.6526   -0.3117 C.ar    1  LIG1       -0.0465
     19 C           3.2569   -1.3971   -1.4470 C.ar    1  LIG1       -0.0551
     20 C           3.9361   -2.6101   -1.3206 C.ar    1  LIG1       -0.0194
     21 C           4.2843   -3.0941   -0.0614 C.ar    1  LIG1        0.1245
     22 O           4.9667   -4.2806   -0.0475 O.3     1  LIG1       -0.4860
     23 C           5.5914   -4.6473    1.1960 C.3     1  LIG1        0.1054
     24 C           6.9403   -3.9203    1.3195 C.3     1  LIG1       -0.0252
     25 C           5.8628   -6.1564    1.1047 C.3     1  LIG1       -0.0252
     26 C           4.6556   -4.3808    2.3840 C.3     1  LIG1       -0.0093
     27 C           4.2637   -2.9104    2.4536 C.3     1  LIG1       -0.0206
     28 C           3.9234   -2.3861    1.0894 C.ar    1  LIG1       -0.0053
     29 C           3.2603   -1.1554    0.9544 C.ar    1  LIG1       -0.0519
     30 O           0.5572    2.8756   -0.5579 O.2     1  LIG1       -0.2918
     31 H          -1.8497    4.5596   -2.0380 H       1  LIG1        0.2922
     32 H          -6.6587    3.9454    1.3702 H       1  LIG1        0.0268
     33 H          -6.8005    5.2806    0.2048 H       1  LIG1        0.0268
     34 H          -5.2166    4.6130    0.6435 H       1  LIG1        0.0268
     35 H          -8.2665    2.5294    0.0696 H       1  LIG1        0.0268
     36 H          -8.0051    2.1974   -1.6317 H       1  LIG1        0.0268
     37 H          -8.4811    3.8328   -1.1212 H       1  LIG1        0.0268
     38 H          -6.3660    4.7570   -2.3570 H       1  LIG1        0.0307
     39 H          -6.0501    3.0835   -2.8180 H       1  LIG1        0.0307
     40 H          -4.1405    5.0258   -1.4909 H       1  LIG1        0.0317
     41 H          -3.9724    4.1528   -3.0207 H       1  LIG1        0.0317
     42 H          -4.3351    0.3915    0.8380 H       1  LIG1        0.0691
     43 H          -2.4604   -0.5612    1.3958 H       1  LIG1        0.2922
     44 H           0.3335   -0.1877   -1.1939 H       1  LIG1        0.0348
     45 H           0.4445    0.0260    0.5737 H       1  LIG1        0.0348
     46 H           2.5195    1.3410    0.3460 H       1  LIG1        0.0317
     47 H           2.4829    1.1491   -1.3919 H       1  LIG1        0.0317
     48 H           2.9992   -1.0331   -2.4393 H       1  LIG1        0.0621
     49 H           4.2038   -3.1746   -2.2091 H       1  LIG1        0.0654
     50 H           7.5898   -4.1664    0.4714 H       1  LIG1        0.0268
     51 H           7.4586   -4.1944    2.2440 H       1  LIG1        0.0268
     52 H           6.8265   -2.8316    1.3008 H       1  LIG1        0.0268
     53 H           6.4970   -6.3882    0.2409 H       1  LIG1        0.0268
     54 H           4.9304   -6.7139    0.9590 H       1  LIG1        0.0268
     55 H           6.3557   -6.5341    2.0068 H       1  LIG1        0.0268
     56 H           5.1108   -4.6934    3.3310 H       1  LIG1        0.0307
     57 H           3.7383   -4.9727    2.2568 H       1  LIG1        0.0307
     58 H           5.0864   -2.3190    2.8722 H       1  LIG1        0.0316
     59 H           3.4037   -2.8030    3.1252 H       1  LIG1        0.0316
     60 H           3.0036   -0.5851    1.8456 H       1  LIG1        0.0624
@<TRIPOS>BOND
     1     1     2    1
     2     2     3   ar
     3     3     4   ar
     4     4     5    1
     5     5     6    1
     6     6     7    1
     7     6     8    1
     8     6     9    1
     9     9    10    1
    10     3    10    1
    11     4    11   ar
    12    11    12   ar
    13    12    13    1
    14    12    14   ar
    15     2    14   ar
    16    14    15    1
    17    15    16    1
    18    16    17    1
    19    17    18    1
    20    18    19   ar
    21    19    20   ar
    22    20    21   ar
    23    21    22    1
    24    22    23    1
    25    23    24    1
    26    23    25    1
    27    23    26    1
    28    26    27    1
    29    27    28    1
    30    21    28   ar
    31    28    29   ar
    32    18    29   ar
    33    15    30    2
    34     1    31    1
    35     7    32    1
    36     7    33    1
    37     7    34    1
    38     8    35    1
    39     8    36    1
    40     8    37    1
    41     9    38    1
    42     9    39    1
    43    10    40    1
    44    10    41    1
    45    11    42    1
    46    13    43    1
    47    16    44    1
    48    16    45    1
    49    17    46    1
    50    17    47    1
    51    19    48    1
    52    20    49    1
    53    24    50    1
    54    24    51    1
    55    24    52    1
    56    25    53    1
    57    25    54    1
    58    25    55    1
    59    26    56    1
    60    26    57    1
    61    27    58    1
    62    27    59    1
    63    29    60    1
