@<TRIPOS>MOLECULE
NuBBE_308
 58 58 0 0 0
SMALL
GASTEIGER

@<TRIPOS>ATOM
      1 H           2.7533   -4.5711    1.0349 H       1  LIG1        0.1225
      2 N           2.2222   -4.2396    0.2297 N.3     1  LIG1       -0.3083
      3 C           0.8599   -3.9090    0.6465 C.3     1  LIG1        0.0310
      4 C           0.0713   -5.1468    1.0734 C.3     1  LIG1       -0.0473
      5 C           0.7526   -2.6599    1.5747 C.3     1  LIG1        0.0703
      6 O          -0.6166   -2.2435    1.7309 O.3     1  LIG1       -0.3903
      7 C           1.5337   -1.4685    0.9909 C.3     1  LIG1       -0.0240
      8 C           2.9285   -1.8835    0.5580 C.3     1  LIG1       -0.0352
      9 C           2.9169   -3.0938   -0.3833 C.3     1  LIG1        0.0080
     10 C           2.5886   -2.8248   -1.8885 C.3     1  LIG1       -0.0375
     11 C           1.4001   -2.0125   -2.4814 C.3     1  LIG1       -0.0516
     12 C          -0.0497   -2.4615   -2.2690 C.3     1  LIG1       -0.0530
     13 C          -1.1318   -1.6089   -2.9562 C.3     1  LIG1       -0.0531
     14 C          -1.7751   -0.4853   -2.0873 C.3     1  LIG1       -0.0531
     15 C          -0.8762    0.6998   -1.6732 C.3     1  LIG1       -0.0531
     16 C          -1.5896    1.7861   -0.7915 C.3     1  LIG1       -0.0531
     17 C          -0.6005    2.8797   -0.3015 C.3     1  LIG1       -0.0530
     18 C          -1.1279    4.1968    0.3530 C.3     1  LIG1       -0.0507
     19 C          -1.6908    4.1896    1.7878 C.3     1  LIG1       -0.0271
     20 C          -2.0830    5.5983    2.3396 C.3     1  LIG1        0.0524
     21 O          -2.6493    5.4255    3.6457 O.3     1  LIG1       -0.3921
     22 C          -1.0044    6.6822    2.4497 C.3     1  LIG1       -0.0389
     23 H           0.3522   -3.6850   -0.2604 H       1  LIG1        0.0483
     24 H           0.3476   -5.5483    2.0490 H       1  LIG1        0.0245
     25 H           0.2138   -5.9395    0.3245 H       1  LIG1        0.0245
     26 H          -1.0040   -4.9263    1.0671 H       1  LIG1        0.0245
     27 H           1.1452   -2.8856    2.5702 H       1  LIG1        0.0609
     28 H          -0.9268   -1.8990    0.9063 H       1  LIG1        0.2098
     29 H           1.5921   -0.6541    1.7239 H       1  LIG1        0.0291
     30 H           1.0020   -1.0434    0.1403 H       1  LIG1        0.0291
     31 H           3.4954   -2.1463    1.4624 H       1  LIG1        0.0281
     32 H           3.4618   -1.0422    0.1007 H       1  LIG1        0.0281
     33 H           3.9671   -3.4230   -0.4177 H       1  LIG1        0.0460
     34 H           2.6253   -3.7933   -2.4060 H       1  LIG1        0.0280
     35 H           3.4758   -2.2878   -2.2627 H       1  LIG1        0.0280
     36 H           1.5580   -2.0511   -3.5711 H       1  LIG1        0.0266
     37 H           1.5101   -0.9596   -2.2154 H       1  LIG1        0.0266
     38 H          -0.3261   -2.4204   -1.2265 H       1  LIG1        0.0265
     39 H          -0.1361   -3.5005   -2.6214 H       1  LIG1        0.0265
     40 H          -1.9545   -2.3033   -3.1917 H       1  LIG1        0.0265
     41 H          -0.7789   -1.2234   -3.9167 H       1  LIG1        0.0265
     42 H          -2.2074   -0.9435   -1.1885 H       1  LIG1        0.0265
     43 H          -2.6201   -0.0882   -2.6636 H       1  LIG1        0.0265
     44 H          -0.4907    1.1730   -2.5845 H       1  LIG1        0.0265
     45 H          -0.0136    0.3232   -1.1223 H       1  LIG1        0.0265
     46 H          -2.0520    1.3032    0.0761 H       1  LIG1        0.0265
     47 H          -2.3901    2.2436   -1.3842 H       1  LIG1        0.0265
     48 H          -0.0456    3.2065   -1.1925 H       1  LIG1        0.0265
     49 H           0.1394    2.4163    0.3615 H       1  LIG1        0.0265
     50 H          -1.8738    4.6459   -0.3109 H       1  LIG1        0.0266
     51 H          -0.2694    4.8809    0.3670 H       1  LIG1        0.0266
     52 H          -0.9990    3.7039    2.4874 H       1  LIG1        0.0290
     53 H          -2.6009    3.5754    1.8069 H       1  LIG1        0.0290
     54 H          -2.8854    6.0022    1.7131 H       1  LIG1        0.0590
     55 H          -1.9359    5.5036    4.3028 H       1  LIG1        0.2098
     56 H          -0.1028    6.3241    2.9571 H       1  LIG1        0.0254
     57 H          -1.3779    7.5184    3.0612 H       1  LIG1        0.0254
     58 H          -0.7271    7.0945    1.4757 H       1  LIG1        0.0254
@<TRIPOS>BOND
     1     1     2    1
     2     2     3    1
     3     3     4    1
     4     3     5    1
     5     5     6    1
     6     5     7    1
     7     7     8    1
     8     8     9    1
     9     2     9    1
    10     9    10    1
    11    10    11    1
    12    11    12    1
    13    12    13    1
    14    13    14    1
    15    14    15    1
    16    15    16    1
    17    16    17    1
    18    17    18    1
    19    18    19    1
    20    19    20    1
    21    20    21    1
    22    20    22    1
    23     3    23    1
    24     4    24    1
    25     4    25    1
    26     4    26    1
    27     5    27    1
    28     6    28    1
    29     7    29    1
    30     7    30    1
    31     8    31    1
    32     8    32    1
    33     9    33    1
    34    10    34    1
    35    10    35    1
    36    11    36    1
    37    11    37    1
    38    12    38    1
    39    12    39    1
    40    13    40    1
    41    13    41    1
    42    14    42    1
    43    14    43    1
    44    15    44    1
    45    15    45    1
    46    16    46    1
    47    16    47    1
    48    17    48    1
    49    17    49    1
    50    18    50    1
    51    18    51    1
    52    19    52    1
    53    19    53    1
    54    20    54    1
    55    21    55    1
    56    22    56    1
    57    22    57    1
    58    22    58    1
