REMARK  Name = NuBBE_232
REMARK  20 active torsions:
REMARK  status: ('A' for Active; 'I' for Inactive)
REMARK    1  A    between atoms: C_1  and  C_2
REMARK    2  A    between atoms: C_4  and  O_6
REMARK    3  A    between atoms: O_6  and  C_7
REMARK    4  A    between atoms: C_7  and  C_8
REMARK    5  A    between atoms: C_10  and  O_12
REMARK    6  A    between atoms: O_12  and  C_13
REMARK    7  A    between atoms: C_13  and  C_14
REMARK    8  A    between atoms: C_18  and  O_20
REMARK    9  A    between atoms: O_20  and  C_21
REMARK   10  A    between atoms: C_21  and  C_22
REMARK   11  A    between atoms: C_25  and  O_27
REMARK   12  A    between atoms: O_27  and  C_28
REMARK   13  A    between atoms: C_28  and  C_29
REMARK   14  A    between atoms: C_32  and  O_34
REMARK   15  A    between atoms: O_34  and  C_35
REMARK   16  A    between atoms: C_39  and  C_40
REMARK   17  A    between atoms: C_39  and  C_41
REMARK   18  A    between atoms: C_41  and  C_42
REMARK   19  A    between atoms: C_43  and  C_44
REMARK   20  A    between atoms: C_43  and  C_46
REMARK                            x       y       z     vdW  Elec       q    Type
REMARK                         _______ _______ _______ _____ _____    ______ ____
ROOT
ATOM      1  C   LIG A   1      -2.830   0.959   2.930  0.00  0.00    +0.012 C 
ATOM      2  C   LIG A   1      -2.144   0.319   1.703  0.00  0.00    +0.037 C 
ATOM      3  C   LIG A   1      -1.188  -0.793   2.187  0.00  0.00    +0.221 C 
ATOM      4  C   LIG A   1       0.081  -1.154   1.377  0.00  0.00    +0.234 C 
ATOM      5  C   LIG A   1       0.291  -0.505  -0.038  0.00  0.00    +0.104 C 
ATOM      6  C   LIG A   1       0.396  -1.700  -0.983  0.00  0.00    +0.013 C 
ATOM      7  C   LIG A   1       1.750  -2.329  -0.774  0.00  0.00    +0.343 C 
ATOM      8  O   LIG A   1       2.580  -1.241  -0.323  0.00  0.00    -0.297 OA
ATOM      9  C   LIG A   1       1.772  -0.040  -0.297  0.00  0.00    +0.328 C 
ATOM     10  C   LIG A   1      -0.506  -2.056  -1.903  0.00  0.00    +0.010 C 
ATOM     11  C   LIG A   1      -1.730  -1.301  -2.235  0.00  0.00    +0.141 C 
ATOM     12  C   LIG A   1      -1.904  -0.009  -1.448  0.00  0.00    +0.041 C 
ATOM     13  C   LIG A   1      -0.814   0.529  -0.471  0.00  0.00    +0.018 C 
ATOM     14  C   LIG A   1      -1.540   1.355   0.693  0.00  0.00    -0.018 C 
ATOM     15  C   LIG A   1      -2.750   2.188   0.115  0.00  0.00    +0.012 C 
ENDROOT
BRANCH  11  16
ATOM     16  O   LIG A   1      -1.640  -1.052  -3.643  0.00  0.00    -0.376 OA
ATOM     17  C   LIG A   1      -2.823  -0.508  -4.212  0.00  0.00    +0.194 C 
ENDBRANCH  11  16
BRANCH   3  18
ATOM     18  O   LIG A   1      -1.944  -2.033   2.449  0.00  0.00    -0.458 OA
BRANCH  18  19
ATOM     19  C   LIG A   1      -2.332  -2.787   1.379  0.00  0.00    +0.304 C 
ATOM     20  C   LIG A   1      -1.763  -4.182   1.468  0.00  0.00    +0.136 C 
ATOM     21  O   LIG A   1      -2.982  -2.381   0.423  0.00  0.00    -0.251 OA
ENDBRANCH  18  19
ENDBRANCH   3  18
BRANCH   4  22
ATOM     22  O   LIG A   1       1.278  -1.085   2.232  0.00  0.00    -0.457 OA
BRANCH  22  23
ATOM     23  C   LIG A   1       1.551  -2.193   2.988  0.00  0.00    +0.304 C 
ATOM     24  C   LIG A   1       2.886  -2.109   3.676  0.00  0.00    +0.136 C 
ATOM     25  O   LIG A   1       0.844  -3.190   3.080  0.00  0.00    -0.251 OA
ENDBRANCH  22  23
ENDBRANCH   4  22
BRANCH   7  26
ATOM     26  O   LIG A   1       2.272  -2.929  -1.956  0.00  0.00    -0.431 OA
BRANCH  26  27
ATOM     27  C   LIG A   1       1.864  -4.214  -2.134  0.00  0.00    +0.306 C 
ATOM     28  C   LIG A   1       2.477  -4.806  -3.359  0.00  0.00    +0.136 C 
ATOM     29  O   LIG A   1       1.060  -4.816  -1.424  0.00  0.00    -0.251 OA
ENDBRANCH  26  27
ENDBRANCH   7  26
BRANCH   9  30
ATOM     30  O   LIG A   1       1.883   0.575  -1.600  0.00  0.00    -0.434 OA
BRANCH  30  31
ATOM     31  C   LIG A   1       3.068   1.205  -1.859  0.00  0.00    +0.306 C 
ATOM     32  C   LIG A   1       3.282   1.207  -3.359  0.00  0.00    +0.136 C 
ATOM     33  O   LIG A   1       3.835   1.659  -1.046  0.00  0.00    -0.251 OA
ENDBRANCH  30  31
ENDBRANCH   9  30
BRANCH  14  34
ATOM     34  C   LIG A   1      -0.599   2.403   1.388  0.00  0.00    +0.034 C 
BRANCH  34  35
ATOM     35  C   LIG A   1      -0.022   3.475   0.480  0.00  0.00    -0.023 C 
ATOM     36  C   LIG A   1       0.728   4.533   0.846  0.00  0.00    -0.055 C 
ATOM     37  C   LIG A   1       1.264   5.520  -0.167  0.00  0.00    +0.043 C 
BRANCH  36  38
ATOM     38  C   LIG A   1       1.044   4.839   2.227  0.00  0.00    -0.005 C 
ATOM     39  C   LIG A   1       0.670   5.999   2.782  0.00  0.00    +0.008 C 
ENDBRANCH  36  38
ENDBRANCH  34  35
ENDBRANCH  14  34
TORSDOF 12
