@<TRIPOS>MOLECULE
NuBBE_1891
 44 49 0 0 0
SMALL
GASTEIGER

@<TRIPOS>ATOM
      1 C          -5.4586   -2.4177   -0.9216 C.3     1  LIG1       -0.0215
      2 C          -3.9990   -2.4182   -1.3973 C.3     1  LIG1        0.1235
      3 C          -3.7633   -3.6388   -2.2978 C.3     1  LIG1       -0.0215
      4 C          -3.1018   -2.5539   -0.1657 C.2     1  LIG1       -0.0408
      5 C          -2.8404   -1.4062    0.4544 C.2     1  LIG1       -0.0478
      6 C          -2.1135   -0.5839   -0.5273 C.ar    1  LIG1        0.0585
      7 C          -0.8421   -0.1020   -0.2521 C.ar    1  LIG1        0.1378
      8 C          -0.1812    0.7678   -1.1313 C.ar    1  LIG1        0.0358
      9 C           1.2735    1.1343   -0.8670 C.3     1  LIG1        0.1385
     10 H           1.8283    1.0766   -1.8165 H       1  LIG1        0.0793
     11 C           1.8720    0.1504    0.1484 C.3     1  LIG1        0.0631
     12 C           2.9520    0.9798    0.7144 C.ar    1  LIG1        0.0082
     13 C           2.6319    2.3218    0.4808 C.ar    1  LIG1        0.1288
     14 C           3.2962    3.3309    1.1540 C.ar    1  LIG1        0.0259
     15 C           4.2765    2.9192    2.0500 C.ar    1  LIG1        0.1697
     16 O           5.0152    3.7320    2.8592 O.3     1  LIG1       -0.4525
     17 C           5.8674    2.7695    3.5208 C.3     1  LIG1        0.2332
     18 O           5.5195    1.4032    3.2320 O.3     1  LIG1       -0.4526
     19 C           4.5815    1.5846    2.2656 C.ar    1  LIG1        0.1667
     20 C           3.9334    0.5723    1.6054 C.ar    1  LIG1       -0.0090
     21 O           1.5118    2.4756   -0.3268 O.3     1  LIG1       -0.4830
     22 H           2.1943   -0.7805   -0.3290 H       1  LIG1        0.0423
     23 C           0.8882   -0.0687    1.2882 C.3     1  LIG1        0.1002
     24 O          -0.2731   -0.7048    0.8343 O.3     1  LIG1       -0.4901
     25 C          -0.8650    1.1278   -2.3110 C.ar    1  LIG1       -0.0481
     26 C          -2.0963    0.5124   -2.6535 C.ar    1  LIG1       -0.0187
     27 C          -2.6833   -0.4086   -1.7839 C.ar    1  LIG1        0.1324
     28 O          -3.7589   -1.1836   -2.1755 O.3     1  LIG1       -0.4815
     29 H          -5.6751   -1.5402   -0.3021 H       1  LIG1        0.0271
     30 H          -5.6806   -3.3121   -0.3253 H       1  LIG1        0.0271
     31 H          -6.1501   -2.3843   -1.7677 H       1  LIG1        0.0271
     32 H          -2.7096   -3.7219   -2.5920 H       1  LIG1        0.0271
     33 H          -4.3461   -3.5775   -3.2221 H       1  LIG1        0.0271
     34 H          -4.0331   -4.5684   -1.7790 H       1  LIG1        0.0271
     35 H          -2.2146   -3.1595   -0.3860 H       1  LIG1        0.0611
     36 H          -3.6649   -0.7860    0.8310 H       1  LIG1        0.0624
     37 H           3.0368    4.3737    1.0346 H       1  LIG1        0.0692
     38 H           6.9007    2.9328    3.1932 H       1  LIG1        0.1166
     39 H           5.8140    2.9245    4.6046 H       1  LIG1        0.1166
     40 H           4.1099   -0.4698    1.8422 H       1  LIG1        0.0659
     41 H           0.5898    0.8616    1.7923 H       1  LIG1        0.0704
     42 H           1.3293   -0.7099    2.0585 H       1  LIG1        0.0704
     43 H          -0.4103    1.8196   -3.0203 H       1  LIG1        0.0624
     44 H          -2.5613    0.7262   -3.6131 H       1  LIG1        0.0654
@<TRIPOS>BOND
     1     2     4    1
     2     4     5    2
     3     5     6    1
     4     6     7   ar
     5     7     8   ar
     6     8     9    1
     7     9    11    1
     8    11    12    1
     9    12    13   ar
    10    13    14   ar
    11    14    15   ar
    12    15    16    1
    13    16    17    1
    14    17    18    1
    15    15    19   ar
    16    18    19    1
    17    19    20   ar
    18    12    20   ar
    19    13    21    1
    20     9    21    1
    21    11    23    1
    22    23    24    1
    23     7    24    1
    24     8    25   ar
    25    25    26   ar
    26    26    27   ar
    27     6    27   ar
    28    27    28    1
    29     2    28    1
    30     1     2    1
    31     2     3    1
    32     9    10    1
    33    11    22    1
    34     1    29    1
    35     1    30    1
    36     1    31    1
    37     3    32    1
    38     3    33    1
    39     3    34    1
    40     4    35    1
    41     5    36    1
    42    14    37    1
    43    17    38    1
    44    17    39    1
    45    20    40    1
    46    23    41    1
    47    23    42    1
    48    25    43    1
    49    26    44    1
