REMARK  Name = NuBBE_320
REMARK  4 active torsions:
REMARK  status: ('A' for Active; 'I' for Inactive)
REMARK    1  A    between atoms: O_1  and  C_2
REMARK    2  A    between atoms: C_7  and  C_8
REMARK    3  A    between atoms: C_12  and  O_13
REMARK    4  A    between atoms: C_15  and  O_16
REMARK                            x       y       z     vdW  Elec       q    Type
REMARK                         _______ _______ _______ _____ _____    ______ ____
ROOT
ATOM      1  C   LIG A   1      -0.443  -0.494   0.072  0.00  0.00    +0.139 A 
ATOM      2  C   LIG A   1       0.177  -1.661  -0.155  0.00  0.00    +0.098 A 
ATOM      3  C   LIG A   1       1.608  -1.655  -0.489  0.00  0.00    +0.197 A 
ATOM      4  C   LIG A   1       2.272  -0.349  -0.565  0.00  0.00    +0.105 A 
ATOM      5  C   LIG A   1       3.630  -0.232  -0.878  0.00  0.00    +0.135 A 
ATOM      6  C   LIG A   1       4.229   1.024  -0.943  0.00  0.00    +0.091 A 
ATOM      7  C   LIG A   1       3.459   2.156  -0.693  0.00  0.00    +0.124 A 
ATOM      8  C   LIG A   1       2.106   2.051  -0.380  0.00  0.00    +0.092 A 
ATOM      9  C   LIG A   1       1.512   0.792  -0.316  0.00  0.00    +0.146 A 
ATOM     10  O   LIG A   1       0.176   0.745  -0.005  0.00  0.00    -0.454 OA
ATOM     11  O   LIG A   1       2.225  -2.695  -0.695  0.00  0.00    -0.287 OA
ENDROOT
BRANCH   1  17
ATOM     12  C   LIG A   1      -4.609  -0.262   1.022  0.00  0.00    +0.117 A 
ATOM     13  C   LIG A   1      -3.827  -1.241   1.626  0.00  0.00    +0.046 A 
ATOM     14  C   LIG A   1      -2.465  -1.321   1.317  0.00  0.00    +0.015 A 
ATOM     15  C   LIG A   1      -4.051   0.635   0.121  0.00  0.00    +0.046 A 
ATOM     16  C   LIG A   1      -2.690   0.554  -0.185  0.00  0.00    +0.015 A 
ATOM     17  C   LIG A   1      -1.880  -0.430   0.401  0.00  0.00    +0.018 A 
BRANCH  12  18
ATOM     18  O   LIG A   1      -5.939  -0.147   1.293  0.00  0.00    -0.507 OA
ATOM     19  H   LIG A   1      -6.187  -0.829   1.938  0.00  0.00    +0.292 HD
ENDBRANCH  12  18
ENDBRANCH   1  17
BRANCH   5  20
ATOM     20  O   LIG A   1       4.433  -1.312  -1.133  0.00  0.00    -0.506 OA
ATOM     21  H   LIG A   1       3.885  -2.126  -1.054  0.00  0.00    +0.292 HD
ENDBRANCH   5  20
BRANCH   7  22
ATOM     22  O   LIG A   1       4.001   3.407  -0.746  0.00  0.00    -0.506 OA
ATOM     23  H   LIG A   1       4.943   3.332  -0.973  0.00  0.00    +0.292 HD
ENDBRANCH   7  22
TORSDOF 4
