@<TRIPOS>MOLECULE
NuBBE_1769
 36 39 0 0 0
SMALL
GASTEIGER

@<TRIPOS>ATOM
      1 O          -2.8062   -1.8569    0.6667 O.3     1  LIG1       -0.3843
      2 C          -1.3791   -1.7956    0.7048 C.3     1  LIG1        0.1134
      3 H          -0.9985   -2.8226    0.6401 H       1  LIG1        0.0672
      4 C          -0.8646   -1.0021   -0.4972 C.3     1  LIG1        0.1299
      5 H          -0.9537   -1.6333   -1.3926 H       1  LIG1        0.0666
      6 C           0.5804   -0.5785   -0.2301 C.3     1  LIG1        0.1543
      7 H           1.2167   -1.4673   -0.1176 H       1  LIG1        0.0812
      8 C           1.0712    0.2357   -1.4113 C.ar    1  LIG1        0.0043
      9 C           0.1407    0.9114   -2.2364 C.ar    1  LIG1        0.0299
     10 C          -1.3391    0.8254   -1.9355 C.3     1  LIG1        0.0773
     11 O          -1.6852    0.1669   -0.7107 O.3     1  LIG1       -0.3649
     12 C           0.6266    1.5958   -3.3576 C.ar    1  LIG1        0.1641
     13 O          -0.1704    2.2544   -4.2585 O.3     1  LIG1       -0.5031
     14 C           1.9959    1.6202   -3.6357 C.ar    1  LIG1        0.1586
     15 C           2.9105    0.9877   -2.8098 C.ar    1  LIG1       -0.0161
     16 C           2.4486    0.2989   -1.6910 C.ar    1  LIG1       -0.0510
     17 O           2.4524    2.2729   -4.7468 O.3     1  LIG1       -0.5033
     18 O           0.7127    0.2349    0.9445 O.3     1  LIG1       -0.4810
     19 C           0.0965   -0.2659    2.0617 C.ar    1  LIG1        0.1307
     20 C          -0.9142   -1.2310    2.0172 C.ar    1  LIG1        0.0254
     21 C          -1.4615   -1.7044    3.2221 C.ar    1  LIG1       -0.0491
     22 C          -1.0290   -1.1984    4.4476 C.ar    1  LIG1       -0.0196
     23 C          -0.0493   -0.2127    4.4675 C.ar    1  LIG1        0.1204
     24 C           0.5113    0.2602    3.2855 C.ar    1  LIG1        0.0219
     25 O           0.3961    0.3144    5.6446 O.3     1  LIG1       -0.5066
     26 H          -3.0858   -0.9357    0.4918 H       1  LIG1        0.2103
     27 H          -1.8409    0.2916   -2.7506 H       1  LIG1        0.0611
     28 H          -1.7607    1.8344   -1.8755 H       1  LIG1        0.0611
     29 H          -1.0882    2.2686   -3.9452 H       1  LIG1        0.2923
     30 H           3.9709    1.0249   -3.0407 H       1  LIG1        0.0655
     31 H           3.1656   -0.2004   -1.0422 H       1  LIG1        0.0623
     32 H           1.6455    2.6293   -5.1688 H       1  LIG1        0.2923
     33 H          -2.2340   -2.4720    3.2009 H       1  LIG1        0.0623
     34 H          -1.4679   -1.5810    5.3646 H       1  LIG1        0.0654
     35 H           1.2769    1.0300    3.3195 H       1  LIG1        0.0691
     36 H          -0.0902   -0.0997    6.3746 H       1  LIG1        0.2921
@<TRIPOS>BOND
     1     2     4    1
     2     4     6    1
     3     6     8    1
     4     8     9   ar
     5     9    10    1
     6    10    11    1
     7     4    11    1
     8     9    12   ar
     9    12    14   ar
    10    14    15   ar
    11    15    16   ar
    12     8    16   ar
    13     6    18    1
    14    18    19    1
    15    19    20   ar
    16     2    20    1
    17    20    21   ar
    18    21    22   ar
    19    22    23   ar
    20    23    24   ar
    21    19    24   ar
    22     1     2    1
    23     2     3    1
    24     4     5    1
    25     6     7    1
    26    12    13    1
    27    14    17    1
    28    23    25    1
    29     1    26    1
    30    10    27    1
    31    10    28    1
    32    13    29    1
    33    15    30    1
    34    16    31    1
    35    17    32    1
    36    21    33    1
    37    22    34    1
    38    24    35    1
    39    25    36    1
