@<TRIPOS>MOLECULE
NuBBE_2215
 30 31 0 0 0
SMALL
GASTEIGER

@<TRIPOS>ATOM
      1 O          -3.2014   -0.8183    0.3501 O.3     1  LIG1       -0.5058
      2 C          -1.8360   -0.6961    0.3274 C.ar    1  LIG1        0.1346
      3 C          -1.1697    0.5321    0.4004 C.ar    1  LIG1        0.1040
      4 C           0.2361    0.5644    0.3838 C.ar    1  LIG1       -0.0200
      5 C           0.9680   -0.6477    0.3320 C.ar    1  LIG1       -0.0045
      6 C           0.2751   -1.8739    0.2188 C.ar    1  LIG1        0.1267
      7 C          -1.1218   -1.8868    0.2219 C.ar    1  LIG1        0.0226
      8 O           1.0542   -2.9975    0.1133 O.3     1  LIG1       -0.4947
      9 C           0.3925   -4.2496   -0.0202 C.3     1  LIG1        0.0788
     10 C           2.4781   -0.6315    0.3474 C.3     1  LIG1       -0.0360
     11 C           0.9106    1.9078    0.4808 C.3     1  LIG1        0.0106
     12 C           0.0438    2.9915   -0.1521 C.3     1  LIG1        0.1046
     13 H           0.4642    3.9650    0.1269 H       1  LIG1        0.0734
     14 O          -1.2913    2.9621    0.3842 O.3     1  LIG1       -0.4577
     15 C          -1.9543    1.7882    0.5190 C.2     1  LIG1        0.3433
     16 O          -3.1601    1.7441    0.7405 O.2     1  LIG1       -0.2448
     17 C          -0.0082    2.9324   -1.6775 C.3     1  LIG1       -0.0274
     18 H          -3.5931    0.0684    0.5200 H       1  LIG1        0.2922
     19 H          -1.6894   -2.8088    0.1536 H       1  LIG1        0.0691
     20 H           1.1603   -5.0249   -0.1035 H       1  LIG1        0.0660
     21 H          -0.2121   -4.2818   -0.9325 H       1  LIG1        0.0660
     22 H          -0.2107   -4.4734    0.8657 H       1  LIG1        0.0660
     23 H           2.8508    0.0892    1.0827 H       1  LIG1        0.0279
     24 H           2.8573   -0.3678   -0.6447 H       1  LIG1        0.0279
     25 H           2.9050   -1.5970    0.6355 H       1  LIG1        0.0279
     26 H           1.8908    1.9088   -0.0065 H       1  LIG1        0.0349
     27 H           1.0562    2.1257    1.5460 H       1  LIG1        0.0349
     28 H          -0.4728    2.0096   -2.0392 H       1  LIG1        0.0265
     29 H           0.9946    3.0086   -2.1089 H       1  LIG1        0.0265
     30 H          -0.6166    3.7570   -2.0647 H       1  LIG1        0.0265
@<TRIPOS>BOND
     1     1     2    1
     2     2     3   ar
     3     3     4   ar
     4     4     5   ar
     5     5     6   ar
     6     6     7   ar
     7     2     7   ar
     8     6     8    1
     9     8     9    1
    10     5    10    1
    11     4    11    1
    12    11    12    1
    13    12    14    1
    14    14    15    1
    15     3    15    1
    16    15    16    2
    17    12    17    1
    18    12    13    1
    19     1    18    1
    20     7    19    1
    21     9    20    1
    22     9    21    1
    23     9    22    1
    24    10    23    1
    25    10    24    1
    26    10    25    1
    27    11    26    1
    28    11    27    1
    29    17    28    1
    30    17    29    1
    31    17    30    1
