@<TRIPOS>MOLECULE
NuBBE_326
 51 55 0 0 0
SMALL
GASTEIGER

@<TRIPOS>ATOM
      1 H           4.7302    0.3864    1.0590 H       1  LIG1        0.1548
      2 N           3.7625    0.6648    1.1141 N.am    1  LIG1       -0.2845
      3 C           3.2646    1.9294    0.8672 C.ar    1  LIG1        0.0376
      4 C           3.9937    3.0404    0.4992 C.ar    1  LIG1       -0.0402
      5 C           3.2870    4.2209    0.2761 C.ar    1  LIG1       -0.0600
      6 C           1.8882    4.2556    0.4234 C.ar    1  LIG1       -0.0614
      7 C           1.1724    3.1134    0.8049 C.ar    1  LIG1       -0.0558
      8 C           1.8781    1.9449    1.0327 C.ar    1  LIG1       -0.0097
      9 C           1.4082    0.5717    1.4496 C.3     1  LIG1        0.0904
     10 C           2.7520   -0.2273    1.4457 C.2     1  LIG1        0.2293
     11 O           2.9495   -1.4005    1.7176 O.2     1  LIG1       -0.2744
     12 C           0.2986   -0.0551    0.5993 C.3     1  LIG1        0.0290
     13 H          -0.5463    0.6464    0.5284 H       1  LIG1        0.0476
     14 C           0.6527   -0.5081   -0.8100 C.3     1  LIG1       -0.0285
     15 C          -0.4560   -1.3981   -1.4178 C.3     1  LIG1        0.0026
     16 H          -0.0492   -1.7811   -2.3630 H       1  LIG1        0.0357
     17 C          -0.7058   -2.5787   -0.4461 C.3     1  LIG1        0.0157
     18 C          -1.1200   -2.0451    0.9537 C.3     1  LIG1        0.0060
     19 N          -0.0727   -1.1779    1.4590 N.3     1  LIG1       -0.2976
     20 C          -0.2562   -0.6159    2.7898 C.3     1  LIG1        0.0005
     21 C           0.7958    0.5069    2.8639 C.3     1  LIG1       -0.0206
     22 H           0.2289   -3.1454   -0.3250 H       1  LIG1        0.0355
     23 C          -1.8055   -0.7916   -1.7426 C.2     1  LIG1        0.0742
     24 C          -1.9545    0.6646   -1.9946 C.2     1  LIG1        0.3381
     25 O          -3.1466    1.0890   -1.4943 O.3     1  LIG1       -0.4646
     26 C          -3.3073    2.5069   -1.4461 C.3     1  LIG1        0.0820
     27 O          -1.0875    1.3770   -2.4576 O.2     1  LIG1       -0.2452
     28 C          -2.9170   -1.5507   -1.7274 C.2     1  LIG1        0.0951
     29 O          -2.9974   -2.8725   -1.3801 O.2     1  LIG1       -0.4957
     30 C          -1.7732   -3.5287   -1.0199 C.3     1  LIG1        0.1011
     31 H          -2.0347   -4.2625   -0.2474 H       1  LIG1        0.0733
     32 C          -1.2785   -4.3172   -2.2338 C.3     1  LIG1       -0.0275
     33 H           5.0705    3.0031    0.3821 H       1  LIG1        0.0636
     34 H           3.8207    5.1212   -0.0199 H       1  LIG1        0.0618
     35 H           1.3573    5.1863    0.2340 H       1  LIG1        0.0618
     36 H           0.0935    3.1550    0.9111 H       1  LIG1        0.0621
     37 H           1.5802   -1.0954   -0.7968 H       1  LIG1        0.0287
     38 H           0.8651    0.3559   -1.4472 H       1  LIG1        0.0287
     39 H          -1.2448   -2.8971    1.6325 H       1  LIG1        0.0431
     40 H          -2.0802   -1.5174    0.9259 H       1  LIG1        0.0431
     41 H          -0.0937   -1.3649    3.5706 H       1  LIG1        0.0427
     42 H          -1.2591   -0.1898    2.9166 H       1  LIG1        0.0427
     43 H           1.5468    0.2884    3.6318 H       1  LIG1        0.0291
     44 H           0.3033    1.4481    3.1372 H       1  LIG1        0.0291
     45 H          -3.3138    2.9292   -2.4537 H       1  LIG1        0.0661
     46 H          -2.5186    2.9560   -0.8345 H       1  LIG1        0.0661
     47 H          -4.2697    2.7162   -0.9704 H       1  LIG1        0.0661
     48 H          -3.9132   -1.1837   -1.9471 H       1  LIG1        0.1028
     49 H          -1.1221   -3.6720   -3.1040 H       1  LIG1        0.0265
     50 H          -2.0307   -5.0555   -2.5330 H       1  LIG1        0.0265
     51 H          -0.3459   -4.8452   -2.0130 H       1  LIG1        0.0265
@<TRIPOS>BOND
     1     1     2    1
     2     2     3    1
     3     3     4   ar
     4     4     5   ar
     5     5     6   ar
     6     6     7   ar
     7     7     8   ar
     8     3     8   ar
     9     8     9    1
    10     9    10    1
    11     2    10   am
    12    10    11    2
    13     9    12    1
    14    12    14    1
    15    14    15    1
    16    15    17    1
    17    17    18    1
    18    18    19    1
    19    12    19    1
    20    19    20    1
    21    20    21    1
    22     9    21    1
    23    15    23    1
    24    24    25    1
    25    25    26    1
    26    24    27    2
    27    23    28    2
    28    28    29    1
    29    29    30    1
    30    17    30    1
    31    12    13    1
    32    15    16    1
    33    17    22    1
    34    23    24    1
    35    30    32    1
    36    30    31    1
    37     4    33    1
    38     5    34    1
    39     6    35    1
    40     7    36    1
    41    14    37    1
    42    14    38    1
    43    18    39    1
    44    18    40    1
    45    20    41    1
    46    20    42    1
    47    21    43    1
    48    21    44    1
    49    26    45    1
    50    26    46    1
    51    26    47    1
    52    28    48    1
    53    32    49    1
    54    32    50    1
    55    32    51    1
