REMARK  Name = NuBBE_1502
REMARK  3 active torsions:
REMARK  status: ('A' for Active; 'I' for Inactive)
REMARK    1  A    between atoms: C_1  and  C_2
REMARK    2  A    between atoms: C_1  and  C_12
REMARK    3  A    between atoms: C_25  and  C_30
REMARK                            x       y       z     vdW  Elec       q    Type
REMARK                         _______ _______ _______ _____ _____    ______ ____
ROOT
ATOM      1  C   LIG A   1       0.453   0.011  -2.002  0.00  0.00    +0.182 C 
ATOM      2  N   LIG A   1       1.008   0.884  -0.957  0.00  0.00    -0.282 N 
ATOM      3  C   LIG A   1       1.372   0.366   0.272  0.00  0.00    +0.134 A 
ATOM      4  N   LIG A   1       1.566   1.089   1.331  0.00  0.00    -0.232 NA
ATOM      5  C   LIG A   1       1.412   2.476   1.231  0.00  0.00    +0.078 A 
ATOM      6  C   LIG A   1       1.103   3.106   0.029  0.00  0.00    +0.065 A 
ATOM      7  C   LIG A   1       0.843   2.252  -1.140  0.00  0.00    +0.263 A 
ATOM      8  O   LIG A   1       0.468   2.762  -2.195  0.00  0.00    -0.267 OA
ATOM      9  C   LIG A   1       1.015   4.501  -0.057  0.00  0.00    +0.015 A 
ATOM     10  C   LIG A   1       1.243   5.276   1.079  0.00  0.00    +0.001 A 
ATOM     11  C   LIG A   1       1.547   4.657   2.291  0.00  0.00    +0.002 A 
ATOM     12  C   LIG A   1       1.632   3.263   2.364  0.00  0.00    +0.028 A 
ATOM     13  C   LIG A   1       1.787  -1.115   0.318  0.00  0.00    +0.136 C 
ATOM     14  N   LIG A   1       1.221  -1.933  -0.731  0.00  0.00    -0.304 N 
ATOM     15  C   LIG A   1       0.984  -1.419  -1.977  0.00  0.00    +0.237 C 
ATOM     16  O   LIG A   1       0.970  -2.159  -2.958  0.00  0.00    -0.274 OA
ATOM     17  C   LIG A   1       3.312  -1.197   0.273  0.00  0.00    +0.036 C 
ATOM     18  H   LIG A   1       1.451  -2.919  -0.733  0.00  0.00    +0.149 HD
ENDROOT
BRANCH   1  19
ATOM     19  C   LIG A   1      -1.093  -0.029  -2.005  0.00  0.00    +0.072 C 
BRANCH  19  20
ATOM     20  C   LIG A   1      -1.742  -0.527  -0.742  0.00  0.00    -0.020 A 
ATOM     21  C   LIG A   1      -2.107  -1.881  -0.430  0.00  0.00    +0.003 A 
ATOM     22  C   LIG A   1      -2.731  -1.871   0.818  0.00  0.00    +0.047 A 
ATOM     23  N   LIG A   1      -2.735  -0.568   1.257  0.00  0.00    -0.360 N 
ATOM     24  H   LIG A   1      -3.131  -0.262   2.135  0.00  0.00    +0.165 HD
ATOM     25  C   LIG A   1      -2.130   0.245   0.337  0.00  0.00    +0.087 A 
ATOM     26  C   LIG A   1      -3.232  -3.029   1.427  0.00  0.00    +0.026 A 
ATOM     27  C   LIG A   1      -3.066  -4.241   0.752  0.00  0.00    +0.002 A 
ATOM     28  C   LIG A   1      -2.434  -4.290  -0.487  0.00  0.00    +0.001 A 
ATOM     29  C   LIG A   1      -1.964  -3.119  -1.093  0.00  0.00    +0.010 A 
ENDBRANCH  19  20
ENDBRANCH   1  19
TORSDOF 2
