REMARK  Name = NuBBE_2310
REMARK  10 active torsions:
REMARK  status: ('A' for Active; 'I' for Inactive)
REMARK    1  A    between atoms: C_5  and  C_6
REMARK    2  A    between atoms: C_8  and  C_26
REMARK    3  A    between atoms: C_10  and  C_23
REMARK    4  A    between atoms: C_12  and  O_13
REMARK    5  A    between atoms: O_13  and  C_14
REMARK    6  A    between atoms: C_15  and  O_22
REMARK    7  A    between atoms: C_17  and  O_20
REMARK    8  A    between atoms: C_18  and  O_19
REMARK    9  A    between atoms: O_20  and  C_21
REMARK   10  A    between atoms: C_23  and  C_24
REMARK                            x       y       z     vdW  Elec       q    Type
REMARK                         _______ _______ _______ _____ _____    ______ ____
ROOT
ATOM      1  C   LIG A   1      -0.674   0.273   0.144  0.00  0.00    +0.060 C 
ATOM      2  C   LIG A   1      -0.295  -1.119  -0.467  0.00  0.00    +0.009 C 
ATOM      3  C   LIG A   1       0.926  -1.628   0.366  0.00  0.00    +0.028 C 
ATOM      4  C   LIG A   1       0.410  -2.491   1.518  0.00  0.00    +0.027 C 
ATOM      5  C   LIG A   1      -0.211  -1.946   2.565  0.00  0.00    +0.125 C 
ATOM      6  C   LIG A   1      -0.347  -0.438   2.680  0.00  0.00    +0.214 C 
ATOM      7  C   LIG A   1       0.215   0.384   1.450  0.00  0.00    +0.135 C 
ATOM      8  C   LIG A   1       1.506  -0.309   0.957  0.00  0.00    +0.160 C 
ATOM      9  C   LIG A   1      -1.502  -2.064  -0.553  0.00  0.00    +0.009 C 
ENDROOT
BRANCH   1  14
ATOM     10  C   LIG A   1       0.493   3.370  -1.929  0.00  0.00    +0.050 A 
ATOM     11  C   LIG A   1      -0.308   3.217  -3.030  0.00  0.00    +0.166 A 
ATOM     12  C   LIG A   1      -1.188   2.171  -3.134  0.00  0.00    +0.167 A 
ATOM     13  C   LIG A   1      -1.334   1.236  -2.125  0.00  0.00    +0.053 A 
ATOM     14  C   LIG A   1      -0.527   1.340  -0.969  0.00  0.00    -0.037 A 
ATOM     15  C   LIG A   1       0.394   2.414  -0.912  0.00  0.00    +0.008 A 
ATOM     16  O   LIG A   1      -1.857   2.182  -4.319  0.00  0.00    -0.453 OA
ATOM     17  C   LIG A   1      -1.263   3.335  -4.956  0.00  0.00    +0.466 C 
ATOM     18  O   LIG A   1      -0.323   4.033  -4.115  0.00  0.00    -0.453 OA
ENDBRANCH   1  14
BRANCH   5  19
ATOM     19  O   LIG A   1      -0.611  -2.766   3.614  0.00  0.00    -0.497 OA
ATOM     20  C   LIG A   1      -1.772  -2.352   4.319  0.00  0.00    +0.276 C 
ENDBRANCH   5  19
BRANCH   8  21
ATOM     21  O   LIG A   1       2.478  -0.510   1.982  0.00  0.00    -0.388 OA
ATOM     22  H   LIG A   1       2.829   0.376   2.195  0.00  0.00    +0.210 HD
ENDBRANCH   8  21
BRANCH   7  23
ATOM     23  O   LIG A   1       0.497   1.735   1.863  0.00  0.00    -0.370 OA
ATOM     24  C   LIG A   1      -0.639   2.481   2.296  0.00  0.00    +0.195 C 
ENDBRANCH   7  23
BRANCH   6  25
ATOM     25  O   LIG A   1       0.370  -0.065   3.871  0.00  0.00    -0.381 OA
ATOM     26  H   LIG A   1       1.273  -0.420   3.740  0.00  0.00    +0.210 HD
ENDBRANCH   6  25
BRANCH   3  27
ATOM     27  C   LIG A   1       1.945  -2.409  -0.507  0.00  0.00    +0.040 C 
BRANCH  27  28
ATOM     28  C   LIG A   1       2.557  -1.624  -1.644  0.00  0.00    -0.034 C 
ATOM     29  C   LIG A   1       2.433  -1.937  -2.943  0.00  0.00    +0.004 C 
ENDBRANCH  27  28
ENDBRANCH   3  27
TORSDOF 7
