@<TRIPOS>MOLECULE
NuBBE_1581
 42 45 0 0 0
SMALL
GASTEIGER

@<TRIPOS>ATOM
      1 C          -1.7995   -2.5363   -4.2671 C.3     1  LIG1        0.0790
      2 O          -1.4125   -1.4746   -3.4096 O.3     1  LIG1       -0.4905
      3 C          -1.0938   -1.6867   -2.0919 C.ar    1  LIG1        0.1795
      4 C          -0.8020   -0.5089   -1.3551 C.ar    1  LIG1        0.1093
      5 C          -0.4388   -0.6065   -0.0148 C.ar    1  LIG1        0.1465
      6 O          -0.0893    0.4581    0.7771 O.2     1  LIG1       -0.4543
      7 C           0.0973    1.6924    0.1885 C.ar    1  LIG1        0.1393
      8 C           0.7116    2.7003    1.0890 C.ar    1  LIG1        0.0211
      9 C           0.4529    4.0747    0.9560 C.ar    1  LIG1       -0.0055
     10 C           1.0635    4.9520    1.8328 C.ar    1  LIG1        0.1669
     11 O           0.9182    6.3049    1.8279 O.3     1  LIG1       -0.4526
     12 C           1.7645    6.6744    2.9370 C.3     1  LIG1        0.2332
     13 O           2.3948    5.5454    3.5771 O.3     1  LIG1       -0.4526
     14 C           1.9045    4.5217    2.8298 C.ar    1  LIG1        0.1663
     15 C           2.1827    3.1874    3.0085 C.ar    1  LIG1       -0.0155
     16 C           1.5790    2.2755    2.1320 C.ar    1  LIG1       -0.0474
     17 C          -0.2289    1.9418   -1.0877 C.ar    1  LIG1        0.0288
     18 C          -0.7841    0.8613   -1.9318 C.ar    1  LIG1        0.1967
     19 O          -1.1716    1.1510   -3.0662 O.2     1  LIG1       -0.2869
     20 C          -0.3520   -1.8421    0.6115 C.ar    1  LIG1        0.0270
     21 C          -0.5581   -3.0213   -0.1048 C.ar    1  LIG1        0.1687
     22 O          -0.3250   -4.2514    0.4597 O.3     1  LIG1       -0.4912
     23 C           0.6303   -4.2886    1.5190 C.3     1  LIG1        0.0790
     24 C          -0.9722   -2.9545   -1.4544 C.ar    1  LIG1        0.2045
     25 O          -1.0240   -4.0716   -2.2469 O.3     1  LIG1       -0.4885
     26 C          -1.7466   -5.2231   -1.8330 C.3     1  LIG1        0.0791
     27 H          -2.7925   -2.9141   -4.0022 H       1  LIG1        0.0660
     28 H          -1.0540   -3.3325   -4.3156 H       1  LIG1        0.0660
     29 H          -1.8546   -2.1362   -5.2846 H       1  LIG1        0.0660
     30 H          -0.2147    4.4657    0.1962 H       1  LIG1        0.0662
     31 H           1.1572    7.2047    3.6796 H       1  LIG1        0.1166
     32 H           2.5452    7.3522    2.5727 H       1  LIG1        0.1166
     33 H           2.8470    2.8559    3.7990 H       1  LIG1        0.0655
     34 H           1.8006    1.2176    2.2649 H       1  LIG1        0.0626
     35 H          -0.0930    2.9005   -1.5711 H       1  LIG1        0.0693
     36 H          -0.0680   -1.8459    1.6579 H       1  LIG1        0.0692
     37 H           0.2874   -3.7344    2.3985 H       1  LIG1        0.0660
     38 H           1.6037   -3.9194    1.1772 H       1  LIG1        0.0660
     39 H           0.7495   -5.3292    1.8320 H       1  LIG1        0.0660
     40 H          -2.7113   -5.2449   -2.3508 H       1  LIG1        0.0660
     41 H          -1.9262   -5.3200   -0.7625 H       1  LIG1        0.0660
     42 H          -1.1775   -6.0953   -2.1741 H       1  LIG1        0.0660
@<TRIPOS>BOND
     1     1     2    1
     2     2     3    1
     3     3     4   ar
     4     4     5   ar
     5     5     6   ar
     6     6     7   ar
     7     7     8    1
     8     8     9   ar
     9     9    10   ar
    10    10    11    1
    11    11    12    1
    12    12    13    1
    13    10    14   ar
    14    13    14    1
    15    14    15   ar
    16    15    16   ar
    17     8    16   ar
    18     7    17   ar
    19    17    18   ar
    20     4    18   ar
    21    18    19    2
    22     5    20   ar
    23    20    21   ar
    24    21    22    1
    25    22    23    1
    26    21    24   ar
    27     3    24   ar
    28    24    25    1
    29    25    26    1
    30     1    27    1
    31     1    28    1
    32     1    29    1
    33     9    30    1
    34    12    31    1
    35    12    32    1
    36    15    33    1
    37    16    34    1
    38    17    35    1
    39    20    36    1
    40    23    37    1
    41    23    38    1
    42    23    39    1
    43    26    40    1
    44    26    41    1
    45    26    42    1
