@<TRIPOS>MOLECULE
NuBBE_975
 50 51 0 0 0
SMALL
GASTEIGER

@<TRIPOS>ATOM
      1 O          -5.3742    0.4515    2.4665 O.2     1  LIG1       -0.2702
      2 C          -4.2556    0.8474    2.1430 C.2     1  LIG1        0.2441
      3 N          -3.7268    0.6270    0.8958 N.am    1  LIG1       -0.3110
      4 C          -4.3639   -0.1826   -0.1346 C.3     1  LIG1        0.0159
      5 C          -3.8924    0.2246   -1.5366 C.3     1  LIG1       -0.0120
      6 C          -2.3989    0.0550   -1.7038 C.ar    1  LIG1       -0.0457
      7 C          -1.5177    1.0868   -1.3494 C.ar    1  LIG1       -0.0551
      8 C          -0.1360    0.8957   -1.4215 C.ar    1  LIG1       -0.0197
      9 C           0.3864   -0.3128   -1.8872 C.ar    1  LIG1        0.1206
     10 O           1.7544   -0.3972   -1.9144 O.3     1  LIG1       -0.4893
     11 C           2.3088   -1.3981   -2.7727 C.3     1  LIG1        0.1186
     12 C           3.8525   -1.4121   -2.7290 C.3     1  LIG1        0.1278
     13 O           4.3773   -0.1895   -3.2637 O.3     1  LIG1       -0.3850
     14 C           4.5044   -1.7739   -1.3699 C.3     1  LIG1        0.1882
     15 O           3.9938   -3.0426   -0.9274 O.3     1  LIG1       -0.3755
     16 C           6.0286   -1.9294   -1.5214 C.3     1  LIG1       -0.0229
     17 C           4.2638   -0.7121   -0.2904 C.2     1  LIG1        0.3392
     18 O           4.5819   -1.1628    0.9460 O.3     1  LIG1       -0.4786
     19 O           3.8830    0.4488   -0.4339 O.2     1  LIG1       -0.2477
     20 C          -0.4905   -1.3388   -2.2442 C.ar    1  LIG1       -0.0197
     21 C          -1.8727   -1.1622   -2.1414 C.ar    1  LIG1       -0.0551
     22 H          -2.7489    0.8135    0.7553 H       1  LIG1        0.1490
     23 C          -3.3887    1.5820    3.1293 C.ar    1  LIG1        0.0367
     24 C          -2.1010    2.0580    2.8293 C.ar    1  LIG1       -0.0496
     25 C          -1.3007    2.6266    3.8264 C.ar    1  LIG1       -0.0610
     26 C          -1.7944    2.7758    5.1190 C.ar    1  LIG1       -0.0617
     27 C          -3.0939    2.3698    5.4142 C.ar    1  LIG1       -0.0610
     28 C          -3.8836    1.7701    4.4278 C.ar    1  LIG1       -0.0496
     29 H          -5.4507   -0.0760   -0.0605 H       1  LIG1        0.0465
     30 H          -4.1150   -1.2325    0.0642 H       1  LIG1        0.0465
     31 H          -4.1605    1.2695   -1.7363 H       1  LIG1        0.0328
     32 H          -4.4133   -0.3753   -2.2935 H       1  LIG1        0.0328
     33 H          -1.9059    2.0363   -0.9841 H       1  LIG1        0.0621
     34 H           0.5327    1.6982   -1.1188 H       1  LIG1        0.0654
     35 H           1.9982   -1.1603   -3.7990 H       1  LIG1        0.0724
     36 H           1.9456   -2.3934   -2.5005 H       1  LIG1        0.0724
     37 H           4.1454   -2.1969   -3.4396 H       1  LIG1        0.0662
     38 H           3.9900    0.5344   -2.7308 H       1  LIG1        0.2101
     39 H           4.3617   -3.1833   -0.0325 H       1  LIG1        0.2110
     40 H           6.2741   -2.7789   -2.1689 H       1  LIG1        0.0264
     41 H           6.5033   -2.1404   -0.5549 H       1  LIG1        0.0264
     42 H           6.4989   -1.0271   -1.9252 H       1  LIG1        0.0264
     43 H           4.3813   -0.4009    1.5315 H       1  LIG1        0.2951
     44 H          -0.1370   -2.3044   -2.5860 H       1  LIG1        0.0654
     45 H          -2.5314   -1.9903   -2.3948 H       1  LIG1        0.0621
     46 H          -1.6765    2.0007    1.8342 H       1  LIG1        0.0625
     47 H          -0.2875    2.9458    3.5918 H       1  LIG1        0.0618
     48 H          -1.1686    3.2119    5.8939 H       1  LIG1        0.0618
     49 H          -3.4906    2.5058    6.4173 H       1  LIG1        0.0618
     50 H          -4.8891    1.4384    4.6811 H       1  LIG1        0.0625
@<TRIPOS>BOND
     1     1     2    2
     2     2     3   am
     3     3     4    1
     4     4     5    1
     5     5     6    1
     6     6     7   ar
     7     7     8   ar
     8     8     9   ar
     9     9    10    1
    10    10    11    1
    11    11    12    1
    12    12    13    1
    13    12    14    1
    14    14    15    1
    15    14    16    1
    16    14    17    1
    17    17    18    1
    18    17    19    2
    19     9    20   ar
    20    20    21   ar
    21     6    21   ar
    22     3    22    1
    23     2    23    1
    24    23    24   ar
    25    24    25   ar
    26    25    26   ar
    27    26    27   ar
    28    27    28   ar
    29    23    28   ar
    30     4    29    1
    31     4    30    1
    32     5    31    1
    33     5    32    1
    34     7    33    1
    35     8    34    1
    36    11    35    1
    37    11    36    1
    38    12    37    1
    39    13    38    1
    40    15    39    1
    41    16    40    1
    42    16    41    1
    43    16    42    1
    44    18    43    1
    45    20    44    1
    46    21    45    1
    47    24    46    1
    48    25    47    1
    49    26    48    1
    50    27    49    1
    51    28    50    1
