REMARK  Name = NuBBE_2029
REMARK  5 active torsions:
REMARK  status: ('A' for Active; 'I' for Inactive)
REMARK    1  A    between atoms: C_1  and  C_2
REMARK    2  A    between atoms: C_2  and  C_3
REMARK    3  A    between atoms: C_2  and  C_4
REMARK    4  A    between atoms: C_6  and  O_7
REMARK    5  A    between atoms: C_8  and  C_9
REMARK                            x       y       z     vdW  Elec       q    Type
REMARK                         _______ _______ _______ _____ _____    ______ ____
ROOT
ATOM      1  C   LIG A   1      -0.213   0.235  -0.465  0.00  0.00    -0.041 A 
ATOM      2  C   LIG A   1       0.171   1.160   0.517  0.00  0.00    +0.049 A 
ATOM      3  C   LIG A   1       0.687   0.720   1.739  0.00  0.00    +0.120 A 
ATOM      4  C   LIG A   1       0.834  -0.641   2.014  0.00  0.00    -0.009 A 
ATOM      5  C   LIG A   1       1.385  -1.109   3.329  0.00  0.00    +0.047 C 
ATOM      6  C   LIG A   1       0.452  -1.565   1.035  0.00  0.00    +0.007 A 
ATOM      7  C   LIG A   1      -0.064  -1.132  -0.191  0.00  0.00    +0.004 A 
ENDROOT
BRANCH   1   9
ATOM      8  C   LIG A   1       0.163   0.367  -2.951  0.00  0.00    +0.012 C 
ATOM      9  C   LIG A   1      -0.768   0.726  -1.790  0.00  0.00    +0.013 C 
ATOM     10  C   LIG A   1      -2.184   0.202  -2.044  0.00  0.00    +0.012 C 
ENDBRANCH   1   9
BRANCH   3  11
ATOM     11  O   LIG A   1       1.059   1.624   2.694  0.00  0.00    -0.506 OA
ATOM     12  H   LIG A   1       0.899   2.519   2.353  0.00  0.00    +0.292 HD
ENDBRANCH   3  11
TORSDOF 2
