@<TRIPOS>MOLECULE
NuBBE_28
 44 46 0 0 0
SMALL
GASTEIGER

@<TRIPOS>ATOM
      1 O           1.3938    2.7414   -1.9235 O.2     1  LIG1       -0.2756
      2 C           0.3234    2.1464   -1.8749 C.2     1  LIG1        0.2156
      3 N          -0.7351    2.4038   -2.7664 N.am    1  LIG1       -0.3015
      4 C          -0.5129    3.4728   -3.7414 C.3     1  LIG1        0.0147
      5 C          -1.4991    3.4285   -4.9050 C.3     1  LIG1       -0.0371
      6 C          -2.9333    3.4019   -4.3948 C.3     1  LIG1       -0.0502
      7 C          -3.1266    2.1860   -3.5026 C.3     1  LIG1       -0.0371
      8 C          -2.1215    2.1609   -2.3580 C.3     1  LIG1        0.0147
      9 C           0.0627    1.0354   -0.8629 C.3     1  LIG1        0.0242
     10 C           1.2377    0.7480    0.0725 C.3     1  LIG1       -0.0445
     11 C           0.8836   -0.4006    1.0253 C.3     1  LIG1       -0.0486
     12 C           2.0301   -0.7200    1.9856 C.3     1  LIG1       -0.0276
     13 C           1.6835   -1.8573    2.9191 C.ar    1  LIG1       -0.0437
     14 C           1.9834   -3.1822    2.5621 C.ar    1  LIG1       -0.0130
     15 C           1.6362   -4.1884    3.4403 C.ar    1  LIG1        0.1665
     16 O           1.8495   -5.5184    3.2499 O.3     1  LIG1       -0.4526
     17 C           1.2473   -6.0622    4.4428 C.3     1  LIG1        0.2332
     18 O           0.7560   -5.0534    5.3496 O.3     1  LIG1       -0.4526
     19 C           1.0135   -3.9241    4.6368 C.ar    1  LIG1        0.1662
     20 C           0.7022   -2.6390    5.0224 C.ar    1  LIG1       -0.0159
     21 C           1.0370   -1.5976    4.1496 C.ar    1  LIG1       -0.0549
     22 H           0.5087    3.4001   -4.1330 H       1  LIG1        0.0464
     23 H          -0.5921    4.4294   -3.2106 H       1  LIG1        0.0464
     24 H          -1.3140    2.5315   -5.5099 H       1  LIG1        0.0280
     25 H          -1.3493    4.2948   -5.5583 H       1  LIG1        0.0280
     26 H          -3.6340    3.3618   -5.2356 H       1  LIG1        0.0266
     27 H          -3.1493    4.3186   -3.8328 H       1  LIG1        0.0266
     28 H          -3.0118    1.2758   -4.1041 H       1  LIG1        0.0280
     29 H          -4.1442    2.1742   -3.0961 H       1  LIG1        0.0280
     30 H          -2.2037    1.1882   -1.8658 H       1  LIG1        0.0464
     31 H          -2.3729    2.9262   -1.6136 H       1  LIG1        0.0464
     32 H          -0.1729    0.1253   -1.4295 H       1  LIG1        0.0358
     33 H          -0.7980    1.3104   -0.2474 H       1  LIG1        0.0358
     34 H           1.4801    1.6493    0.6487 H       1  LIG1        0.0270
     35 H           2.1304    0.4910   -0.5101 H       1  LIG1        0.0270
     36 H           0.6297   -1.2939    0.4399 H       1  LIG1        0.0269
     37 H          -0.0156   -0.1359    1.5966 H       1  LIG1        0.0269
     38 H           2.2852    0.1682    2.5768 H       1  LIG1        0.0313
     39 H           2.9336   -0.9782    1.4195 H       1  LIG1        0.0313
     40 H           2.4739   -3.4202    1.6244 H       1  LIG1        0.0658
     41 H           1.9902   -6.6751    4.9659 H       1  LIG1        0.1166
     42 H           0.4086   -6.7042    4.1480 H       1  LIG1        0.1166
     43 H           0.2118   -2.4442    5.9693 H       1  LIG1        0.0655
     44 H           0.7945   -0.5747    4.4313 H       1  LIG1        0.0621
@<TRIPOS>BOND
     1     1     2    2
     2     2     3   am
     3     3     4    1
     4     4     5    1
     5     5     6    1
     6     6     7    1
     7     7     8    1
     8     3     8    1
     9     2     9    1
    10     9    10    1
    11    10    11    1
    12    11    12    1
    13    12    13    1
    14    13    14   ar
    15    14    15   ar
    16    15    16    1
    17    16    17    1
    18    17    18    1
    19    15    19   ar
    20    18    19    1
    21    19    20   ar
    22    20    21   ar
    23    13    21   ar
    24     4    22    1
    25     4    23    1
    26     5    24    1
    27     5    25    1
    28     6    26    1
    29     6    27    1
    30     7    28    1
    31     7    29    1
    32     8    30    1
    33     8    31    1
    34     9    32    1
    35     9    33    1
    36    10    34    1
    37    10    35    1
    38    11    36    1
    39    11    37    1
    40    12    38    1
    41    12    39    1
    42    14    40    1
    43    17    41    1
    44    17    42    1
    45    20    43    1
    46    21    44    1
