@<TRIPOS>MOLECULE
NuBBE_1110
 84 88 0 0 0
SMALL
GASTEIGER

@<TRIPOS>ATOM
      1 O           2.0354   -0.0201   -4.7615 O.3     1  LIG1       -0.3912
      2 C           3.3544    0.3460   -4.2864 C.3     1  LIG1        0.0606
      3 H           3.8093    0.4298   -5.2742 H       1  LIG1        0.0599
      4 C           3.4417    1.7555   -3.7034 C.3     1  LIG1       -0.0258
      5 C           2.4527    1.9797   -2.5806 C.3     1  LIG1       -0.0445
      6 C           2.4903    0.8772   -1.4690 C.3     1  LIG1       -0.0227
      7 C           3.6676    1.3211   -0.5709 C.3     1  LIG1       -0.0588
      8 C           2.7404   -0.5394   -2.2097 C.3     1  LIG1       -0.0276
      9 C           2.4158   -1.7847   -1.3532 C.3     1  LIG1       -0.0486
     10 C           1.0034   -1.7035   -0.8574 C.3     1  LIG1       -0.0463
     11 C           0.7764   -0.5314    0.1349 C.3     1  LIG1       -0.0202
     12 C           1.7689   -0.7657    1.3262 C.3     1  LIG1       -0.0585
     13 C           1.0371    0.8680   -0.6122 C.3     1  LIG1       -0.0205
     14 C          -0.1014    1.2206   -1.6259 C.3     1  LIG1       -0.0585
     15 C           0.9022    1.9837    0.4774 C.3     1  LIG1       -0.0460
     16 C          -0.4969    2.0539    1.1584 C.3     1  LIG1       -0.0454
     17 C          -1.0202    0.7368    1.7357 C.3     1  LIG1       -0.0134
     18 C          -0.7088   -0.6247    0.7207 C.3     1  LIG1       -0.0196
     19 C          -1.7062   -1.0274   -0.4557 C.3     1  LIG1       -0.0585
     20 C          -0.8256   -1.8691    1.6359 C.3     1  LIG1       -0.0458
     21 C          -2.2189   -1.9224    2.1657 C.3     1  LIG1       -0.0434
     22 C          -2.7644   -0.5214    2.4482 C.3     1  LIG1       -0.0107
     23 C          -2.1572   -0.5075    4.0942 C.3     1  LIG1       -0.0558
     24 C          -2.4083    0.9531    2.5382 C.2     1  LIG1       -0.0634
     25 C          -3.6451    1.1016    3.2210 C.2     1  LIG1       -0.0783
     26 C          -5.0648    0.2488    2.8160 C.3     1  LIG1       -0.0166
     27 C          -6.1953    0.4617    3.8043 C.3     1  LIG1       -0.0563
     28 C          -5.3597   -1.2879    2.3636 C.3     1  LIG1       -0.0563
     29 C          -5.0250    0.8993    1.4683 C.3     1  LIG1       -0.0436
     30 C          -3.6909    0.2066    1.0394 C.3     1  LIG1       -0.0431
     31 C           3.9706   -0.8426   -3.3128 C.3     1  LIG1       -0.0056
     32 C           5.0081   -1.1483   -2.0921 C.3     1  LIG1       -0.0572
     33 C           5.3600   -0.5768   -4.1111 C.3     1  LIG1       -0.0572
     34 H           1.4126    0.7052   -4.5969 H       1  LIG1        0.2098
     35 H           3.2016    2.4730   -4.4989 H       1  LIG1        0.0290
     36 H           4.4620    1.9769   -3.3806 H       1  LIG1        0.0290
     37 H           1.4956    2.0267   -3.0937 H       1  LIG1        0.0272
     38 H           2.5953    2.9784   -2.1500 H       1  LIG1        0.0272
     39 H           4.5769    1.4889   -1.1523 H       1  LIG1        0.0235
     40 H           3.9304    0.6223    0.2154 H       1  LIG1        0.0235
     41 H           3.4629    2.2890   -0.0997 H       1  LIG1        0.0235
     42 H           1.8395   -0.6004   -2.8253 H       1  LIG1        0.0312
     43 H           3.0543   -1.9298   -0.4837 H       1  LIG1        0.0268
     44 H           2.5052   -2.6864   -1.9735 H       1  LIG1        0.0268
     45 H           0.7573   -2.6680   -0.4018 H       1  LIG1        0.0271
     46 H           0.3802   -1.6114   -1.7508 H       1  LIG1        0.0271
     47 H           2.8014   -0.5584    1.0854 H       1  LIG1        0.0235
     48 H           1.7734   -1.8192    1.6333 H       1  LIG1        0.0235
     49 H           1.5426   -0.1736    2.2139 H       1  LIG1        0.0235
     50 H          -0.1441    0.5370   -2.4767 H       1  LIG1        0.0235
     51 H          -0.0143    2.2509   -1.9889 H       1  LIG1        0.0235
     52 H          -1.0855    1.2689   -1.1757 H       1  LIG1        0.0235
     53 H           1.1149    2.9649    0.0308 H       1  LIG1        0.0271
     54 H           1.6539    1.8516    1.2628 H       1  LIG1        0.0271
     55 H          -1.2341    2.4792    0.4703 H       1  LIG1        0.0271
     56 H          -0.4258    2.7961    1.9672 H       1  LIG1        0.0271
     57 H          -0.3103    0.5521    2.5948 H       1  LIG1        0.0351
     58 H          -2.0809   -0.2392   -1.0976 H       1  LIG1        0.0235
     59 H          -2.5807   -1.5803   -0.1325 H       1  LIG1        0.0235
     60 H          -1.3213   -1.8139   -1.1021 H       1  LIG1        0.0235
     61 H          -0.1305   -1.8359    2.4779 H       1  LIG1        0.0271
     62 H          -0.6332   -2.8112    1.1149 H       1  LIG1        0.0271
     63 H          -2.2280   -2.5417    3.0756 H       1  LIG1        0.0274
     64 H          -2.8807   -2.5055    1.5297 H       1  LIG1        0.0274
     65 H          -2.8555   -0.9783    4.7870 H       1  LIG1        0.0238
     66 H          -1.8266    0.4583    4.5509 H       1  LIG1        0.0238
     67 H          -1.1938   -1.0435    4.1499 H       1  LIG1        0.0238
     68 H          -3.8245    1.9922    3.8156 H       1  LIG1        0.0577
     69 H          -6.4149    1.5014    4.0224 H       1  LIG1        0.0238
     70 H          -5.9294   -0.0618    4.7342 H       1  LIG1        0.0238
     71 H          -7.1230   -0.0197    3.4557 H       1  LIG1        0.0238
     72 H          -6.3051   -1.3065    1.7901 H       1  LIG1        0.0238
     73 H          -5.4501   -1.9859    3.1931 H       1  LIG1        0.0238
     74 H          -4.6902   -1.7595    1.6451 H       1  LIG1        0.0238
     75 H          -4.9527    1.9991    1.5031 H       1  LIG1        0.0274
     76 H          -5.8339    0.6690    0.7687 H       1  LIG1        0.0274
     77 H          -3.1168    0.9490    0.4466 H       1  LIG1        0.0274
     78 H          -3.9854   -0.5423    0.3109 H       1  LIG1        0.0274
     79 H           4.6425   -1.8077   -1.3133 H       1  LIG1        0.0236
     80 H           5.4183   -0.2610   -1.6144 H       1  LIG1        0.0236
     81 H           5.8563   -1.7973   -2.3659 H       1  LIG1        0.0236
     82 H           5.3300   -0.3622   -5.1857 H       1  LIG1        0.0236
     83 H           5.9361   -1.5123   -4.1942 H       1  LIG1        0.0236
     84 H           5.9826    0.2129   -3.6630 H       1  LIG1        0.0236
@<TRIPOS>BOND
     1     2     4    1
     2     4     5    1
     3     5     6    1
     4     6     8    1
     5     8     9    1
     6     9    10    1
     7    10    11    1
     8    11    13    1
     9     6    13    1
    10    13    15    1
    11    15    16    1
    12    16    17    1
    13    17    18    1
    14    11    18    1
    15    18    20    1
    16    20    21    1
    17    21    22    1
    18    22    24    1
    19    17    24    1
    20    24    25    2
    21    25    26    1
    22    26    29    1
    23    29    30    1
    24    22    30    1
    25     8    31    1
    26     2    31    1
    27     1     2    1
    28     2     3    1
    29     6     7    1
    30    11    12    1
    31    13    14    1
    32    18    19    1
    33    22    23    1
    34    26    27    1
    35    26    28    1
    36    31    32    1
    37    31    33    1
    38     1    34    1
    39     4    35    1
    40     4    36    1
    41     5    37    1
    42     5    38    1
    43     7    39    1
    44     7    40    1
    45     7    41    1
    46     8    42    1
    47     9    43    1
    48     9    44    1
    49    10    45    1
    50    10    46    1
    51    12    47    1
    52    12    48    1
    53    12    49    1
    54    14    50    1
    55    14    51    1
    56    14    52    1
    57    15    53    1
    58    15    54    1
    59    16    55    1
    60    16    56    1
    61    17    57    1
    62    19    58    1
    63    19    59    1
    64    19    60    1
    65    20    61    1
    66    20    62    1
    67    21    63    1
    68    21    64    1
    69    23    65    1
    70    23    66    1
    71    23    67    1
    72    25    68    1
    73    27    69    1
    74    27    70    1
    75    27    71    1
    76    28    72    1
    77    28    73    1
    78    28    74    1
    79    29    75    1
    80    29    76    1
    81    30    77    1
    82    30    78    1
    83    32    79    1
    84    32    80    1
    85    32    81    1
    86    33    82    1
    87    33    83    1
    88    33    84    1
