@<TRIPOS>MOLECULE
NuBBE_644
 49 51 0 0 0
SMALL
GASTEIGER

@<TRIPOS>ATOM
      1 O          -3.2236    3.8760   -1.6775 O.3     1  LIG1       -0.5033
      2 C          -2.7843    2.6252   -1.3404 C.ar    1  LIG1        0.1585
      3 C          -1.4756    2.4955   -0.8800 C.ar    1  LIG1       -0.0162
      4 C          -0.9743    1.2434   -0.5249 C.ar    1  LIG1       -0.0524
      5 C          -1.7705    0.0947   -0.6179 C.ar    1  LIG1       -0.0149
      6 C          -1.2362   -1.2750   -0.2379 C.3     1  LIG1        0.0874
      7 H          -1.6974   -2.0162   -0.9023 H       1  LIG1        0.0649
      8 C          -1.4368   -1.6468    1.2400 C.3     1  LIG1       -0.0081
      9 H          -2.0810   -0.9236    1.7546 H       1  LIG1        0.0330
     10 C          -2.1137   -3.0131    1.3823 C.3     1  LIG1       -0.0594
     11 C          -0.0227   -1.6811    1.8341 C.3     1  LIG1       -0.0081
     12 H           0.1008   -2.5042    2.5495 H       1  LIG1        0.0330
     13 C           0.2624   -0.3888    2.6056 C.3     1  LIG1       -0.0594
     14 C           0.8567   -1.9335    0.6006 C.3     1  LIG1        0.0874
     15 H           0.8727   -3.0096    0.3804 H       1  LIG1        0.0649
     16 C           2.2981   -1.4670    0.6690 C.ar    1  LIG1       -0.0149
     17 C           2.7893   -0.5268   -0.2600 C.ar    1  LIG1       -0.0107
     18 C           4.1026   -0.0599   -0.1932 C.ar    1  LIG1        0.1616
     19 O           4.6567    0.8753   -1.0339 O.3     1  LIG1       -0.4914
     20 C           3.7999    1.3785   -2.0555 C.3     1  LIG1        0.0790
     21 C           4.9385   -0.5557    0.8037 C.ar    1  LIG1        0.1585
     22 O           6.2204   -0.0929    0.9299 O.3     1  LIG1       -0.5033
     23 C           4.4971   -1.5176    1.7089 C.ar    1  LIG1       -0.0162
     24 C           3.1761   -1.9707    1.6382 C.ar    1  LIG1       -0.0524
     25 O           0.1718   -1.3302   -0.5085 O.3     1  LIG1       -0.3636
     26 C          -3.0887    0.2435   -1.0836 C.ar    1  LIG1       -0.0107
     27 C          -3.6092    1.4983   -1.4517 C.ar    1  LIG1        0.1616
     28 O          -4.9061    1.4441   -1.8912 O.3     1  LIG1       -0.4914
     29 C          -5.5201    2.6638   -2.2898 C.3     1  LIG1        0.0790
     30 H          -2.4944    4.5087   -1.5707 H       1  LIG1        0.2923
     31 H          -0.8231    3.3596   -0.7924 H       1  LIG1        0.0655
     32 H           0.0549    1.1725   -0.1858 H       1  LIG1        0.0622
     33 H          -3.1138   -2.9962    0.9375 H       1  LIG1        0.0233
     34 H          -2.2229   -3.2751    2.4407 H       1  LIG1        0.0233
     35 H          -1.5364   -3.8072    0.8972 H       1  LIG1        0.0233
     36 H          -0.5490   -0.1785    3.3121 H       1  LIG1        0.0233
     37 H           0.3712    0.4780    1.9515 H       1  LIG1        0.0233
     38 H           1.1781   -0.4813    3.1983 H       1  LIG1        0.0233
     39 H           2.1168   -0.1681   -1.0296 H       1  LIG1        0.0659
     40 H           4.3607    2.1134   -2.6385 H       1  LIG1        0.0660
     41 H           2.9318    1.8901   -1.6239 H       1  LIG1        0.0660
     42 H           3.4873    0.5795   -2.7379 H       1  LIG1        0.0660
     43 H           6.2975    0.6139    0.2585 H       1  LIG1        0.2923
     44 H           5.1728   -1.8972    2.4669 H       1  LIG1        0.0655
     45 H           2.8385   -2.7134    2.3587 H       1  LIG1        0.0622
     46 H          -3.7304   -0.6318   -1.1817 H       1  LIG1        0.0659
     47 H          -6.5419    2.4387   -2.6103 H       1  LIG1        0.0660
     48 H          -5.0056    3.1062   -3.1495 H       1  LIG1        0.0660
     49 H          -5.5948    3.3625   -1.4498 H       1  LIG1        0.0660
@<TRIPOS>BOND
     1     1     2    1
     2     2     3   ar
     3     3     4   ar
     4     4     5   ar
     5     6     8    1
     6     8     9    1
     7     8    10    1
     8     8    11    1
     9    11    12    1
    10    11    13    1
    11    11    14    1
    12    14    15    1
    13    14    16    1
    14    16    17   ar
    15    17    18   ar
    16    18    19    1
    17    19    20    1
    18    18    21   ar
    19    21    22    1
    20    21    23   ar
    21    23    24   ar
    22    16    24   ar
    23    14    25    1
    24     6    25    1
    25     5    26   ar
    26    26    27   ar
    27     2    27   ar
    28    27    28    1
    29    28    29    1
    30     6     7    1
    31     6     5    1
    32     1    30    1
    33     3    31    1
    34     4    32    1
    35    10    33    1
    36    10    34    1
    37    10    35    1
    38    13    36    1
    39    13    37    1
    40    13    38    1
    41    17    39    1
    42    20    40    1
    43    20    41    1
    44    20    42    1
    45    22    43    1
    46    23    44    1
    47    24    45    1
    48    26    46    1
    49    29    47    1
    50    29    48    1
    51    29    49    1
