REMARK  Name = NuBBE_1113
REMARK  13 active torsions:
REMARK  status: ('A' for Active; 'I' for Inactive)
REMARK    1  A    between atoms: C_1  and  C_2
REMARK    2  A    between atoms: C_4  and  O_6
REMARK    3  A    between atoms: C_14  and  C_15
REMARK    4  A    between atoms: C_19  and  C_21
REMARK    5  A    between atoms: C_21  and  C_23
REMARK    6  A    between atoms: C_21  and  C_24
REMARK    7  A    between atoms: C_24  and  C_25
REMARK    8  A    between atoms: C_25  and  C_26
REMARK    9  A    between atoms: C_26  and  C_28
REMARK   10  A    between atoms: C_26  and  C_30
REMARK   11  A    between atoms: C_28  and  C_29
REMARK   12  A    between atoms: C_30  and  C_31
REMARK   13  A    between atoms: C_30  and  C_32
REMARK                            x       y       z     vdW  Elec       q    Type
REMARK                         _______ _______ _______ _____ _____    ______ ____
ROOT
ATOM      1  C   LIG A   1      -4.197   3.993   0.264  0.00  0.00    +0.016 C 
ATOM      2  C   LIG A   1      -4.114   2.461  -0.005  0.00  0.00    -0.005 C 
ATOM      3  C   LIG A   1      -4.016   1.618   1.265  0.00  0.00    -0.032 C 
ATOM      4  C   LIG A   1      -3.868   0.127   1.006  0.00  0.00    +0.142 C 
ATOM      5  C   LIG A   1      -2.651  -0.174   0.153  0.00  0.00    +0.040 C 
ATOM      6  C   LIG A   1      -2.591   0.622  -1.161  0.00  0.00    -0.001 C 
ATOM      7  C   LIG A   1      -2.933   2.142  -1.002  0.00  0.00    +0.003 C 
ATOM      8  C   LIG A   1      -1.650   2.993  -0.794  0.00  0.00    +0.005 C 
ATOM      9  C   LIG A   1      -0.459   2.211  -0.256  0.00  0.00    +0.007 C 
ATOM     10  C   LIG A   1      -0.007   1.099  -1.212  0.00  0.00    -0.026 C 
ATOM     11  C   LIG A   1       0.897   1.742  -2.305  0.00  0.00    +0.012 C 
ATOM     12  C   LIG A   1      -1.240   0.458  -1.925  0.00  0.00    -0.001 C 
ATOM     13  C   LIG A   1      -0.810  -0.979  -2.207  0.00  0.00    +0.004 C 
ATOM     14  C   LIG A   1       0.096  -1.374  -1.054  0.00  0.00    +0.004 C 
ATOM     15  C   LIG A   1       0.823  -0.092  -0.590  0.00  0.00    -0.002 C 
ATOM     16  C   LIG A   1      -4.745   2.013   2.328  0.00  0.00    +0.048 C 
ATOM     17  C   LIG A   1      -6.207   2.008   1.952  0.00  0.00    +0.156 C 
ATOM     18  C   LIG A   1      -6.622   1.958   0.476  0.00  0.00    +0.080 C 
ATOM     19  C   LIG A   1      -5.499   2.055  -0.589  0.00  0.00    +0.019 C 
ATOM     20  O   LIG A   1      -7.045   2.121   2.852  0.00  0.00    -0.293 OA
ENDROOT
BRANCH   4  21
ATOM     21  O   LIG A   1      -3.747  -0.588   2.231  0.00  0.00    -0.388 OA
ATOM     22  H   LIG A   1      -3.155  -0.083   2.814  0.00  0.00    +0.210 HD
ENDBRANCH   4  21
BRANCH  15  23
ATOM     23  C   LIG A   1       1.166  -0.144   0.938  0.00  0.00    -0.010 C 
ATOM     24  C   LIG A   1       1.897   1.099   1.468  0.00  0.00    +0.008 C 
BRANCH  23  25
ATOM     25  C   LIG A   1       2.007  -1.409   1.304  0.00  0.00    +0.004 C 
BRANCH  25  26
ATOM     26  C   LIG A   1       3.425  -1.396   0.713  0.00  0.00    +0.004 C 
BRANCH  26  27
ATOM     27  C   LIG A   1       4.296  -2.622   1.069  0.00  0.00    -0.009 C 
BRANCH  27  28
ATOM     28  C   LIG A   1       5.801  -2.312   0.786  0.00  0.00    -0.014 C 
ATOM     29  C   LIG A   1       6.721  -3.489   1.115  0.00  0.00    +0.007 C 
ATOM     30  C   LIG A   1       6.112  -1.771  -0.614  0.00  0.00    +0.007 C 
ENDBRANCH  27  28
BRANCH  27  31
ATOM     31  C   LIG A   1       3.756  -3.951   0.489  0.00  0.00    +0.000 C 
ATOM     32  C   LIG A   1       3.643  -4.053  -1.025  0.00  0.00    +0.004 C 
ENDBRANCH  27  31
ENDBRANCH  26  27
ENDBRANCH  25  26
ENDBRANCH  23  25
ENDBRANCH  15  23
TORSDOF 7
