@<TRIPOS>MOLECULE
NuBBE_944
 34 36 0 0 0
SMALL
GASTEIGER

@<TRIPOS>ATOM
      1 O           1.1473    1.4708   -2.7750 O.2     1  LIG1       -0.2669
      2 C           0.5145    0.7582   -1.9522 C.ar    1  LIG1        0.2623
      3 C           1.0340    0.6321   -0.5756 C.ar    1  LIG1        0.0816
      4 C           0.3174   -0.0491    0.3525 C.ar    1  LIG1        0.1432
      5 C          -0.8977   -0.7726   -0.0225 C.ar    1  LIG1        0.0446
      6 C          -1.3543   -0.7385   -1.3544 C.ar    1  LIG1        0.0970
      7 N          -0.6671    0.1147   -2.2873 N.ar    1  LIG1       -0.3074
      8 C          -1.2413    0.5011   -3.5610 C.3     1  LIG1        0.0154
      9 C          -2.4609   -1.5470   -1.6757 C.ar    1  LIG1        0.1410
     10 O          -2.8714   -1.7975   -2.9575 O.3     1  LIG1       -0.5047
     11 C          -3.1649   -2.2581   -0.6998 C.ar    1  LIG1       -0.0181
     12 C          -2.7277   -2.2502    0.6162 C.ar    1  LIG1       -0.0575
     13 C          -1.5835   -1.5345    0.9475 C.ar    1  LIG1       -0.0489
     14 O           0.7043   -0.1638    1.6844 O.3     1  LIG1       -0.4808
     15 C           1.7674    0.7253    2.0798 C.3     1  LIG1        0.1235
     16 C           2.8142    0.7704    0.9886 C.2     1  LIG1       -0.0407
     17 C           2.3824    1.0758   -0.2371 C.2     1  LIG1       -0.0461
     18 C           1.1944    2.1514    2.3085 C.3     1  LIG1       -0.0215
     19 C           2.3394    0.2341    3.4083 C.3     1  LIG1       -0.0215
     20 H          -2.3021    0.2846   -3.6578 H       1  LIG1        0.0457
     21 H          -0.6696    0.0264   -4.3655 H       1  LIG1        0.0457
     22 H          -1.1475    1.5908   -3.6786 H       1  LIG1        0.0457
     23 H          -2.0608   -1.8730   -3.4904 H       1  LIG1        0.2922
     24 H          -4.0315   -2.8515   -0.9792 H       1  LIG1        0.0655
     25 H          -3.2520   -2.8245    1.3755 H       1  LIG1        0.0619
     26 H          -1.2225   -1.5783    1.9735 H       1  LIG1        0.0625
     27 H           3.8630    0.6034    1.2012 H       1  LIG1        0.0611
     28 H           3.0395    1.4160   -1.0304 H       1  LIG1        0.0624
     29 H           0.7193    2.5638    1.4091 H       1  LIG1        0.0271
     30 H           1.9785    2.8564    2.6094 H       1  LIG1        0.0271
     31 H           0.4128    2.1469    3.0753 H       1  LIG1        0.0271
     32 H           2.6649   -0.8080    3.3417 H       1  LIG1        0.0271
     33 H           1.5741    0.2760    4.1931 H       1  LIG1        0.0271
     34 H           3.1875    0.8481    3.7354 H       1  LIG1        0.0271
@<TRIPOS>BOND
     1     1     2    2
     2     2     3   ar
     3     3     4   ar
     4     4     5   ar
     5     5     6   ar
     6     6     7   ar
     7     2     7   ar
     8     7     8    1
     9     6     9   ar
    10     9    10    1
    11     9    11   ar
    12    11    12   ar
    13    12    13   ar
    14     5    13   ar
    15     4    14    1
    16    14    15    1
    17    15    16    1
    18    16    17    2
    19     3    17    1
    20    15    18    1
    21    15    19    1
    22     8    20    1
    23     8    21    1
    24     8    22    1
    25    10    23    1
    26    11    24    1
    27    12    25    1
    28    13    26    1
    29    16    27    1
    30    17    28    1
    31    18    29    1
    32    18    30    1
    33    18    31    1
    34    19    32    1
    35    19    33    1
    36    19    34    1
