@<TRIPOS>MOLECULE
NuBBE_1308
 55 57 0 0 0
SMALL
GASTEIGER

@<TRIPOS>ATOM
      1 O          -2.1205    2.0233    2.9975 O.2     1  LIG1       -0.2830
      2 C          -1.6512    1.7725    1.8460 C.ar    1  LIG1        0.2382
      3 C          -1.9241    0.4914    1.1526 C.ar    1  LIG1        0.2107
      4 O          -3.2270    0.1041    1.2187 O.3     1  LIG1       -0.4883
      5 C          -3.6346   -1.2142    1.4872 C.3     1  LIG1        0.0791
      6 C          -0.8146   -0.0150    0.5303 C.ar    1  LIG1        0.1812
      7 C          -0.5087   -1.2934   -0.2248 C.ar    1  LIG1        0.0282
      8 C          -1.2836   -2.4159   -0.4551 C.ar    1  LIG1       -0.0053
      9 C          -0.8266   -3.6196   -1.0688 C.ar    1  LIG1        0.1658
     10 O          -1.8499   -4.5145   -1.2457 O.3     1  LIG1       -0.4913
     11 C          -1.6733   -5.7276   -0.5302 C.3     1  LIG1        0.0790
     12 C           0.4846   -3.7450   -1.5275 C.ar    1  LIG1        0.2035
     13 O           1.0646   -4.7227   -2.2856 O.3     1  LIG1       -0.4885
     14 C           0.8190   -6.0975   -2.0662 C.3     1  LIG1        0.0791
     15 C           1.2916   -2.6244   -1.3331 C.ar    1  LIG1        0.1658
     16 O           2.6214   -2.7044   -1.6965 O.3     1  LIG1       -0.4913
     17 C           3.4649   -1.8283   -0.9529 C.3     1  LIG1        0.0790
     18 C           0.7609   -1.4408   -0.7814 C.ar    1  LIG1       -0.0053
     19 O           0.3818    0.7674    0.6129 O.2     1  LIG1       -0.4470
     20 C          -0.7973    2.7322    1.1574 C.ar    1  LIG1        0.1131
     21 C           0.3141    2.1390    0.6014 C.ar    1  LIG1        0.1881
     22 C           1.3430    2.9397    0.0745 C.ar    1  LIG1        0.2051
     23 O           2.4813    2.4789   -0.5374 O.3     1  LIG1       -0.4885
     24 C           3.1124    1.3460    0.0200 C.3     1  LIG1        0.0791
     25 C           1.2034    4.3462    0.0788 C.ar    1  LIG1        0.1687
     26 O           2.2056    5.0671   -0.5226 O.3     1  LIG1       -0.4912
     27 C           2.5373    6.3497   -0.0004 C.3     1  LIG1        0.0790
     28 C           0.0273    4.9172    0.5887 C.ar    1  LIG1        0.0264
     29 C          -0.9965    4.1179    1.1075 C.ar    1  LIG1        0.1383
     30 O          -2.0981    4.7963    1.5573 O.3     1  LIG1       -0.4942
     31 C          -3.3738    4.2271    1.2542 C.3     1  LIG1        0.0788
     32 H          -4.6986   -1.2071    1.7400 H       1  LIG1        0.0660
     33 H          -3.0723   -1.6854    2.2985 H       1  LIG1        0.0660
     34 H          -3.6412   -1.7853    0.5756 H       1  LIG1        0.0660
     35 H          -2.3217   -2.4353   -0.2345 H       1  LIG1        0.0662
     36 H          -0.6640   -5.8490   -0.1336 H       1  LIG1        0.0660
     37 H          -1.9181   -6.5271   -1.2350 H       1  LIG1        0.0660
     38 H          -2.3564   -5.8121    0.3170 H       1  LIG1        0.0660
     39 H           1.1146   -6.4080   -1.0571 H       1  LIG1        0.0660
     40 H           1.4303   -6.6800   -2.7623 H       1  LIG1        0.0660
     41 H          -0.2041   -6.3650   -2.3169 H       1  LIG1        0.0660
     42 H           3.3725   -0.8277   -1.3736 H       1  LIG1        0.0660
     43 H           4.5109   -2.1145   -1.0663 H       1  LIG1        0.0660
     44 H           3.2262   -1.8399    0.1209 H       1  LIG1        0.0660
     45 H           1.3786   -0.5692   -0.8482 H       1  LIG1        0.0662
     46 H           2.4446    0.5137    0.1414 H       1  LIG1        0.0660
     47 H           3.5587    1.5304    0.9966 H       1  LIG1        0.0660
     48 H           3.8865    1.0277   -0.6819 H       1  LIG1        0.0660
     49 H           2.9895    6.9309   -0.8123 H       1  LIG1        0.0660
     50 H           3.2877    6.2469    0.7904 H       1  LIG1        0.0660
     51 H           1.6887    6.9261    0.3703 H       1  LIG1        0.0660
     52 H          -0.1266    5.9917    0.5557 H       1  LIG1        0.0692
     53 H          -4.1295    4.7993    1.7990 H       1  LIG1        0.0660
     54 H          -3.5041    3.1978    1.5766 H       1  LIG1        0.0660
     55 H          -3.5854    4.2886    0.1827 H       1  LIG1        0.0660
@<TRIPOS>BOND
     1     1     2    2
     2     2     3   ar
     3     3     4    1
     4     4     5    1
     5     3     6   ar
     6     6     7    1
     7     7     8   ar
     8     8     9   ar
     9     9    10    1
    10    10    11    1
    11     9    12   ar
    12    12    13    1
    13    13    14    1
    14    12    15   ar
    15    15    16    1
    16    16    17    1
    17    15    18   ar
    18     7    18   ar
    19     6    19   ar
    20     2    20   ar
    21    20    21   ar
    22    19    21   ar
    23    21    22   ar
    24    22    23    1
    25    23    24    1
    26    22    25   ar
    27    25    26    1
    28    26    27    1
    29    25    28   ar
    30    28    29   ar
    31    20    29   ar
    32    29    30    1
    33    30    31    1
    34     5    32    1
    35     5    33    1
    36     5    34    1
    37     8    35    1
    38    11    36    1
    39    11    37    1
    40    11    38    1
    41    14    39    1
    42    14    40    1
    43    14    41    1
    44    17    42    1
    45    17    43    1
    46    17    44    1
    47    18    45    1
    48    24    46    1
    49    24    47    1
    50    24    48    1
    51    27    49    1
    52    27    50    1
    53    27    51    1
    54    28    52    1
    55    31    53    1
    56    31    54    1
    57    31    55    1
