@<TRIPOS>MOLECULE
NuBBE_1735
 39 39 0 0 0
SMALL
GASTEIGER

@<TRIPOS>ATOM
      1 C           0.3625   -3.1699   -1.9891 C.3     1  LIG1       -0.0561
      2 C          -0.2712   -2.2055   -0.9665 C.3     1  LIG1       -0.0135
      3 C          -1.7312   -2.6684   -0.7151 C.3     1  LIG1       -0.0561
      4 C           0.5587   -2.3746    0.3780 C.3     1  LIG1       -0.0259
      5 C          -0.1258   -1.6655    1.5154 C.2     1  LIG1       -0.0842
      6 C           0.3195   -0.5267    2.0577 C.2     1  LIG1       -0.0762
      7 C           1.7865   -0.1582    2.1727 C.3     1  LIG1       -0.0438
      8 C          -0.7182    0.5799    2.2270 C.3     1  LIG1       -0.0286
      9 C          -0.2129    1.8629    1.5498 C.3     1  LIG1       -0.0308
     10 C          -0.9843    2.5487    0.4542 C.2     1  LIG1       -0.0844
     11 C          -0.3928    2.7226   -0.7536 C.2     1  LIG1       -0.0728
     12 C           0.5037    1.7461   -1.5233 C.3     1  LIG1       -0.0138
     13 C           0.4410    0.2884   -1.1775 C.2     1  LIG1       -0.0834
     14 C          -0.3409   -0.7589   -1.5574 C.2     1  LIG1       -0.0817
     15 C          -0.1969    4.1770   -1.1501 C.3     1  LIG1       -0.0435
     16 H           0.5487   -4.1523   -1.5352 H       1  LIG1        0.0238
     17 H           1.3216   -2.7916   -2.3561 H       1  LIG1        0.0238
     18 H          -0.2909   -3.3419   -2.8528 H       1  LIG1        0.0238
     19 H          -1.7547   -3.5858   -0.1138 H       1  LIG1        0.0238
     20 H          -2.2654   -2.8712   -1.6482 H       1  LIG1        0.0238
     21 H          -2.3135   -1.9049   -0.1830 H       1  LIG1        0.0238
     22 H           1.5835   -2.0178    0.2264 H       1  LIG1        0.0316
     23 H           0.6444   -3.4341    0.6458 H       1  LIG1        0.0316
     24 H          -1.1769   -1.9092    1.6399 H       1  LIG1        0.0572
     25 H           2.3703   -0.9768    2.5960 H       1  LIG1        0.0274
     26 H           1.9186    0.7110    2.8286 H       1  LIG1        0.0274
     27 H           2.2287    0.1014    1.2085 H       1  LIG1        0.0274
     28 H          -0.8997    0.7584    3.2917 H       1  LIG1        0.0313
     29 H          -1.6813    0.2837    1.7905 H       1  LIG1        0.0313
     30 H           0.7916    1.7263    1.1478 H       1  LIG1        0.0310
     31 H          -0.0707    2.6083    2.3422 H       1  LIG1        0.0310
     32 H          -1.6205    3.3463    0.8466 H       1  LIG1        0.0572
     33 H           1.5387    2.0540   -1.3111 H       1  LIG1        0.0352
     34 H           0.3715    1.8817   -2.6035 H       1  LIG1        0.0352
     35 H           1.2259    0.0236   -0.4888 H       1  LIG1        0.0572
     36 H          -1.1145   -0.5776   -2.3006 H       1  LIG1        0.0575
     37 H          -1.0896    4.7873   -0.9932 H       1  LIG1        0.0274
     38 H           0.1346    4.2910   -2.1849 H       1  LIG1        0.0274
     39 H           0.6019    4.5921   -0.5151 H       1  LIG1        0.0274
@<TRIPOS>BOND
     1     1     2    1
     2     2     3    1
     3     2     4    1
     4     4     5    1
     5     5     6    2
     6     6     7    1
     7     6     8    1
     8     8     9    1
     9     9    10    1
    10    10    11    2
    11    11    12    1
    12    12    13    1
    13    13    14    2
    14     2    14    1
    15    11    15    1
    16     1    16    1
    17     1    17    1
    18     1    18    1
    19     3    19    1
    20     3    20    1
    21     3    21    1
    22     4    22    1
    23     4    23    1
    24     5    24    1
    25     7    25    1
    26     7    26    1
    27     7    27    1
    28     8    28    1
    29     8    29    1
    30     9    30    1
    31     9    31    1
    32    10    32    1
    33    12    33    1
    34    12    34    1
    35    13    35    1
    36    14    36    1
    37    15    37    1
    38    15    38    1
    39    15    39    1
