REMARK  Name = NuBBE_1193
REMARK  4 active torsions:
REMARK  status: ('A' for Active; 'I' for Inactive)
REMARK    1  A    between atoms: C_8  and  O_9
REMARK    2  A    between atoms: O_9  and  C_10
REMARK    3  A    between atoms: C_14  and  C_15
REMARK    4  A    between atoms: C_14  and  C_16
REMARK                            x       y       z     vdW  Elec       q    Type
REMARK                         _______ _______ _______ _____ _____    ______ ____
ROOT
ATOM      1  O   LIG A   1      -5.651   1.603  -0.215  0.00  0.00    -0.245 OA
ATOM      2  C   LIG A   1      -4.433   1.571  -0.086  0.00  0.00    +0.337 A 
ATOM      3  C   LIG A   1      -3.664   2.810   0.113  0.00  0.00    +0.093 A 
ATOM      4  C   LIG A   1      -2.334   2.814   0.240  0.00  0.00    +0.022 A 
ATOM      5  O   LIG A   1      -3.711   0.387  -0.118  0.00  0.00    -0.422 OA
ATOM      6  C   LIG A   1      -2.308   0.378   0.022  0.00  0.00    +0.146 A 
ATOM      7  C   LIG A   1      -1.590   1.560   0.185  0.00  0.00    +0.060 A 
ATOM      8  C   LIG A   1      -0.192   1.481   0.299  0.00  0.00    +0.141 A 
ATOM      9  C   LIG A   1       0.462   0.231   0.316  0.00  0.00    +0.059 A 
ATOM     10  C   LIG A   1       1.898   0.105   0.540  0.00  0.00    +0.015 C 
ATOM     11  C   LIG A   1       2.451  -1.108   0.455  0.00  0.00    +0.020 C 
ATOM     12  C   LIG A   1       1.662  -2.358   0.150  0.00  0.00    +0.123 C 
ATOM     13  C   LIG A   1       2.072  -2.901  -1.224  0.00  0.00    +0.060 C 
ATOM     14  C   LIG A   1       1.949  -3.411   1.227  0.00  0.00    +0.060 C 
ATOM     15  O   LIG A   1       0.230  -2.196   0.128  0.00  0.00    -0.481 OA
ATOM     16  C   LIG A   1      -0.296  -0.934   0.141  0.00  0.00    +0.136 A 
ATOM     17  C   LIG A   1      -1.680  -0.864  -0.009  0.00  0.00    +0.093 A 
ENDROOT
BRANCH   8  18
ATOM     18  O   LIG A   1       0.532   2.642   0.461  0.00  0.00    -0.494 OA
ATOM     19  C   LIG A   1       0.994   3.115  -0.808  0.00  0.00    +0.277 C 
ENDBRANCH   8  18
TORSDOF 1
