REMARK  Name = NuBBE_2392
REMARK  11 active torsions:
REMARK  status: ('A' for Active; 'I' for Inactive)
REMARK    1  A    between atoms: C_1  and  C_2
REMARK    2  A    between atoms: C_7  and  C_18
REMARK    3  A    between atoms: C_7  and  O_19
REMARK    4  A    between atoms: C_8  and  C_10
REMARK    5  A    between atoms: C_10  and  C_11
REMARK    6  A    between atoms: C_11  and  C_12
REMARK    7  A    between atoms: C_12  and  C_17
REMARK    8  A    between atoms: C_13  and  C_14
REMARK    9  A    between atoms: C_14  and  O_16
REMARK   10  A    between atoms: C_20  and  C_21
REMARK   11  A    between atoms: C_20  and  C_22
REMARK                            x       y       z     vdW  Elec       q    Type
REMARK                         _______ _______ _______ _____ _____    ______ ____
ROOT
ATOM      1  C   LIG A   1      -0.752   1.064  -0.920  0.00  0.00    +0.012 C 
ATOM      2  C   LIG A   1       0.094   0.898   0.352  0.00  0.00    -0.023 C 
ATOM      3  C   LIG A   1      -0.625   1.437   1.647  0.00  0.00    +0.001 C 
ATOM      4  C   LIG A   1      -1.841   0.568   1.988  0.00  0.00    +0.007 C 
ATOM      5  C   LIG A   1      -1.347  -0.810   2.406  0.00  0.00    +0.035 C 
ATOM      6  C   LIG A   1      -0.595  -1.533   1.279  0.00  0.00    +0.067 C 
ATOM      7  C   LIG A   1       0.482  -0.649   0.547  0.00  0.00    +0.027 C 
ATOM      8  C   LIG A   1       0.066  -2.786   1.889  0.00  0.00    +0.041 C 
ATOM      9  C   LIG A   1      -0.886   2.987   1.734  0.00  0.00    -0.032 C 
ATOM     10  C   LIG A   1      -1.981   3.528   0.792  0.00  0.00    +0.011 C 
ATOM     11  C   LIG A   1      -1.339   3.366   3.171  0.00  0.00    +0.011 C 
ATOM     12  C   LIG A   1       0.452   3.720   1.472  0.00  0.00    +0.007 C 
ATOM     13  C   LIG A   1       1.176   3.253   0.213  0.00  0.00    +0.001 C 
ATOM     14  C   LIG A   1       1.400   1.739   0.189  0.00  0.00    +0.007 C 
ENDROOT
BRANCH   6  15
ATOM     15  O   LIG A   1      -1.592  -1.963   0.354  0.00  0.00    -0.389 OA
ATOM     16  H   LIG A   1      -2.137  -2.643   0.789  0.00  0.00    +0.210 HD
ENDBRANCH   6  15
BRANCH   7  17
ATOM     17  C   LIG A   1       1.113  -1.346  -0.725  0.00  0.00    +0.011 C 
BRANCH  17  18
ATOM     18  C   LIG A   1       0.196  -1.904  -1.838  0.00  0.00    +0.031 C 
BRANCH  18  19
ATOM     19  C   LIG A   1       0.967  -2.496  -3.013  0.00  0.00    -0.066 C 
ATOM     20  C   LIG A   1       1.200  -3.824  -3.071  0.00  0.00    +0.090 C 
ATOM     21  C   LIG A   1       1.361  -1.536  -4.105  0.00  0.00    +0.039 C 
BRANCH  20  22
ATOM     22  C   LIG A   1       1.842  -4.515  -4.209  0.00  0.00    +0.330 C 
ATOM     23  O   LIG A   1       1.924  -4.080  -5.357  0.00  0.00    -0.246 OA
BRANCH  22  24
ATOM     24  O   LIG A   1       2.327  -5.715  -3.843  0.00  0.00    -0.477 OA
ATOM     25  H   LIG A   1       2.271  -5.927  -2.907  0.00  0.00    +0.295 HD
ENDBRANCH  22  24
ENDBRANCH  20  22
ENDBRANCH  18  19
ENDBRANCH  17  18
ENDBRANCH   7  17
TORSDOF 6
