@<TRIPOS>MOLECULE
NuBBE_2036
 43 45 0 0 0
SMALL
GASTEIGER

@<TRIPOS>ATOM
      1 C           0.4062   -1.0115    0.5957 C.3     1  LIG1       -0.0238
      2 C          -0.5942   -1.6564   -0.3712 C.3     1  LIG1       -0.0448
      3 C          -2.0485   -1.2796   -0.0412 C.3     1  LIG1       -0.0239
      4 C          -2.3226    0.2123   -0.0951 C.ar    1  LIG1       -0.0052
      5 C          -2.7592    0.9326    1.0342 C.ar    1  LIG1        0.1267
      6 O          -2.9866    0.2012    2.1712 O.3     1  LIG1       -0.4947
      7 C          -3.4363    0.8967    3.3270 C.3     1  LIG1        0.0788
      8 C          -2.9295    2.3188    0.9447 C.ar    1  LIG1        0.0221
      9 C          -2.6958    2.9789   -0.2622 C.ar    1  LIG1        0.1232
     10 C          -2.2998    2.2825   -1.4028 C.ar    1  LIG1       -0.0085
     11 C          -2.1108    0.8990   -1.3064 C.ar    1  LIG1       -0.0487
     12 C          -2.0435    2.9982   -2.6962 C.3     1  LIG1       -0.0362
     13 O          -2.8548    4.3348   -0.3473 O.3     1  LIG1       -0.5064
     14 C           1.8391   -1.3630    0.2786 C.ar    1  LIG1       -0.0022
     15 C           2.5685   -0.5581   -0.6119 C.ar    1  LIG1       -0.0095
     16 C           3.8815   -0.8924   -0.8727 C.ar    1  LIG1        0.1667
     17 C           4.4796   -1.9825   -0.2890 C.ar    1  LIG1        0.1697
     18 C           3.8013   -2.8023    0.5850 C.ar    1  LIG1        0.0256
     19 C           2.4669   -2.4881    0.8582 C.ar    1  LIG1        0.1237
     20 O           1.7452   -3.2685    1.7149 O.3     1  LIG1       -0.5064
     21 O           5.7757   -2.1346   -0.6757 O.3     1  LIG1       -0.4525
     22 C           5.9151   -1.0338   -1.5986 C.3     1  LIG1        0.2332
     23 O           4.7283   -0.2178   -1.6952 O.3     1  LIG1       -0.4526
     24 H           0.1665   -1.2949    1.6265 H       1  LIG1        0.0314
     25 H           0.3147    0.0822    0.5656 H       1  LIG1        0.0314
     26 H          -0.4999   -2.7493   -0.3249 H       1  LIG1        0.0272
     27 H          -0.3541   -1.3771   -1.4045 H       1  LIG1        0.0272
     28 H          -2.2988   -1.6960    0.9410 H       1  LIG1        0.0314
     29 H          -2.7229   -1.7746   -0.7519 H       1  LIG1        0.0314
     30 H          -3.6777    0.1543    4.0937 H       1  LIG1        0.0660
     31 H          -4.3497    1.4675    3.1281 H       1  LIG1        0.0660
     32 H          -2.6438    1.5419    3.7201 H       1  LIG1        0.0660
     33 H          -3.2392    2.8993    1.8045 H       1  LIG1        0.0691
     34 H          -1.7841    0.3451   -2.1848 H       1  LIG1        0.0625
     35 H          -2.8958    3.6341   -2.9570 H       1  LIG1        0.0279
     36 H          -1.8988    2.2936   -3.5218 H       1  LIG1        0.0279
     37 H          -1.1431    3.6151   -2.6132 H       1  LIG1        0.0279
     38 H          -3.1278    4.6750    0.5197 H       1  LIG1        0.2921
     39 H           2.1223    0.3147   -1.0814 H       1  LIG1        0.0659
     40 H           4.3019   -3.6556    1.0332 H       1  LIG1        0.0692
     41 H           2.3129   -3.9982    2.0298 H       1  LIG1        0.2921
     42 H           6.1408   -1.4379   -2.5915 H       1  LIG1        0.1166
     43 H           6.7512   -0.4058   -1.2748 H       1  LIG1        0.1166
@<TRIPOS>BOND
     1     1     2    1
     2     2     3    1
     3     3     4    1
     4     4     5   ar
     5     5     6    1
     6     6     7    1
     7     5     8   ar
     8     8     9   ar
     9     9    10   ar
    10    10    11   ar
    11     4    11   ar
    12    10    12    1
    13     9    13    1
    14     1    14    1
    15    14    15   ar
    16    15    16   ar
    17    16    17   ar
    18    17    18   ar
    19    18    19   ar
    20    14    19   ar
    21    19    20    1
    22    17    21    1
    23    21    22    1
    24    22    23    1
    25    16    23    1
    26     1    24    1
    27     1    25    1
    28     2    26    1
    29     2    27    1
    30     3    28    1
    31     3    29    1
    32     7    30    1
    33     7    31    1
    34     7    32    1
    35     8    33    1
    36    11    34    1
    37    12    35    1
    38    12    36    1
    39    12    37    1
    40    13    38    1
    41    15    39    1
    42    18    40    1
    43    20    41    1
    44    22    42    1
    45    22    43    1
