@<TRIPOS>MOLECULE
NuBBE_1636
 73 78 0 0 0
SMALL
GASTEIGER

@<TRIPOS>ATOM
      1 C           0.3103    0.1613   -2.4465 C.3     1  LIG1       -0.0527
      2 C           0.8405   -0.1995   -1.0292 C.3     1  LIG1        0.0484
      3 C           1.2107   -1.7464   -1.0297 C.3     1  LIG1        0.1254
      4 C           0.3457   -2.8242   -0.3085 C.3     1  LIG1        0.0419
      5 C           1.2386   -3.7663    0.5542 C.3     1  LIG1       -0.0531
      6 C          -0.3452   -3.6379   -1.4631 C.3     1  LIG1        0.1391
      7 H          -0.8403   -2.9405   -2.1536 H       1  LIG1        0.0793
      8 O           0.6461   -4.3400   -2.2549 O.3     1  LIG1       -0.4539
      9 C           1.7898   -3.7200   -2.6633 C.2     1  LIG1        0.3398
     10 O           2.6195   -4.2712   -3.3587 O.2     1  LIG1       -0.2478
     11 C           1.9470   -2.2996   -2.2673 C.3     1  LIG1        0.1858
     12 H           2.2663   -1.6719   -3.0856 H       1  LIG1        0.0743
     13 O           2.6175   -2.0511   -1.0335 O.3     1  LIG1       -0.3515
     14 C          -1.3991   -4.6263   -1.0287 C.ar    1  LIG1        0.0310
     15 C          -2.8010   -4.3983   -0.8668 C.ar    1  LIG1       -0.0172
     16 C          -3.3581   -5.5982   -0.4913 C.ar    1  LIG1        0.0921
     17 O          -2.4040   -6.5579   -0.4214 O.2     1  LIG1       -0.4706
     18 C          -1.2274   -5.9713   -0.7549 C.ar    1  LIG1        0.0984
     19 C          -0.6616   -2.2002    0.6743 C.3     1  LIG1       -0.0409
     20 C          -1.3099   -0.9392    0.1385 C.3     1  LIG1       -0.0479
     21 C          -0.2179    0.1500    0.0695 C.3     1  LIG1       -0.0171
     22 H           0.3239    0.0650    1.0236 H       1  LIG1        0.0318
     23 C          -0.7721    1.6427    0.0641 C.3     1  LIG1        0.0288
     24 C          -1.3416    1.8855    1.4809 C.2     1  LIG1       -0.0678
     25 C          -0.6684    2.3644    2.5454 C.2     1  LIG1        0.0192
     26 C          -1.2907    2.7377    3.8365 C.2     1  LIG1        0.3314
     27 O          -0.6589    3.2458    4.7491 O.2     1  LIG1       -0.2456
     28 O          -2.6304    2.5429    3.7979 O.3     1  LIG1       -0.4649
     29 C          -3.3488    3.2751    4.7874 C.3     1  LIG1        0.0820
     30 C          -1.9807    1.7762   -0.9129 C.3     1  LIG1       -0.0526
     31 C           0.3622    2.6559   -0.3538 C.3     1  LIG1        0.1685
     32 C           1.7952    2.1667   -0.5310 C.2     1  LIG1        0.2093
     33 O           2.7161    2.9806   -0.4571 O.2     1  LIG1       -0.2902
     34 C           2.0976    0.6805   -0.7224 C.3     1  LIG1        0.1718
     35 O           2.7354    0.2367    0.5059 O.3     1  LIG1       -0.4530
     36 C           4.0780    0.4756    0.6108 C.2     1  LIG1        0.3046
     37 O           4.7685    1.0427   -0.2240 O.2     1  LIG1       -0.2511
     38 C           4.6428   -0.1472    1.8537 C.3     1  LIG1        0.0333
     39 C           0.0068    4.1284   -0.9315 C.3     1  LIG1        0.1020
     40 O           0.3781    3.8785    0.4149 O.3     1  LIG1       -0.3528
     41 C           1.0455    4.8807   -1.7287 C.3     1  LIG1       -0.0329
     42 C          -1.3417    4.7975   -0.9433 C.3     1  LIG1       -0.0329
     43 H          -0.6248   -0.3612   -2.6715 H       1  LIG1        0.0237
     44 H           1.0159   -0.0971   -3.2396 H       1  LIG1        0.0237
     45 H           0.1532    1.2323   -2.5797 H       1  LIG1        0.0237
     46 H           1.9515   -4.3466   -0.0399 H       1  LIG1        0.0237
     47 H           0.6340   -4.4819    1.1221 H       1  LIG1        0.0237
     48 H           1.8278   -3.1877    1.2763 H       1  LIG1        0.0237
     49 H          -3.3429   -3.4728   -1.0019 H       1  LIG1        0.0653
     50 H          -4.3636   -5.9211   -0.2563 H       1  LIG1        0.1029
     51 H          -0.3692   -6.6305   -0.7661 H       1  LIG1        0.1033
     52 H          -0.1513   -1.9459    1.6140 H       1  LIG1        0.0273
     53 H          -1.4297   -2.9189    0.9764 H       1  LIG1        0.0273
     54 H          -2.1131   -0.6537    0.8262 H       1  LIG1        0.0269
     55 H          -1.7784   -1.1324   -0.8331 H       1  LIG1        0.0269
     56 H          -2.4029    1.6669    1.6029 H       1  LIG1        0.0581
     57 H           0.3890    2.6070    2.5028 H       1  LIG1        0.0686
     58 H          -4.4148    3.1187    4.6024 H       1  LIG1        0.0661
     59 H          -3.1394    4.3446    4.6810 H       1  LIG1        0.0661
     60 H          -3.1086    2.9281    5.7961 H       1  LIG1        0.0661
     61 H          -1.6753    1.9520   -1.9465 H       1  LIG1        0.0239
     62 H          -2.6416    2.6042   -0.6399 H       1  LIG1        0.0239
     63 H          -2.6372    0.9023   -0.9105 H       1  LIG1        0.0239
     64 H           2.7987    0.5926   -1.5629 H       1  LIG1        0.0822
     65 H           5.4679    0.4683    2.2260 H       1  LIG1        0.0342
     66 H           5.0128   -1.1475    1.6146 H       1  LIG1        0.0342
     67 H           3.8898   -0.2075    2.6433 H       1  LIG1        0.0342
     68 H           1.6731    4.2056   -2.3164 H       1  LIG1        0.0258
     69 H           1.6809    5.4870   -1.0739 H       1  LIG1        0.0258
     70 H           0.5733    5.5582   -2.4486 H       1  LIG1        0.0258
     71 H          -1.9585    4.5229   -0.0828 H       1  LIG1        0.0258
     72 H          -1.8769    4.5640   -1.8677 H       1  LIG1        0.0258
     73 H          -1.2239    5.8870   -0.8918 H       1  LIG1        0.0258
@<TRIPOS>BOND
     1     1     2    1
     2     2     3    1
     3     3     4    1
     4     4     5    1
     5     4     6    1
     6     6     7    1
     7     6     8    1
     8     8     9    1
     9     9    10    2
    10     9    11    1
    11    11    12    1
    12     3    11    1
    13    11    13    1
    14     3    13    1
    15     6    14    1
    16    14    15   ar
    17    15    16   ar
    18    16    17   ar
    19    17    18   ar
    20    14    18   ar
    21     4    19    1
    22    19    20    1
    23    20    21    1
    24    21    22    1
    25     2    21    1
    26    21    23    1
    27    24    25    2
    28    25    26    1
    29    26    27    2
    30    26    28    1
    31    28    29    1
    32    23    31    1
    33    31    32    1
    34    32    33    2
    35    32    34    1
    36     2    34    1
    37    34    35    1
    38    35    36    1
    39    36    37    2
    40    36    38    1
    41    31    39    1
    42    39    40    1
    43    31    40    1
    44    39    41    1
    45    39    42    1
    46    23    30    1
    47    23    24    1
    48     1    43    1
    49     1    44    1
    50     1    45    1
    51     5    46    1
    52     5    47    1
    53     5    48    1
    54    15    49    1
    55    16    50    1
    56    18    51    1
    57    19    52    1
    58    19    53    1
    59    20    54    1
    60    20    55    1
    61    24    56    1
    62    25    57    1
    63    29    58    1
    64    29    59    1
    65    29    60    1
    66    30    61    1
    67    30    62    1
    68    30    63    1
    69    34    64    1
    70    38    65    1
    71    38    66    1
    72    38    67    1
    73    41    68    1
    74    41    69    1
    75    41    70    1
    76    42    71    1
    77    42    72    1
    78    42    73    1
