REMARK  Name = NuBBE_568
REMARK  9 active torsions:
REMARK  status: ('A' for Active; 'I' for Inactive)
REMARK    1  A    between atoms: C_3  and  C_4
REMARK    2  A    between atoms: C_6  and  O_8
REMARK    3  A    between atoms: O_8  and  C_9
REMARK    4  A    between atoms: C_9  and  C_10
REMARK    5  A    between atoms: C_10  and  C_11
REMARK    6  A    between atoms: C_10  and  O_12
REMARK    7  A    between atoms: C_10  and  C_13
REMARK    8  A    between atoms: C_13  and  O_14
REMARK    9  A    between atoms: C_26  and  C_28
REMARK                            x       y       z     vdW  Elec       q    Type
REMARK                         _______ _______ _______ _____ _____    ______ ____
ROOT
ATOM      1  O   LIG A   1      -2.937   1.402   3.094  0.00  0.00    -0.288 OA
ATOM      2  C   LIG A   1      -2.002   0.636   2.924  0.00  0.00    +0.202 C 
ATOM      3  C   LIG A   1      -0.718   0.926   2.178  0.00  0.00    +0.172 C 
ATOM      4  C   LIG A   1      -0.037   2.183   2.694  0.00  0.00    +0.064 C 
ATOM      5  C   LIG A   1      -0.946   0.920   0.653  0.00  0.00    +0.101 C 
ATOM      6  C   LIG A   1       0.161   0.229  -0.187  0.00  0.00    +0.192 C 
ATOM      7  C   LIG A   1      -0.199  -1.198  -0.680  0.00  0.00    +0.107 C 
ATOM      8  C   LIG A   1       0.832  -1.966  -1.453  0.00  0.00    +0.040 C 
ATOM      9  C   LIG A   1       2.055  -1.637  -1.892  0.00  0.00    +0.020 C 
ATOM     10  C   LIG A   1      -0.613  -2.326   0.266  0.00  0.00    +0.189 C 
ATOM     11  O   LIG A   1      -0.665  -3.472  -0.622  0.00  0.00    -0.457 OA
ATOM     12  C   LIG A   1       0.297  -3.338  -1.578  0.00  0.00    +0.335 C 
ATOM     13  O   LIG A   1       0.631  -4.192  -2.388  0.00  0.00    -0.245 OA
ATOM     14  C   LIG A   1       0.343  -2.713   1.425  0.00  0.00    +0.056 C 
ATOM     15  C   LIG A   1      -0.302  -2.585   2.830  0.00  0.00    +0.055 C 
ATOM     16  C   LIG A   1      -1.350  -3.683   3.043  0.00  0.00    +0.016 C 
ATOM     17  C   LIG A   1      -0.821  -1.182   2.976  0.00  0.00    +0.105 C 
ATOM     18  O   LIG A   1       0.077  -0.211   2.545  0.00  0.00    -0.482 OA
ATOM     19  C   LIG A   1      -2.038  -0.767   3.324  0.00  0.00    +0.091 C 
ENDROOT
BRANCH   6  20
ATOM     20  O   LIG A   1       0.248   1.010  -1.423  0.00  0.00    -0.458 OA
BRANCH  20  21
ATOM     21  C   LIG A   1       1.046   2.113  -1.434  0.00  0.00    +0.342 C 
ATOM     22  O   LIG A   1       1.717   2.492  -0.482  0.00  0.00    -0.247 OA
BRANCH  21  23
ATOM     23  C   LIG A   1       0.886   2.902  -2.751  0.00  0.00    +0.182 C 
ATOM     24  C   LIG A   1      -0.552   3.418  -2.842  0.00  0.00    +0.056 C 
BRANCH  23  25
ATOM     25  O   LIG A   1       1.759   4.042  -2.798  0.00  0.00    -0.376 OA
ATOM     26  H   LIG A   1       1.632   4.531  -1.962  0.00  0.00    +0.211 HD
ENDBRANCH  23  25
BRANCH  23  27
ATOM     27  C   LIG A   1       1.208   2.014  -3.961  0.00  0.00    +0.201 C 
BRANCH  27  28
ATOM     28  O   LIG A   1       2.564   1.567  -3.940  0.00  0.00    -0.392 OA
ATOM     29  H   LIG A   1       3.114   2.375  -3.931  0.00  0.00    +0.209 HD
ENDBRANCH  27  28
ENDBRANCH  23  27
ENDBRANCH  21  23
ENDBRANCH  20  21
ENDBRANCH   6  20
TORSDOF 6
