REMARK  Name = NuBBE_1065
REMARK  5 active torsions:
REMARK  status: ('A' for Active; 'I' for Inactive)
REMARK    1  A    between atoms: O_1  and  C_2
REMARK    2  A    between atoms: C_3  and  O_4
REMARK    3  A    between atoms: O_4  and  C_5
REMARK    4  A    between atoms: C_14  and  O_15
REMARK    5  A    between atoms: O_15  and  C_16
REMARK                            x       y       z     vdW  Elec       q    Type
REMARK                         _______ _______ _______ _____ _____    ______ ____
ROOT
ATOM      1  C   LIG A   1      -2.454   0.777   0.109  0.00  0.00    +0.159 A 
ATOM      2  C   LIG A   1      -1.803   2.006   0.017  0.00  0.00    +0.163 A 
ATOM      3  C   LIG A   1      -0.411   2.017  -0.016  0.00  0.00    +0.078 A 
ATOM      4  C   LIG A   1       0.336   0.847   0.030  0.00  0.00    +0.082 A 
ATOM      5  N   LIG A   1       1.659   0.988  -0.018  0.00  0.00    -0.212 NA
ATOM      6  C   LIG A   1       2.356  -0.152   0.045  0.00  0.00    +0.231 A 
ATOM      7  O   LIG A   1       3.718  -0.167   0.032  0.00  0.00    -0.445 OA
ATOM      8  C   LIG A   1       4.106  -1.460   0.137  0.00  0.00    +0.198 A 
ATOM      9  C   LIG A   1       3.010  -2.286   0.214  0.00  0.00    +0.055 A 
ATOM     10  C   LIG A   1       1.858  -1.451   0.145  0.00  0.00    +0.082 A 
ATOM     11  C   LIG A   1       0.455  -1.582   0.176  0.00  0.00    +0.142 A 
ATOM     12  C   LIG A   1      -0.330  -0.400   0.128  0.00  0.00    +0.046 A 
ATOM     13  C   LIG A   1      -1.740  -0.411   0.167  0.00  0.00    +0.062 A 
ENDROOT
BRANCH   1  14
ATOM     14  O   LIG A   1      -3.820   0.720   0.142  0.00  0.00    -0.503 OA
ATOM     15  H   LIG A   1      -4.117   1.650   0.098  0.00  0.00    +0.292 HD
ENDBRANCH   1  14
BRANCH   2  16
ATOM     16  O   LIG A   1      -2.624   3.104  -0.037  0.00  0.00    -0.491 OA
ATOM     17  C   LIG A   1      -1.983   4.371  -0.127  0.00  0.00    +0.277 C 
ENDBRANCH   2  16
BRANCH  11  18
ATOM     18  O   LIG A   1      -0.234  -2.771   0.373  0.00  0.00    -0.494 OA
ATOM     19  C   LIG A   1       0.281  -3.902  -0.316  0.00  0.00    +0.277 C 
ENDBRANCH  11  18
TORSDOF 3
