REMARK  Name = NuBBE_6
REMARK  12 active torsions:
REMARK  status: ('A' for Active; 'I' for Inactive)
REMARK    1  A    between atoms: O_1  and  C_2
REMARK    2  A    between atoms: C_5  and  O_6
REMARK    3  A    between atoms: C_5  and  C_7
REMARK    4  A    between atoms: C_7  and  O_8
REMARK    5  A    between atoms: O_8  and  C_9
REMARK    6  A    between atoms: C_12  and  O_14
REMARK    7  A    between atoms: C_15  and  O_17
REMARK    8  A    between atoms: O_17  and  C_18
REMARK    9  A    between atoms: C_18  and  C_19
REMARK   10  A    between atoms: C_20  and  C_21
REMARK   11  A    between atoms: C_23  and  O_24
REMARK   12  A    between atoms: C_25  and  O_26
REMARK                            x       y       z     vdW  Elec       q    Type
REMARK                         _______ _______ _______ _____ _____    ______ ____
ROOT
ATOM      1  C   LIG A   1      -2.321   0.491   1.349  0.00  0.00    +0.161 C 
ATOM      2  C   LIG A   1      -2.323  -0.995   0.986  0.00  0.00    +0.081 C 
ATOM      3  C   LIG A   1      -2.849  -1.275  -0.428  0.00  0.00    +0.167 C 
ATOM      4  C   LIG A   1      -2.200  -0.363  -1.485  0.00  0.00    +0.081 C 
ATOM      5  C   LIG A   1      -2.210   1.117  -1.104  0.00  0.00    +0.161 C 
ATOM      6  C   LIG A   1      -1.623   1.363   0.295  0.00  0.00    +0.234 C 
ENDROOT
BRANCH   1   7
ATOM      7  O   LIG A   1      -1.668   0.642   2.616  0.00  0.00    -0.388 OA
ATOM      8  H   LIG A   1      -0.733   0.400   2.485  0.00  0.00    +0.210 HD
ENDBRANCH   1   7
BRANCH   3   9
ATOM      9  O   LIG A   1      -2.460  -2.627  -0.750  0.00  0.00    -0.377 OA
ATOM     10  H   LIG A   1      -2.868  -2.849  -1.609  0.00  0.00    +0.211 HD
ENDBRANCH   3   9
BRANCH   3  11
ATOM     11  C   LIG A   1      -4.391  -1.210  -0.538  0.00  0.00    +0.339 C 
ATOM     12  O   LIG A   1      -4.994  -1.449  -1.581  0.00  0.00    -0.248 OA
BRANCH  11  13
ATOM     13  O   LIG A   1      -4.975  -0.911   0.649  0.00  0.00    -0.466 OA
ATOM     14  C   LIG A   1      -6.399  -0.866   0.661  0.00  0.00    +0.280 C 
ENDBRANCH  11  13
ENDBRANCH   3  11
BRANCH   5  15
ATOM     15  O   LIG A   1      -3.549   1.600  -1.157  0.00  0.00    -0.388 OA
ATOM     16  H   LIG A   1      -3.788   1.704  -2.097  0.00  0.00    +0.210 HD
ENDBRANCH   5  15
BRANCH   6  17
ATOM     17  O   LIG A   1      -0.218   1.036   0.314  0.00  0.00    -0.453 OA
BRANCH  17  18
ATOM     18  C   LIG A   1       0.596   2.016  -0.131  0.00  0.00    +0.332 C 
ATOM     19  O   LIG A   1       0.248   3.106  -0.578  0.00  0.00    -0.246 OA
BRANCH  18  20
ATOM     20  C   LIG A   1       2.007   1.617  -0.080  0.00  0.00    +0.092 C 
ATOM     21  C   LIG A   1       2.450   0.440   0.388  0.00  0.00    +0.015 C 
BRANCH  21  22
ATOM     22  C   LIG A   1       3.869   0.068   0.345  0.00  0.00    -0.021 A 
ATOM     23  C   LIG A   1       4.707   0.534  -0.681  0.00  0.00    +0.057 A 
ATOM     24  C   LIG A   1       6.048   0.181  -0.692  0.00  0.00    +0.159 A 
ATOM     25  C   LIG A   1       6.560  -0.657   0.291  0.00  0.00    +0.158 A 
ATOM     26  C   LIG A   1       5.742  -1.161   1.291  0.00  0.00    +0.050 A 
ATOM     27  C   LIG A   1       4.391  -0.801   1.316  0.00  0.00    +0.012 A 
BRANCH  24  28
ATOM     28  O   LIG A   1       6.902   0.644  -1.655  0.00  0.00    -0.503 OA
ATOM     29  H   LIG A   1       6.399   1.221  -2.255  0.00  0.00    +0.292 HD
ENDBRANCH  24  28
BRANCH  25  30
ATOM     30  O   LIG A   1       7.883  -0.988   0.275  0.00  0.00    -0.503 OA
ATOM     31  H   LIG A   1       8.243  -0.510  -0.499  0.00  0.00    +0.292 HD
ENDBRANCH  25  30
ENDBRANCH  21  22
ENDBRANCH  18  20
ENDBRANCH  17  18
ENDBRANCH   6  17
TORSDOF 11
