REMARK  Name = NuBBE_971
REMARK  3 active torsions:
REMARK  status: ('A' for Active; 'I' for Inactive)
REMARK    1  A    between atoms: C_2  and  C_6
REMARK    2  A    between atoms: N_3  and  C_4
REMARK    3  A    between atoms: C_7  and  C_8
REMARK                            x       y       z     vdW  Elec       q    Type
REMARK                         _______ _______ _______ _____ _____    ______ ____
ROOT
ATOM      1  C   LIG A   1      -0.276  -0.782   0.553  0.00  0.00    +0.068 C 
ATOM      2  C   LIG A   1       0.804  -0.143   0.077  0.00  0.00    +0.013 C 
ENDROOT
BRANCH   2   3
ATOM      3  C   LIG A   1       0.723   1.062  -0.762  0.00  0.00    -0.025 A 
ATOM      4  C   LIG A   1       1.712   1.293  -1.727  0.00  0.00    +0.008 A 
ATOM      5  C   LIG A   1       1.667   2.435  -2.532  0.00  0.00    +0.001 A 
ATOM      6  C   LIG A   1       0.639   3.363  -2.374  0.00  0.00    +0.000 A 
ATOM      7  C   LIG A   1      -0.338   3.156  -1.405  0.00  0.00    +0.001 A 
ATOM      8  C   LIG A   1      -0.291   2.017  -0.598  0.00  0.00    +0.008 A 
ENDBRANCH   2   3
BRANCH   1  10
ATOM      9  O   LIG A   1       0.948  -2.445   1.742  0.00  0.00    -0.271 OA
ATOM     10  C   LIG A   1      -0.134  -1.986   1.408  0.00  0.00    +0.237 C 
ATOM     11  N   LIG A   1      -1.350  -2.511   1.774  0.00  0.00    -0.315 N 
ATOM     12  C   LIG A   1      -1.433  -3.683   2.605  0.00  0.00    +0.128 C 
ATOM     13  H   LIG A   1      -2.208  -2.098   1.437  0.00  0.00    +0.149 HD
ENDBRANCH   1  10
TORSDOF 2
