REMARK  Name = NuBBE_865
REMARK  9 active torsions:
REMARK  status: ('A' for Active; 'I' for Inactive)
REMARK    1  A    between atoms: O_1  and  C_2
REMARK    2  A    between atoms: O_1  and  C_3
REMARK    3  A    between atoms: C_9  and  C_10
REMARK    4  A    between atoms: C_9  and  C_11
REMARK    5  A    between atoms: C_14  and  O_16
REMARK    6  A    between atoms: O_16  and  C_17
REMARK    7  A    between atoms: C_19  and  O_23
REMARK    8  A    between atoms: C_20  and  C_22
REMARK    9  A    between atoms: O_23  and  C_24
REMARK                            x       y       z     vdW  Elec       q    Type
REMARK                         _______ _______ _______ _____ _____    ______ ____
ROOT
ATOM      1  C   LIG A   1      -2.287  -0.131  -0.115  0.00  0.00    +0.128 A 
ATOM      2  C   LIG A   1      -1.431  -1.248  -0.046  0.00  0.00    +0.025 A 
ATOM      3  C   LIG A   1      -0.027  -1.057   0.052  0.00  0.00    -0.003 A 
ATOM      4  C   LIG A   1       0.496   0.283   0.053  0.00  0.00    -0.009 A 
ATOM      5  C   LIG A   1      -0.374   1.386   0.011  0.00  0.00    -0.023 A 
ATOM      6  C   LIG A   1      -1.757   1.156  -0.094  0.00  0.00    +0.051 A 
ATOM      7  C   LIG A   1       0.136   2.828   0.065  0.00  0.00    +0.057 C 
ATOM      8  C   LIG A   1      -0.164   3.534  -1.272  0.00  0.00    +0.024 C 
ATOM      9  C   LIG A   1      -0.549   3.580   1.229  0.00  0.00    +0.024 C 
ATOM     10  C   LIG A   1       1.645   2.966   0.297  0.00  0.00    +0.207 C 
ATOM     11  O   LIG A   1       2.139   4.063   0.558  0.00  0.00    -0.288 OA
ATOM     12  C   LIG A   1       2.517   1.758   0.153  0.00  0.00    +0.164 C 
ATOM     13  C   LIG A   1       1.944   0.554   0.052  0.00  0.00    +0.058 C 
ATOM     14  C   LIG A   1       0.772  -2.229   0.165  0.00  0.00    +0.055 A 
ATOM     15  C   LIG A   1       0.239  -3.526   0.152  0.00  0.00    +0.124 A 
ATOM     16  C   LIG A   1      -1.139  -3.698   0.031  0.00  0.00    -0.008 A 
ATOM     17  C   LIG A   1      -1.952  -2.561  -0.055  0.00  0.00    +0.019 A 
ATOM     18  C   LIG A   1      -1.785  -5.055   0.052  0.00  0.00    +0.048 C 
ENDROOT
BRANCH   1  19
ATOM     19  O   LIG A   1      -3.635  -0.371  -0.261  0.00  0.00    -0.494 OA
ATOM     20  C   LIG A   1      -4.515   0.593   0.308  0.00  0.00    +0.277 C 
ENDBRANCH   1  19
BRANCH  12  21
ATOM     21  O   LIG A   1       3.906   1.819   0.169  0.00  0.00    -0.492 OA
ATOM     22  C   LIG A   1       4.493   2.993  -0.383  0.00  0.00    +0.277 C 
ENDBRANCH  12  21
BRANCH  15  23
ATOM     23  O   LIG A   1       0.990  -4.660   0.321  0.00  0.00    -0.495 OA
ATOM     24  C   LIG A   1       2.324  -4.612  -0.172  0.00  0.00    +0.277 C 
ENDBRANCH  15  23
TORSDOF 3
