REMARK  Name = NuBBE_1114
REMARK  6 active torsions:
REMARK  status: ('A' for Active; 'I' for Inactive)
REMARK    1  A    between atoms: C_2  and  C_3
REMARK    2  A    between atoms: C_5  and  O_6
REMARK    3  A    between atoms: O_6  and  C_7
REMARK    4  A    between atoms: C_8  and  O_9
REMARK    5  A    between atoms: C_10  and  O_11
REMARK    6  A    between atoms: O_11  and  C_12
REMARK                            x       y       z     vdW  Elec       q    Type
REMARK                         _______ _______ _______ _____ _____    ______ ____
ROOT
ATOM      1  C   LIG A   1      -1.118  -1.097   1.023  0.00  0.00    +0.021 A 
ATOM      2  C   LIG A   1      -1.448   0.256   1.141  0.00  0.00    +0.060 A 
ATOM      3  C   LIG A   1      -0.723   1.227   0.439  0.00  0.00    +0.166 A 
ATOM      4  C   LIG A   1       0.325   0.808  -0.389  0.00  0.00    +0.201 A 
ATOM      5  C   LIG A   1       0.666  -0.554  -0.501  0.00  0.00    +0.166 A 
ATOM      6  C   LIG A   1      -0.056  -1.507   0.212  0.00  0.00    +0.060 A 
ENDROOT
BRANCH   1   7
ATOM      7  C   LIG A   1      -1.908  -2.104   1.758  0.00  0.00    +0.259 C 
ATOM      8  O   LIG A   1      -1.655  -3.299   1.688  0.00  0.00    -0.296 OA
ENDBRANCH   1   7
BRANCH   3   9
ATOM      9  O   LIG A   1      -1.166   2.500   0.673  0.00  0.00    -0.491 OA
ATOM     10  C   LIG A   1      -0.474   3.572   0.047  0.00  0.00    +0.277 C 
ENDBRANCH   3   9
BRANCH   4  11
ATOM     11  O   LIG A   1       1.060   1.697  -1.132  0.00  0.00    -0.501 OA
ATOM     12  H   LIG A   1       1.709   1.151  -1.621  0.00  0.00    +0.292 HD
ENDBRANCH   4  11
BRANCH   5  13
ATOM     13  O   LIG A   1       1.718  -0.815  -1.346  0.00  0.00    -0.491 OA
ATOM     14  C   LIG A   1       2.119  -2.177  -1.461  0.00  0.00    +0.277 C 
ENDBRANCH   5  13
TORSDOF 4
