@<TRIPOS>MOLECULE
NuBBE_1090
 50 54 0 0 0
SMALL
GASTEIGER

@<TRIPOS>ATOM
      1 O          -5.0339   -1.4664   -1.4980 O.3     1  LIG1       -0.5033
      2 C          -3.6962   -1.3749   -1.2340 C.ar    1  LIG1        0.1588
      3 C          -2.9062   -2.4973   -1.4790 C.ar    1  LIG1       -0.0159
      4 C          -1.5357   -2.4651   -1.2197 C.ar    1  LIG1       -0.0500
      5 C          -0.9272   -1.3268   -0.6729 C.ar    1  LIG1       -0.0074
      6 C          -1.7437   -0.2052   -0.4017 C.ar    1  LIG1        0.0263
      7 C          -1.0917    0.9813    0.2998 C.3     1  LIG1        0.0592
      8 H          -1.6766    1.8920    0.1219 H       1  LIG1        0.0555
      9 N           0.2747    1.2306   -0.2552 N.pl3   1  LIG1       -0.3244
     10 C           1.1144    0.0686   -0.2642 C.ar    1  LIG1        0.0457
     11 C           0.5304   -1.2200   -0.4285 C.ar    1  LIG1        0.0042
     12 C           1.3702   -2.3425   -0.3824 C.ar    1  LIG1       -0.0517
     13 C           2.7518   -2.2133   -0.2336 C.ar    1  LIG1       -0.0532
     14 C           3.3480   -0.9570   -0.1116 C.ar    1  LIG1       -0.0124
     15 C           2.5305    0.2128   -0.1059 C.ar    1  LIG1        0.0074
     16 C           3.1694    1.4652    0.0685 C.ar    1  LIG1       -0.0066
     17 C           4.5439    1.5192    0.1706 C.ar    1  LIG1        0.1669
     18 O           5.2916    2.6473    0.3046 O.3     1  LIG1       -0.4526
     19 C           6.6219    2.0898    0.3255 C.3     1  LIG1        0.2332
     20 O           6.6402    0.6494    0.2451 O.3     1  LIG1       -0.4526
     21 C           5.3109    0.3853    0.1373 C.ar    1  LIG1        0.1668
     22 C           4.7458   -0.8625    0.0100 C.ar    1  LIG1       -0.0084
     23 C           0.2681    1.8828   -1.5749 C.3     1  LIG1        0.0013
     24 C          -0.9902    0.7924    1.8250 C.3     1  LIG1        0.0284
     25 C          -2.3360    0.6400    2.5015 C.2     1  LIG1        0.1324
     26 C          -2.8665   -0.7609    2.7066 C.3     1  LIG1       -0.0060
     27 O          -2.9944    1.6167    2.8490 O.2     1  LIG1       -0.2976
     28 C          -3.1247   -0.2059   -0.7191 C.ar    1  LIG1        0.1668
     29 O          -3.7610    0.9797   -0.4668 O.3     1  LIG1       -0.4911
     30 C          -5.1731    1.0555   -0.5939 C.3     1  LIG1        0.0790
     31 H          -5.2475   -2.3699   -1.7824 H       1  LIG1        0.2923
     32 H          -3.3352   -3.4060   -1.8918 H       1  LIG1        0.0655
     33 H          -0.9543   -3.3470   -1.4735 H       1  LIG1        0.0625
     34 H           0.9685   -3.3484   -0.4633 H       1  LIG1        0.0624
     35 H           3.3598   -3.1161   -0.2174 H       1  LIG1        0.0624
     36 H           2.5941    2.3843    0.1152 H       1  LIG1        0.0662
     37 H           7.1172    2.3956    1.2540 H       1  LIG1        0.1166
     38 H           7.1858    2.4947   -0.5232 H       1  LIG1        0.1166
     39 H           5.3811   -1.7421   -0.0005 H       1  LIG1        0.0661
     40 H          -0.2128    1.2587   -2.3367 H       1  LIG1        0.0428
     41 H           1.2786    2.1247   -1.9202 H       1  LIG1        0.0428
     42 H          -0.2796    2.8298   -1.5149 H       1  LIG1        0.0428
     43 H          -0.4996    1.6671    2.2744 H       1  LIG1        0.0363
     44 H          -0.3667   -0.0642    2.1063 H       1  LIG1        0.0363
     45 H          -3.4682   -1.0611    1.8498 H       1  LIG1        0.0306
     46 H          -3.4928   -0.7845    3.6028 H       1  LIG1        0.0306
     47 H          -2.0464   -1.4687    2.8479 H       1  LIG1        0.0306
     48 H          -5.4697    2.0858   -0.3726 H       1  LIG1        0.0660
     49 H          -5.6641    0.4075    0.1386 H       1  LIG1        0.0660
     50 H          -5.5031    0.8491   -1.6166 H       1  LIG1        0.0660
@<TRIPOS>BOND
     1     1     2    1
     2     2     3   ar
     3     3     4   ar
     4     4     5   ar
     5     5     6   ar
     6     6     7    1
     7     7     8    1
     8     7     9    1
     9     9    10    1
    10    10    11   ar
    11     5    11    1
    12    11    12   ar
    13    12    13   ar
    14    13    14   ar
    15    14    15   ar
    16    10    15   ar
    17    15    16   ar
    18    16    17   ar
    19    17    18    1
    20    18    19    1
    21    19    20    1
    22    20    21    1
    23    17    21   ar
    24    21    22   ar
    25    14    22   ar
    26     9    23    1
    27     7    24    1
    28    24    25    1
    29    25    26    1
    30    25    27    2
    31     6    28   ar
    32     2    28   ar
    33    28    29    1
    34    29    30    1
    35     1    31    1
    36     3    32    1
    37     4    33    1
    38    12    34    1
    39    13    35    1
    40    16    36    1
    41    19    37    1
    42    19    38    1
    43    22    39    1
    44    23    40    1
    45    23    41    1
    46    23    42    1
    47    24    43    1
    48    24    44    1
    49    26    45    1
    50    26    46    1
    51    26    47    1
    52    30    48    1
    53    30    49    1
    54    30    50    1
