@<TRIPOS>MOLECULE
NuBBE_561
 78 81 0 0 0
SMALL
GASTEIGER

@<TRIPOS>ATOM
      1 C          -2.2728   -0.0421    1.4614 C.3     1  LIG1       -0.0590
      2 C          -0.7521    0.0969    1.2353 C.3     1  LIG1       -0.0259
      3 C          -0.0159    0.0794    2.6127 C.3     1  LIG1       -0.0322
      4 C           1.3774   -0.4586    2.2665 C.3     1  LIG1       -0.0492
      5 C           1.2061   -1.3846    1.0618 C.3     1  LIG1       -0.0492
      6 C          -0.2116   -1.1739    0.4739 C.3     1  LIG1       -0.0328
      7 H          -0.8167   -2.0355    0.7913 H       1  LIG1        0.0309
      8 C          -0.1914   -1.1740   -1.1179 C.3     1  LIG1       -0.0405
      9 H           0.5358   -0.4146   -1.4351 H       1  LIG1        0.0301
     10 C          -1.5251   -0.8137   -1.7917 C.3     1  LIG1       -0.0621
     11 C           0.3100   -2.5505   -1.6780 C.3     1  LIG1       -0.0499
     12 C           0.3284   -2.6928   -3.2269 C.3     1  LIG1       -0.0497
     13 C           0.8982   -4.0532   -3.7622 C.3     1  LIG1       -0.0389
     14 H           1.8551   -4.2217   -3.2510 H       1  LIG1        0.0303
     15 C          -0.0280   -5.2411   -3.3591 C.3     1  LIG1       -0.0528
     16 C           0.3906   -6.6200   -3.8722 C.3     1  LIG1       -0.0650
     17 C           1.2181   -4.0275   -5.3008 C.3     1  LIG1       -0.0439
     18 C           0.0496   -3.6123   -6.1984 C.3     1  LIG1       -0.0624
     19 C           2.4487   -3.1737   -5.6422 C.3     1  LIG1       -0.0624
     20 H          -0.4777   -0.6699    3.2727 H       1  LIG1        0.0309
     21 C           0.0461    1.4389    3.3917 C.3     1  LIG1       -0.0338
     22 H           0.8304    1.3227    4.1525 H       1  LIG1        0.0307
     23 C           0.4337    2.6456    2.4797 C.3     1  LIG1       -0.0288
     24 C           0.4345    4.0271    3.2310 C.3     1  LIG1       -0.0072
     25 C          -0.9256    4.1925    3.8954 C.2     1  LIG1       -0.0601
     26 C          -1.3068    3.0911    4.8575 C.3     1  LIG1       -0.0305
     27 C          -1.2639    1.7214    4.1686 C.3     1  LIG1       -0.0459
     28 C          -1.7955    5.1748    3.5950 C.2     1  LIG1       -0.0194
     29 C          -1.5309    6.1519    2.5225 C.2     1  LIG1        0.1561
     30 C          -0.3794    5.9128    1.5910 C.3     1  LIG1        0.0107
     31 C           0.7837    5.2257    2.2895 C.3     1  LIG1       -0.0367
     32 O          -2.3291    7.0872    2.3482 O.2     1  LIG1       -0.2927
     33 C           1.5596    4.0243    4.3029 C.3     1  LIG1       -0.0556
     34 H           1.4595    2.4782    2.1242 H       1  LIG1        0.0312
     35 C          -0.4753    2.6608    1.2475 C.3     1  LIG1       -0.0487
     36 C          -0.3935    1.3722    0.4602 C.3     1  LIG1       -0.0468
     37 H          -2.4910   -0.7335    2.2857 H       1  LIG1        0.0235
     38 H          -2.7869   -0.4421    0.5857 H       1  LIG1        0.0235
     39 H          -2.7525    0.9107    1.6941 H       1  LIG1        0.0235
     40 H           1.8178   -0.9956    3.1155 H       1  LIG1        0.0268
     41 H           2.0761    0.3450    2.0124 H       1  LIG1        0.0268
     42 H           1.3274   -2.4305    1.3673 H       1  LIG1        0.0268
     43 H           1.9978   -1.1708    0.3351 H       1  LIG1        0.0268
     44 H          -2.2381   -1.6418   -1.7471 H       1  LIG1        0.0233
     45 H          -1.3539   -0.5693   -2.8473 H       1  LIG1        0.0233
     46 H          -2.0147    0.0657   -1.3772 H       1  LIG1        0.0233
     47 H          -0.3197   -3.3371   -1.2495 H       1  LIG1        0.0268
     48 H           1.3299   -2.7142   -1.3150 H       1  LIG1        0.0268
     49 H           0.9276   -1.8659   -3.6223 H       1  LIG1        0.0268
     50 H          -0.6855   -2.5643   -3.6234 H       1  LIG1        0.0268
     51 H          -1.0593   -5.0509   -3.6785 H       1  LIG1        0.0265
     52 H          -0.0508   -5.3104   -2.2648 H       1  LIG1        0.0265
     53 H           1.4063   -6.8741   -3.5528 H       1  LIG1        0.0230
     54 H           0.3366   -6.6904   -4.9623 H       1  LIG1        0.0230
     55 H          -0.2838   -7.3896   -3.4785 H       1  LIG1        0.0230
     56 H           1.4962   -5.0418   -5.6081 H       1  LIG1        0.0298
     57 H          -0.2006   -2.5540   -6.0781 H       1  LIG1        0.0232
     58 H          -0.8430   -4.2137   -6.0074 H       1  LIG1        0.0232
     59 H           0.3181   -3.7625   -7.2528 H       1  LIG1        0.0232
     60 H           2.4494   -2.2073   -5.1341 H       1  LIG1        0.0232
     61 H           2.5069   -2.9799   -6.7202 H       1  LIG1        0.0232
     62 H           3.3654   -3.7050   -5.3640 H       1  LIG1        0.0232
     63 H          -2.3188    3.2492    5.2515 H       1  LIG1        0.0310
     64 H          -0.6410    3.1018    5.7270 H       1  LIG1        0.0310
     65 H          -2.1240    1.6711    3.4995 H       1  LIG1        0.0271
     66 H          -1.4199    0.9387    4.9214 H       1  LIG1        0.0271
     67 H          -2.7675    5.2581    4.0676 H       1  LIG1        0.0652
     68 H          -0.0388    6.8763    1.1972 H       1  LIG1        0.0345
     69 H          -0.7597    5.3458    0.7327 H       1  LIG1        0.0345
     70 H           1.2813    6.0093    2.8782 H       1  LIG1        0.0278
     71 H           1.5268    4.9137    1.5430 H       1  LIG1        0.0278
     72 H           1.4792    3.2044    5.0208 H       1  LIG1        0.0238
     73 H           1.5510    4.9545    4.8848 H       1  LIG1        0.0238
     74 H           2.5445    3.9396    3.8280 H       1  LIG1        0.0238
     75 H          -0.1412    3.4355    0.5561 H       1  LIG1        0.0268
     76 H          -1.5144    2.8861    1.5102 H       1  LIG1        0.0268
     77 H           0.6322    1.2959    0.0802 H       1  LIG1        0.0271
     78 H          -1.0395    1.4995   -0.4086 H       1  LIG1        0.0271
@<TRIPOS>BOND
     1     2     3    1
     2     3     4    1
     3     4     5    1
     4     5     6    1
     5     2     6    1
     6     8    11    1
     7    11    12    1
     8    12    13    1
     9    13    14    1
    10    13    15    1
    11    15    16    1
    12    13    17    1
    13    17    18    1
    14    17    19    1
    15     3    21    1
    16    21    23    1
    17    23    24    1
    18    24    25    1
    19    25    26    1
    20    26    27    1
    21    21    27    1
    22    25    28    2
    23    28    29    1
    24    29    30    1
    25    30    31    1
    26    31    24    1
    27    23    35    1
    28    35    36    1
    29     2    36    1
    30     1     2    1
    31     3    20    1
    32     6     7    1
    33     6     8    1
    34    21    22    1
    35    23    34    1
    36    24    33    1
    37    29    32    2
    38     8    10    1
    39     8     9    1
    40     1    37    1
    41     1    38    1
    42     1    39    1
    43     4    40    1
    44     4    41    1
    45     5    42    1
    46     5    43    1
    47    10    44    1
    48    10    45    1
    49    10    46    1
    50    11    47    1
    51    11    48    1
    52    12    49    1
    53    12    50    1
    54    15    51    1
    55    15    52    1
    56    16    53    1
    57    16    54    1
    58    16    55    1
    59    17    56    1
    60    18    57    1
    61    18    58    1
    62    18    59    1
    63    19    60    1
    64    19    61    1
    65    19    62    1
    66    26    63    1
    67    26    64    1
    68    27    65    1
    69    27    66    1
    70    28    67    1
    71    30    68    1
    72    30    69    1
    73    31    70    1
    74    31    71    1
    75    33    72    1
    76    33    73    1
    77    33    74    1
    78    35    75    1
    79    35    76    1
    80    36    77    1
    81    36    78    1
