REMARK  Name = NuBBE_1563
REMARK  10 active torsions:
REMARK  status: ('A' for Active; 'I' for Inactive)
REMARK    1  A    between atoms: C_1  and  C_2
REMARK    2  A    between atoms: C_2  and  C_3
REMARK    3  A    between atoms: C_3  and  C_4
REMARK    4  A    between atoms: C_4  and  C_5
REMARK    5  A    between atoms: C_5  and  C_6
REMARK    6  A    between atoms: C_6  and  C_7
REMARK    7  A    between atoms: C_7  and  C_8
REMARK    8  A    between atoms: C_8  and  C_9
REMARK    9  A    between atoms: C_9  and  C_10
REMARK   10  A    between atoms: C_10  and  C_11
REMARK                            x       y       z     vdW  Elec       q    Type
REMARK                         _______ _______ _______ _____ _____    ______ ____
ROOT
ATOM      1  C   LIG A   1       1.712   1.935   1.617  0.00  0.00    +0.211 C 
ATOM      2  C   LIG A   1       2.264   0.609   1.182  0.00  0.00    +0.083 A 
ATOM      3  C   LIG A   1       3.473   0.508   0.600  0.00  0.00    +0.149 A 
ATOM      4  C   LIG A   1       4.333   1.682   0.618  0.00  0.00    +0.059 A 
ATOM      5  C   LIG A   1       5.546   1.715  -0.086  0.00  0.00    +0.015 A 
ATOM      6  C   LIG A   1       6.363   2.842  -0.031  0.00  0.00    +0.001 A 
ATOM      7  C   LIG A   1       6.014   3.910   0.793  0.00  0.00    +0.004 A 
ATOM      8  C   LIG A   1       4.829   3.869   1.534  0.00  0.00    +0.046 A 
ATOM      9  C   LIG A   1       3.963   2.781   1.403  0.00  0.00    +0.132 A 
ATOM     10  O   LIG A   1       2.762   2.842   2.074  0.00  0.00    -0.483 OA
ATOM     11  O   LIG A   1       3.958  -0.614  -0.025  0.00  0.00    -0.454 OA
ATOM     12  C   LIG A   1       3.086  -1.649  -0.211  0.00  0.00    +0.139 A 
ATOM     13  C   LIG A   1       3.392  -2.594  -1.185  0.00  0.00    +0.047 A 
ATOM     14  C   LIG A   1       2.568  -3.707  -1.346  0.00  0.00    +0.004 A 
ATOM     15  C   LIG A   1       1.467  -3.892  -0.503  0.00  0.00    +0.001 A 
ATOM     16  C   LIG A   1       1.142  -2.928   0.450  0.00  0.00    +0.015 A 
ATOM     17  C   LIG A   1       1.927  -1.781   0.559  0.00  0.00    +0.064 A 
ATOM     18  C   LIG A   1       1.527  -0.644   1.390  0.00  0.00    +0.200 A 
ATOM     19  O   LIG A   1       0.586  -0.732   2.201  0.00  0.00    -0.287 OA
ENDROOT
BRANCH   1  20
ATOM     20  C   LIG A   1       0.919   2.643   0.474  0.00  0.00    +0.050 C 
BRANCH  20  21
ATOM     21  C   LIG A   1      -0.352   1.971  -0.096  0.00  0.00    +0.004 C 
BRANCH  21  22
ATOM     22  C   LIG A   1      -1.489   1.718   0.912  0.00  0.00    +0.000 C 
BRANCH  22  23
ATOM     23  C   LIG A   1      -2.725   1.069   0.251  0.00  0.00    -0.000 C 
BRANCH  23  24
ATOM     24  C   LIG A   1      -3.846   0.734   1.246  0.00  0.00    -0.000 C 
BRANCH  24  25
ATOM     25  C   LIG A   1      -5.124   0.098   0.660  0.00  0.00    -0.000 C 
BRANCH  25  26
ATOM     26  C   LIG A   1      -5.057  -1.308   0.045  0.00  0.00    -0.000 C 
BRANCH  26  27
ATOM     27  C   LIG A   1      -4.284  -1.470  -1.268  0.00  0.00    -0.000 C 
BRANCH  27  29
ATOM     28  C   LIG A   1      -3.641  -3.161  -3.068  0.00  0.00    +0.004 C 
ATOM     29  C   LIG A   1      -4.416  -2.906  -1.784  0.00  0.00    -0.003 C 
ENDBRANCH  27  29
ENDBRANCH  26  27
ENDBRANCH  25  26
ENDBRANCH  24  25
ENDBRANCH  23  24
ENDBRANCH  22  23
ENDBRANCH  21  22
ENDBRANCH  20  21
ENDBRANCH   1  20
TORSDOF 9
