@<TRIPOS>MOLECULE
NuBBE_1686
 52 52 0 0 0
SMALL
GASTEIGER

@<TRIPOS>ATOM
      1 C           5.0671   -1.7987   -1.7988 C.2     1  LIG1       -0.1023
      2 C           3.7960   -1.8213   -1.3177 C.2     1  LIG1       -0.0874
      3 C           3.1461   -3.0937   -0.9841 C.3     1  LIG1       -0.0168
      4 C           2.4217   -3.1497    0.3316 C.2     1  LIG1       -0.0839
      5 C           2.0450   -2.1639    1.1950 C.2     1  LIG1       -0.0839
      6 C           2.2840   -0.6893    1.0346 C.3     1  LIG1       -0.0165
      7 C           1.9614    0.1434    2.2414 C.2     1  LIG1       -0.0842
      8 C           0.9685    1.0005    2.5555 C.2     1  LIG1       -0.0876
      9 C          -0.2884    1.4625    1.8371 C.3     1  LIG1       -0.0348
     10 C          -0.6142    2.9484    2.1687 C.3     1  LIG1       -0.0496
     11 C          -1.9510    3.5845    1.7057 C.3     1  LIG1       -0.0528
     12 C          -2.1233    3.8353    0.2017 C.3     1  LIG1       -0.0530
     13 C          -2.1887    2.5946   -0.6924 C.3     1  LIG1       -0.0528
     14 C          -3.3640    1.6424   -0.4403 C.3     1  LIG1       -0.0491
     15 C          -3.3760    0.4455   -1.4067 C.3     1  LIG1       -0.0276
     16 C          -2.2682   -0.5532   -1.2207 C.ar    1  LIG1       -0.0439
     17 C          -2.2133   -1.3233   -0.0521 C.ar    1  LIG1       -0.0583
     18 C          -1.2620   -2.3248    0.0763 C.ar    1  LIG1       -0.0581
     19 C          -0.3866   -2.5775   -0.9782 C.ar    1  LIG1       -0.0202
     20 C          -0.4029   -1.7865   -2.1177 C.ar    1  LIG1        0.1171
     21 O           0.4660   -1.9778   -3.1489 O.3     1  LIG1       -0.5068
     22 C          -1.3416   -0.7803   -2.2483 C.ar    1  LIG1       -0.0170
     23 H           5.5943   -0.8583   -2.0077 H       1  LIG1        0.0532
     24 H           5.5938   -2.7336   -2.0298 H       1  LIG1        0.0532
     25 H           3.3270   -0.8640   -1.1899 H       1  LIG1        0.0569
     26 H           3.8695   -3.9183   -0.9899 H       1  LIG1        0.0350
     27 H           2.4627   -3.3164   -1.8059 H       1  LIG1        0.0350
     28 H           2.1080   -4.1635    0.5802 H       1  LIG1        0.0572
     29 H           1.4523   -2.4682    2.0562 H       1  LIG1        0.0572
     30 H           1.7868   -0.2953    0.1441 H       1  LIG1        0.0350
     31 H           3.3714   -0.5781    0.9183 H       1  LIG1        0.0350
     32 H           2.7618    0.0703    2.9798 H       1  LIG1        0.0572
     33 H           1.0914    1.4711    3.5300 H       1  LIG1        0.0569
     34 H          -1.1291    0.8405    2.1662 H       1  LIG1        0.0307
     35 H          -0.1447    1.3163    0.7693 H       1  LIG1        0.0307
     36 H           0.2059    3.5767    1.8020 H       1  LIG1        0.0268
     37 H          -0.6008    3.0537    3.2645 H       1  LIG1        0.0268
     38 H          -1.9925    4.5798    2.1824 H       1  LIG1        0.0265
     39 H          -2.8194    3.0520    2.1095 H       1  LIG1        0.0265
     40 H          -1.2852    4.4598   -0.1356 H       1  LIG1        0.0265
     41 H          -3.0222    4.4479    0.0341 H       1  LIG1        0.0265
     42 H          -1.2521    2.0546   -0.5993 H       1  LIG1        0.0265
     43 H          -2.2184    2.9259   -1.7363 H       1  LIG1        0.0265
     44 H          -4.3055    2.1851   -0.5873 H       1  LIG1        0.0268
     45 H          -3.3604    1.2895    0.5970 H       1  LIG1        0.0268
     46 H          -3.3719    0.7963   -2.4450 H       1  LIG1        0.0313
     47 H          -4.3159   -0.1075   -1.2798 H       1  LIG1        0.0313
     48 H          -2.9359   -1.1678    0.7445 H       1  LIG1        0.0620
     49 H          -1.2110   -2.9162    0.9866 H       1  LIG1        0.0619
     50 H           0.3073   -3.3986   -0.8843 H       1  LIG1        0.0654
     51 H           1.0249   -2.7417   -2.9442 H       1  LIG1        0.2921
     52 H          -1.3678   -0.2090   -3.1717 H       1  LIG1        0.0657
@<TRIPOS>BOND
     1     1     2    2
     2     2     3    1
     3     3     4    1
     4     4     5    2
     5     5     6    1
     6     6     7    1
     7     7     8    2
     8     8     9    1
     9     9    10    1
    10    10    11    1
    11    11    12    1
    12    12    13    1
    13    13    14    1
    14    14    15    1
    15    15    16    1
    16    16    17   ar
    17    17    18   ar
    18    18    19   ar
    19    19    20   ar
    20    20    21    1
    21    20    22   ar
    22    16    22   ar
    23     1    23    1
    24     1    24    1
    25     2    25    1
    26     3    26    1
    27     3    27    1
    28     4    28    1
    29     5    29    1
    30     6    30    1
    31     6    31    1
    32     7    32    1
    33     8    33    1
    34     9    34    1
    35     9    35    1
    36    10    36    1
    37    10    37    1
    38    11    38    1
    39    11    39    1
    40    12    40    1
    41    12    41    1
    42    13    42    1
    43    13    43    1
    44    14    44    1
    45    14    45    1
    46    15    46    1
    47    15    47    1
    48    17    48    1
    49    18    49    1
    50    19    50    1
    51    21    51    1
    52    22    52    1
