REMARK  Name = NuBBE_1824
REMARK  8 active torsions:
REMARK  status: ('A' for Active; 'I' for Inactive)
REMARK    1  A    between atoms: C_5  and  O_6
REMARK    2  A    between atoms: C_7  and  C_8
REMARK    3  A    between atoms: C_8  and  C_9
REMARK    4  A    between atoms: C_10  and  C_11
REMARK    5  A    between atoms: C_10  and  C_12
REMARK    6  A    between atoms: C_13  and  O_14
REMARK    7  A    between atoms: C_18  and  C_19
REMARK    8  A    between atoms: C_18  and  C_20
REMARK                            x       y       z     vdW  Elec       q    Type
REMARK                         _______ _______ _______ _____ _____    ______ ____
ROOT
ATOM      1  O   LIG A   1      -3.152  -1.066  -0.850  0.00  0.00    -0.292 OA
ATOM      2  C   LIG A   1      -2.010  -1.320  -0.486  0.00  0.00    +0.174 C 
ATOM      3  C   LIG A   1      -1.481  -2.724  -0.380  0.00  0.00    +0.132 C 
ATOM      4  C   LIG A   1      -1.065  -0.224  -0.203  0.00  0.00    +0.101 A 
ATOM      5  C   LIG A   1      -1.428   1.126  -0.362  0.00  0.00    +0.138 A 
ATOM      6  C   LIG A   1      -0.503   2.163  -0.122  0.00  0.00    +0.040 A 
ATOM      7  C   LIG A   1       0.790   1.786   0.282  0.00  0.00    +0.127 A 
ATOM      8  C   LIG A   1       1.146   0.446   0.453  0.00  0.00    +0.092 A 
ATOM      9  C   LIG A   1       0.212  -0.559   0.231  0.00  0.00    +0.139 A 
ATOM     10  O   LIG A   1       0.630  -1.838   0.483  0.00  0.00    -0.480 OA
ATOM     11  C   LIG A   1      -0.416  -2.809   0.716  0.00  0.00    +0.140 C 
ATOM     12  C   LIG A   1      -1.000  -2.551   2.127  0.00  0.00    +0.061 C 
ENDROOT
BRANCH  11  13
ATOM     13  C   LIG A   1       0.230  -4.207   0.634  0.00  0.00    -0.004 A 
ATOM     14  C   LIG A   1      -0.294  -5.314   1.329  0.00  0.00    +0.007 A 
ATOM     15  C   LIG A   1       0.299  -6.576   1.234  0.00  0.00    +0.000 A 
ATOM     16  C   LIG A   1       1.417  -6.765   0.429  0.00  0.00    +0.000 A 
ATOM     17  C   LIG A   1       1.940  -5.693  -0.286  0.00  0.00    +0.000 A 
ATOM     18  C   LIG A   1       1.351  -4.429  -0.188  0.00  0.00    +0.007 A 
ENDBRANCH  11  13
BRANCH   5  19
ATOM     19  O   LIG A   1      -2.701   1.475  -0.740  0.00  0.00    -0.505 OA
ATOM     20  H   LIG A   1      -3.224   0.652  -0.884  0.00  0.00    +0.292 HD
ENDBRANCH   5  19
BRANCH   7  21
ATOM     21  O   LIG A   1       1.785   2.681   0.562  0.00  0.00    -0.506 OA
ATOM     22  H   LIG A   1       1.530   3.557   0.233  0.00  0.00    +0.292 HD
ENDBRANCH   7  21
BRANCH   6  23
ATOM     23  C   LIG A   1      -0.932   3.614  -0.240  0.00  0.00    +0.069 C 
BRANCH  23  24
ATOM     24  C   LIG A   1      -0.183   4.387  -1.297  0.00  0.00    -0.023 C 
ATOM     25  C   LIG A   1       0.580   5.489  -1.145  0.00  0.00    -0.079 C 
ATOM     26  C   LIG A   1       0.876   6.181   0.160  0.00  0.00    +0.038 C 
ATOM     27  C   LIG A   1       1.219   6.145  -2.342  0.00  0.00    +0.038 C 
ENDBRANCH  23  24
ENDBRANCH   6  23
TORSDOF 5
