@<TRIPOS>MOLECULE
NuBBE_1632
 46 50 0 0 0
SMALL
GASTEIGER

@<TRIPOS>ATOM
      1 O           2.8133   -1.0622    1.0819 O.3     1  LIG1       -0.3712
      2 C           1.7444   -2.0132    0.8844 C.3     1  LIG1        0.0891
      3 H           2.2215   -3.0007    0.9449 H       1  LIG1        0.0650
      4 C           1.2299   -1.8102   -0.5520 C.3     1  LIG1        0.0205
      5 H           1.6340   -2.6119   -1.1822 H       1  LIG1        0.0356
      6 C           1.7762   -0.4620   -0.9566 C.3     1  LIG1        0.0205
      7 H           1.9920   -0.4071   -2.0302 H       1  LIG1        0.0356
      8 C           0.6547    0.5097   -0.5686 C.3     1  LIG1        0.0891
      9 H           0.8059    0.9328    0.4290 H       1  LIG1        0.0650
     10 O          -0.5570   -0.2744   -0.4967 O.3     1  LIG1       -0.3712
     11 C          -0.2496   -1.6412   -0.7801 C.3     1  LIG1        0.0544
     12 C           0.4829    1.6870   -1.5153 C.ar    1  LIG1       -0.0149
     13 C          -0.7296    1.8988   -2.2020 C.ar    1  LIG1       -0.0107
     14 C          -0.9029    3.0027   -3.0381 C.ar    1  LIG1        0.1616
     15 O          -2.0333    3.3030   -3.7550 O.3     1  LIG1       -0.4914
     16 C          -3.1254    2.3994   -3.6188 C.3     1  LIG1        0.0790
     17 C           0.1495    3.9103   -3.1787 C.ar    1  LIG1        0.1585
     18 O           0.0111    5.0049   -3.9883 O.3     1  LIG1       -0.5033
     19 C           1.3501    3.7374   -2.5046 C.ar    1  LIG1       -0.0162
     20 C           1.5156    2.6286   -1.6725 C.ar    1  LIG1       -0.0524
     21 C           3.0321   -0.3370   -0.1301 C.3     1  LIG1        0.0544
     22 C           0.7591   -1.9242    2.0341 C.ar    1  LIG1       -0.0149
     23 C           0.0218   -3.0614    2.4108 C.ar    1  LIG1       -0.0105
     24 C          -0.8666   -2.9516    3.4628 C.ar    1  LIG1        0.1666
     25 O          -1.6420   -3.9536    3.9567 O.3     1  LIG1       -0.4526
     26 C          -2.3157   -3.2683    5.0345 C.3     1  LIG1        0.2332
     27 O          -1.9645   -1.8739    5.1373 O.3     1  LIG1       -0.4526
     28 C          -1.0497   -1.7670    4.1375 C.ar    1  LIG1        0.1662
     29 C          -0.3508   -0.6333    3.8062 C.ar    1  LIG1       -0.0158
     30 C           0.5673   -0.7196    2.7550 C.ar    1  LIG1       -0.0524
     31 H          -0.4922   -1.8143   -1.8357 H       1  LIG1        0.0564
     32 H          -0.8852   -2.3028   -0.1877 H       1  LIG1        0.0564
     33 H          -1.5369    1.1886   -2.0540 H       1  LIG1        0.0659
     34 H          -3.9299    2.7460   -4.2743 H       1  LIG1        0.0660
     35 H          -3.5076    2.3973   -2.5924 H       1  LIG1        0.0660
     36 H          -2.8485    1.3900   -3.9413 H       1  LIG1        0.0660
     37 H          -0.8947    4.9344   -4.3481 H       1  LIG1        0.2923
     38 H           2.1459    4.4675   -2.6199 H       1  LIG1        0.0655
     39 H           2.4543    2.5225   -1.1349 H       1  LIG1        0.0622
     40 H           3.3021    0.6938    0.1121 H       1  LIG1        0.0564
     41 H           3.8823   -0.8024   -0.6407 H       1  LIG1        0.0564
     42 H           0.1426   -4.0126    1.9029 H       1  LIG1        0.0659
     43 H          -2.0603   -3.7630    5.9789 H       1  LIG1        0.1166
     44 H          -3.3975   -3.3470    4.8781 H       1  LIG1        0.1166
     45 H          -0.4970    0.2955    4.3467 H       1  LIG1        0.0655
     46 H           1.1484    0.1645    2.5051 H       1  LIG1        0.0622
@<TRIPOS>BOND
     1     1     2    1
     2     2     3    1
     3     2     4    1
     4     4     5    1
     5     4     6    1
     6     6     7    1
     7     6     8    1
     8     8     9    1
     9     8    10    1
    10    10    11    1
    11     4    11    1
    12     8    12    1
    13    12    13   ar
    14    13    14   ar
    15    14    15    1
    16    15    16    1
    17    14    17   ar
    18    17    18    1
    19    17    19   ar
    20    19    20   ar
    21    12    20   ar
    22     6    21    1
    23     1    21    1
    24     2    22    1
    25    22    23   ar
    26    23    24   ar
    27    24    25    1
    28    25    26    1
    29    26    27    1
    30    27    28    1
    31    24    28   ar
    32    28    29   ar
    33    29    30   ar
    34    22    30   ar
    35    11    31    1
    36    11    32    1
    37    13    33    1
    38    16    34    1
    39    16    35    1
    40    16    36    1
    41    18    37    1
    42    19    38    1
    43    20    39    1
    44    21    40    1
    45    21    41    1
    46    23    42    1
    47    26    43    1
    48    26    44    1
    49    29    45    1
    50    30    46    1
