REMARK  Name = NuBBE_1846
REMARK  8 active torsions:
REMARK  status: ('A' for Active; 'I' for Inactive)
REMARK    1  A    between atoms: O_1  and  C_2
REMARK    2  A    between atoms: C_3  and  C_4
REMARK    3  A    between atoms: C_4  and  C_5
REMARK    4  A    between atoms: C_6  and  C_7
REMARK    5  A    between atoms: C_9  and  O_10
REMARK    6  A    between atoms: O_10  and  C_11
REMARK    7  A    between atoms: C_12  and  O_13
REMARK    8  A    between atoms: C_19  and  O_20
REMARK                            x       y       z     vdW  Elec       q    Type
REMARK                         _______ _______ _______ _____ _____    ______ ____
ROOT
ATOM      1  C   LIG A   1       1.615  -0.399  -1.476  0.00  0.00    +0.190 C 
ATOM      2  O   LIG A   1       1.441  -0.524  -2.680  0.00  0.00    -0.287 OA
ENDROOT
BRANCH   1   4
ATOM      3  C   LIG A   1       4.066  -0.866  -1.660  0.00  0.00    +0.131 A 
ATOM      4  C   LIG A   1       3.000  -0.318  -0.928  0.00  0.00    +0.063 A 
ATOM      5  C   LIG A   1       3.273   0.313   0.297  0.00  0.00    +0.019 A 
ATOM      6  C   LIG A   1       4.582   0.373   0.788  0.00  0.00    +0.046 A 
ATOM      7  C   LIG A   1       5.622  -0.166   0.038  0.00  0.00    +0.120 A 
ATOM      8  C   LIG A   1       5.374  -0.778  -1.185  0.00  0.00    +0.091 A 
BRANCH   3   9
ATOM      9  O   LIG A   1       3.895  -1.536  -2.843  0.00  0.00    -0.506 OA
ATOM     10  H   LIG A   1       2.952  -1.464  -3.107  0.00  0.00    +0.292 HD
ENDBRANCH   3   9
BRANCH   7  11
ATOM     11  O   LIG A   1       6.912  -0.116   0.476  0.00  0.00    -0.507 OA
ATOM     12  H   LIG A   1       6.939   0.326   1.341  0.00  0.00    +0.292 HD
ENDBRANCH   7  11
ENDBRANCH   1   4
BRANCH   1  13
ATOM     13  C   LIG A   1       0.485  -0.432  -0.507  0.00  0.00    +0.052 C 
ATOM     14  C   LIG A   1      -0.780  -0.216  -0.900  0.00  0.00    +0.012 C 
BRANCH  14  15
ATOM     15  C   LIG A   1      -1.928  -0.313   0.019  0.00  0.00    -0.021 A 
ATOM     16  C   LIG A   1      -3.056   0.498  -0.194  0.00  0.00    +0.057 A 
ATOM     17  C   LIG A   1      -4.164   0.408   0.655  0.00  0.00    +0.162 A 
ATOM     18  C   LIG A   1      -4.150  -0.524   1.696  0.00  0.00    +0.159 A 
ATOM     19  C   LIG A   1      -3.052  -1.340   1.919  0.00  0.00    +0.050 A 
ATOM     20  C   LIG A   1      -1.946  -1.238   1.077  0.00  0.00    +0.012 A 
BRANCH  17  21
ATOM     21  O   LIG A   1      -5.318   1.141   0.539  0.00  0.00    -0.491 OA
ATOM     22  C   LIG A   1      -5.158   2.442  -0.019  0.00  0.00    +0.277 C 
ENDBRANCH  17  21
BRANCH  18  23
ATOM     23  O   LIG A   1      -5.224  -0.647   2.534  0.00  0.00    -0.503 OA
ATOM     24  H   LIG A   1      -5.887  -0.016   2.192  0.00  0.00    +0.292 HD
ENDBRANCH  18  23
ENDBRANCH  14  15
ENDBRANCH   1  13
TORSDOF 7
