REMARK  Name = NuBBE_1169
REMARK  9 active torsions:
REMARK  status: ('A' for Active; 'I' for Inactive)
REMARK    1  A    between atoms: O_1  and  C_2
REMARK    2  A    between atoms: C_4  and  C_7
REMARK    3  A    between atoms: C_8  and  C_9
REMARK    4  A    between atoms: N_10  and  C_11
REMARK    5  A    between atoms: C_11  and  C_12
REMARK    6  A    between atoms: C_12  and  C_13
REMARK    7  A    between atoms: C_16  and  O_19
REMARK    8  A    between atoms: C_21  and  O_22
REMARK    9  A    between atoms: O_22  and  C_23
REMARK                            x       y       z     vdW  Elec       q    Type
REMARK                         _______ _______ _______ _____ _____    ______ ____
ROOT
ATOM      1  C   LIG A   1       1.686   1.836  -0.243  0.00  0.00    +0.237 C 
ATOM      2  N   LIG A   1       2.374   0.661  -0.396  0.00  0.00    -0.311 N 
ATOM      3  O   LIG A   1       2.176   2.956  -0.289  0.00  0.00    -0.271 OA
ATOM      4  H   LIG A   1       1.896  -0.221  -0.243  0.00  0.00    +0.149 HD
ENDROOT
BRANCH   1   6
ATOM      5  C   LIG A   1      -0.504   2.445   0.730  0.00  0.00    +0.013 C 
ATOM      6  C   LIG A   1       0.247   1.595   0.011  0.00  0.00    +0.068 C 
BRANCH   5   9
ATOM      7  C   LIG A   1      -3.917   2.875   2.280  0.00  0.00    +0.159 A 
ATOM      8  C   LIG A   1      -2.604   3.132   1.882  0.00  0.00    +0.057 A 
ATOM      9  C   LIG A   1      -1.918   2.206   1.085  0.00  0.00    -0.021 A 
ATOM     10  C   LIG A   1      -2.606   1.047   0.684  0.00  0.00    +0.012 A 
ATOM     11  C   LIG A   1      -3.929   0.805   1.070  0.00  0.00    +0.050 A 
ATOM     12  C   LIG A   1      -4.586   1.710   1.892  0.00  0.00    +0.161 A 
BRANCH   7  13
ATOM     13  O   LIG A   1      -4.537   3.774   3.105  0.00  0.00    -0.503 OA
ATOM     14  H   LIG A   1      -5.400   3.370   3.319  0.00  0.00    +0.292 HD
ENDBRANCH   7  13
BRANCH  12  15
ATOM     15  O   LIG A   1      -5.867   1.560   2.357  0.00  0.00    -0.491 OA
ATOM     16  C   LIG A   1      -6.294   0.207   2.496  0.00  0.00    +0.277 C 
ENDBRANCH  12  15
ENDBRANCH   5   9
ENDBRANCH   1   6
BRANCH   2  17
ATOM     17  C   LIG A   1       3.809   0.598  -0.599  0.00  0.00    +0.109 C 
BRANCH  17  18
ATOM     18  C   LIG A   1       4.185  -0.140  -1.891  0.00  0.00    +0.054 C 
BRANCH  18  19
ATOM     19  C   LIG A   1       3.682  -1.567  -1.952  0.00  0.00    -0.046 A 
ATOM     20  C   LIG A   1       4.097  -2.526  -1.015  0.00  0.00    +0.007 A 
ATOM     21  C   LIG A   1       3.575  -3.823  -1.046  0.00  0.00    +0.045 A 
ATOM     22  C   LIG A   1       2.653  -4.168  -2.028  0.00  0.00    +0.117 A 
ATOM     23  C   LIG A   1       2.258  -3.243  -2.986  0.00  0.00    +0.045 A 
ATOM     24  C   LIG A   1       2.773  -1.947  -2.951  0.00  0.00    +0.007 A 
BRANCH  22  25
ATOM     25  O   LIG A   1       2.108  -5.416  -2.089  0.00  0.00    -0.507 OA
ATOM     26  H   LIG A   1       2.543  -5.978  -1.427  0.00  0.00    +0.292 HD
ENDBRANCH  22  25
ENDBRANCH  18  19
ENDBRANCH  17  18
ENDBRANCH   2  17
TORSDOF 8
