@<TRIPOS>MOLECULE
NuBBE_417
 71 74 0 0 0
SMALL
GASTEIGER

@<TRIPOS>ATOM
      1 H          -2.1016   -2.5655   -1.1352 H       1  LIG1        0.0358
      2 C          -1.1601   -3.1271   -1.0755 C.3     1  LIG1        0.0050
      3 C          -0.8208   -3.4499    0.3935 C.3     1  LIG1        0.0338
      4 C          -0.1621   -2.2552    1.0770 C.3     1  LIG1        0.2072
      5 H           0.1551   -2.5470    2.0828 H       1  LIG1        0.1059
      6 O           1.0112   -1.8075    0.3812 O.2     1  LIG1       -0.4702
      7 C           0.8950   -1.7264   -0.9801 C.2     1  LIG1        0.0981
      8 C          -0.0801   -2.2836   -1.7125 C.2     1  LIG1        0.0742
      9 C          -0.1369   -2.0157   -3.1602 C.2     1  LIG1        0.3360
     10 O           1.0241   -1.5812   -3.6741 O.3     1  LIG1       -0.4773
     11 O          -1.1156   -2.1832   -3.8713 O.2     1  LIG1       -0.2454
     12 O          -1.1621   -1.2350    1.1984 O.3     1  LIG1       -0.3084
     13 C          -0.6585   -0.0632    1.8228 C.3     1  LIG1        0.2029
     14 H           0.2188    0.2646    1.2523 H       1  LIG1        0.0951
     15 O          -0.1839   -0.2989    3.1481 O.3     1  LIG1       -0.3394
     16 C          -1.1928   -0.4782    4.1512 C.3     1  LIG1        0.1131
     17 H          -0.6362   -0.5452    5.0951 H       1  LIG1        0.0647
     18 C          -2.0627    0.7851    4.2309 C.3     1  LIG1        0.1130
     19 H          -2.8454    0.6486    4.9845 H       1  LIG1        0.0647
     20 C          -2.6982    1.1275    2.8781 C.3     1  LIG1        0.1251
     21 H          -3.1259    2.1353    2.9438 H       1  LIG1        0.0659
     22 O          -3.7891    0.2271    2.6405 O.3     1  LIG1       -0.3853
     23 O          -1.2617    1.8913    4.6711 O.3     1  LIG1       -0.3864
     24 C          -1.9850   -1.7910    4.0128 C.3     1  LIG1        0.0730
     25 O          -2.9349   -1.9409    5.0618 O.3     1  LIG1       -0.3924
     26 C          -1.6901    1.0825    1.7198 C.3     1  LIG1        0.1820
     27 H          -2.2432    0.9405    0.7819 H       1  LIG1        0.0813
     28 O          -0.9158    2.3048    1.6700 O.3     1  LIG1       -0.4504
     29 C          -1.1124    3.0358    0.5475 C.2     1  LIG1        0.3324
     30 C           0.1618    3.6686    0.1787 C.2     1  LIG1        0.0231
     31 C           0.4284    3.9274   -1.1136 C.2     1  LIG1       -0.0477
     32 C           1.6804    4.5478   -1.5745 C.ar    1  LIG1       -0.0211
     33 C           2.1539    4.2740   -2.8698 C.ar    1  LIG1       -0.0092
     34 C           3.3063    4.9026   -3.3522 C.ar    1  LIG1        0.1618
     35 O           3.8616    4.7285   -4.5949 O.3     1  LIG1       -0.4914
     36 C           3.1740    3.8470   -5.4756 C.3     1  LIG1        0.0790
     37 C           3.9804    5.8064   -2.5244 C.ar    1  LIG1        0.1585
     38 C           3.5316    6.0884   -1.2435 C.ar    1  LIG1       -0.0160
     39 C           2.3781    5.4645   -0.7737 C.ar    1  LIG1       -0.0509
     40 O           5.1020    6.4511   -2.9686 O.3     1  LIG1       -0.5033
     41 O          -2.1280    3.0456   -0.1376 O.2     1  LIG1       -0.2456
     42 H          -1.7525   -3.7088    0.9174 H       1  LIG1        0.0370
     43 C          -1.3450   -4.5259   -1.6923 C.3     1  LIG1       -0.0190
     44 C          -0.5740   -5.5173   -0.8081 C.3     1  LIG1        0.0588
     45 H           0.1794   -6.0677   -1.3815 H       1  LIG1        0.0596
     46 C           0.0900   -4.6850    0.2936 C.3     1  LIG1       -0.0087
     47 H           1.0835   -4.3886   -0.0663 H       1  LIG1        0.0328
     48 C           0.2762   -5.3964    1.6285 C.3     1  LIG1       -0.0596
     49 O          -1.4826   -6.4601   -0.2562 O.3     1  LIG1       -0.3915
     50 H           1.7153   -1.1436   -1.3824 H       1  LIG1        0.1029
     51 H           0.8384   -1.4649   -4.6274 H       1  LIG1        0.2954
     52 H          -4.2850    0.5681    1.8718 H       1  LIG1        0.2101
     53 H          -0.4102    1.8380    4.1987 H       1  LIG1        0.2100
     54 H          -2.5128   -1.8806    3.0617 H       1  LIG1        0.0584
     55 H          -1.2989   -2.6444    4.0592 H       1  LIG1        0.0584
     56 H          -3.6769   -1.3413    4.8580 H       1  LIG1        0.2095
     57 H           0.8716    3.8480    0.9750 H       1  LIG1        0.0689
     58 H          -0.2963    3.6720   -1.8864 H       1  LIG1        0.0626
     59 H           1.6093    3.5657   -3.4859 H       1  LIG1        0.0661
     60 H           3.7119    3.8351   -6.4281 H       1  LIG1        0.0660
     61 H           2.1562    4.2002   -5.6730 H       1  LIG1        0.0660
     62 H           3.1691    2.8255   -5.0812 H       1  LIG1        0.0660
     63 H           4.0647    6.7986   -0.6190 H       1  LIG1        0.0655
     64 H           2.0255    5.7197    0.2219 H       1  LIG1        0.0625
     65 H           5.2273    6.1392   -3.8854 H       1  LIG1        0.2923
     66 H          -0.9952   -4.5822   -2.7273 H       1  LIG1        0.0296
     67 H          -2.4139   -4.7759   -1.7036 H       1  LIG1        0.0296
     68 H           0.8440   -6.3227    1.4959 H       1  LIG1        0.0233
     69 H          -0.6819   -5.6432    2.0976 H       1  LIG1        0.0233
     70 H           0.8332   -4.7657    2.3293 H       1  LIG1        0.0233
     71 H          -1.8298   -6.9961   -0.9905 H       1  LIG1        0.2098
@<TRIPOS>BOND
     1     2     3    1
     2     3     4    1
     3     4     6    1
     4     6     7    1
     5     7     8    2
     6     9    10    1
     7     9    11    2
     8    12    13    1
     9    13    14    1
    10    13    15    1
    11    15    16    1
    12    16    18    1
    13    18    19    1
    14    18    20    1
    15    18    23    1
    16    24    25    1
    17    13    26    1
    18    20    26    1
    19    28    29    1
    20    29    30    1
    21    30    31    2
    22    31    32    1
    23    32    33   ar
    24    33    34   ar
    25    34    35    1
    26    35    36    1
    27    34    37   ar
    28    37    38   ar
    29    38    39   ar
    30    32    39   ar
    31    37    40    1
    32    29    41    2
    33     8     2    1
    34     2    43    1
    35    43    44    1
    36    44    46    1
    37     3    46    1
    38     1     2    1
    39     3    42    1
    40     4     5    1
    41     4    12    1
    42     8     9    1
    43    44    45    1
    44    44    49    1
    45    16    24    1
    46    16    17    1
    47    20    22    1
    48    20    21    1
    49    26    28    1
    50    26    27    1
    51    46    48    1
    52    46    47    1
    53     7    50    1
    54    10    51    1
    55    22    52    1
    56    23    53    1
    57    24    54    1
    58    24    55    1
    59    25    56    1
    60    30    57    1
    61    31    58    1
    62    33    59    1
    63    36    60    1
    64    36    61    1
    65    36    62    1
    66    38    63    1
    67    39    64    1
    68    40    65    1
    69    43    66    1
    70    43    67    1
    71    48    68    1
    72    48    69    1
    73    48    70    1
    74    49    71    1
