REMARK  Name = NuBBE_2207
REMARK  15 active torsions:
REMARK  status: ('A' for Active; 'I' for Inactive)
REMARK    1  A    between atoms: C_1  and  C_3
REMARK    2  A    between atoms: C_1  and  C_7
REMARK    3  A    between atoms: C_4  and  C_5
REMARK    4  A    between atoms: C_4  and  C_6
REMARK    5  A    between atoms: C_9  and  C_10
REMARK    6  A    between atoms: C_10  and  O_11
REMARK    7  A    between atoms: C_10  and  C_22
REMARK    8  A    between atoms: O_11  and  C_12
REMARK    9  A    between atoms: C_12  and  C_14
REMARK   10  A    between atoms: C_14  and  C_17
REMARK   11  A    between atoms: C_15  and  C_16
REMARK   12  A    between atoms: C_17  and  O_18
REMARK   13  A    between atoms: O_18  and  C_19
REMARK   14  A    between atoms: C_19  and  C_21
REMARK   15  A    between atoms: C_25  and  O_26
REMARK                            x       y       z     vdW  Elec       q    Type
REMARK                         _______ _______ _______ _____ _____    ______ ____
ROOT
ATOM      1  C   LIG A   1      -0.558   0.341   2.007  0.00  0.00    +0.063 A 
ATOM      2  C   LIG A   1       0.298   1.220   1.310  0.00  0.00    +0.022 A 
ATOM      3  C   LIG A   1       1.652   0.900   1.083  0.00  0.00    -0.007 A 
ATOM      4  C   LIG A   1       2.124  -0.341   1.528  0.00  0.00    +0.011 A 
ATOM      5  C   LIG A   1       1.298  -1.211   2.235  0.00  0.00    +0.046 A 
ATOM      6  C   LIG A   1      -0.028  -0.862   2.494  0.00  0.00    +0.128 A 
ENDROOT
BRANCH   1   7
ATOM      7  C   LIG A   1      -1.984   0.768   2.189  0.00  0.00    +0.190 C 
ATOM      8  O   LIG A   1      -2.251   1.963   2.268  0.00  0.00    -0.287 OA
BRANCH   7   9
ATOM      9  C   LIG A   1      -3.037  -0.296   2.177  0.00  0.00    +0.050 C 
ATOM     10  C   LIG A   1      -4.377  -0.180   2.273  0.00  0.00    -0.072 C 
ATOM     11  C   LIG A   1      -5.166   1.091   2.408  0.00  0.00    +0.039 C 
ATOM     12  C   LIG A   1      -5.217  -1.432   2.215  0.00  0.00    +0.039 C 
ENDBRANCH   7   9
ENDBRANCH   1   7
BRANCH   3  13
ATOM     13  C   LIG A   1       2.627   1.808   0.348  0.00  0.00    +0.204 C 
ATOM     14  C   LIG A   1       2.398   3.296   0.620  0.00  0.00    +0.057 C 
BRANCH  13  15
ATOM     15  O   LIG A   1       2.473   1.541  -1.049  0.00  0.00    -0.454 OA
BRANCH  15  16
ATOM     16  C   LIG A   1       3.275   0.588  -1.607  0.00  0.00    +0.339 C 
ATOM     17  O   LIG A   1       4.294   0.135  -1.133  0.00  0.00    -0.245 OA
BRANCH  16  18
ATOM     18  C   LIG A   1       2.604   0.048  -2.830  0.00  0.00    +0.070 C 
ATOM     19  C   LIG A   1       1.734   0.758  -3.575  0.00  0.00    -0.016 C 
ATOM     20  C   LIG A   1       1.290   2.171  -3.385  0.00  0.00    +0.036 C 
BRANCH  18  21
ATOM     21  C   LIG A   1       2.923  -1.390  -3.173  0.00  0.00    +0.274 C 
BRANCH  21  22
ATOM     22  O   LIG A   1       2.069  -2.286  -2.433  0.00  0.00    -0.460 OA
BRANCH  22  23
ATOM     23  C   LIG A   1       0.821  -2.472  -2.945  0.00  0.00    +0.304 C 
ATOM     24  O   LIG A   1       0.381  -1.962  -3.966  0.00  0.00    -0.251 OA
ATOM     25  C   LIG A   1       0.022  -3.417  -2.105  0.00  0.00    +0.136 C 
ENDBRANCH  22  23
ENDBRANCH  21  22
ENDBRANCH  18  21
ENDBRANCH  16  18
ENDBRANCH  15  16
ENDBRANCH  13  15
ENDBRANCH   3  13
BRANCH   6  26
ATOM     26  O   LIG A   1      -0.775  -1.715   3.259  0.00  0.00    -0.506 OA
ATOM     27  H   LIG A   1      -0.217  -2.449   3.568  0.00  0.00    +0.292 HD
ENDBRANCH   6  26
TORSDOF 10
