REMARK  Name = NuBBE_1128
REMARK  6 active torsions:
REMARK  status: ('A' for Active; 'I' for Inactive)
REMARK    1  A    between atoms: C_1  and  S_2
REMARK    2  A    between atoms: S_2  and  C_3
REMARK    3  A    between atoms: N_16  and  C_17
REMARK    4  A    between atoms: C_17  and  C_18
REMARK    5  A    between atoms: C_18  and  C_19
REMARK    6  A    between atoms: N_25  and  C_26
REMARK                            x       y       z     vdW  Elec       q    Type
REMARK                         _______ _______ _______ _____ _____    ______ ____
ROOT
ATOM      1  C   LIG A   1      -2.036  -0.075  -2.828  0.00  0.00    +0.040 A 
ATOM      2  C   LIG A   1      -2.644   1.003  -3.450  0.00  0.00    +0.018 A 
ATOM      3  C   LIG A   1      -2.295   2.291  -3.066  0.00  0.00    +0.018 A 
ATOM      4  C   LIG A   1      -1.087   0.149  -1.813  0.00  0.00    +0.041 A 
ATOM      5  C   LIG A   1      -0.674   1.446  -1.421  0.00  0.00    +0.049 A 
ATOM      6  C   LIG A   1      -1.322   2.517  -2.069  0.00  0.00    +0.034 A 
ATOM      7  S   LIG A   1      -1.008   4.227  -1.725  0.00  0.00    -0.086 S 
ATOM      8  C   LIG A   1       0.307   4.146  -0.538  0.00  0.00    +0.034 A 
ATOM      9  C   LIG A   1       0.817   5.402  -0.142  0.00  0.00    +0.017 A 
ATOM     10  C   LIG A   1       1.846   5.499   0.785  0.00  0.00    +0.001 A 
ATOM     11  C   LIG A   1       2.356   4.341   1.340  0.00  0.00    +0.002 A 
ATOM     12  C   LIG A   1       1.844   3.092   0.958  0.00  0.00    +0.024 A 
ATOM     13  C   LIG A   1       0.823   2.945  -0.012  0.00  0.00    +0.048 A 
ATOM     14  N   LIG A   1       0.345   1.666  -0.440  0.00  0.00    -0.298 N 
ENDROOT
BRANCH   1  16
ATOM     15  C   LIG A   1      -1.134  -1.949  -4.561  0.00  0.00    +0.127 C 
ATOM     16  S   LIG A   1      -2.439  -1.770  -3.313  0.00  0.00    +0.051 S 
ATOM     17  O   LIG A   1      -3.742  -1.683  -4.055  0.00  0.00    -0.252 OA
ENDBRANCH   1  16
BRANCH  14  18
ATOM     18  C   LIG A   1       1.027   0.467   0.113  0.00  0.00    +0.112 C 
BRANCH  18  19
ATOM     19  C   LIG A   1       0.336  -0.021   1.399  0.00  0.00    +0.038 C 
BRANCH  19  20
ATOM     20  C   LIG A   1       1.035  -1.262   2.003  0.00  0.00    +0.058 C 
ATOM     21  C   LIG A   1       0.438  -1.643   3.375  0.00  0.00    +0.019 C 
ATOM     22  C   LIG A   1      -0.909  -2.352   3.272  0.00  0.00    +0.003 C 
ATOM     23  C   LIG A   1      -0.841  -3.511   2.287  0.00  0.00    +0.015 C 
ATOM     24  C   LIG A   1      -0.265  -3.059   0.946  0.00  0.00    +0.084 C 
ATOM     25  N   LIG A   1       1.042  -2.388   1.044  0.00  0.00    -0.302 NA
ATOM     26  C   LIG A   1       2.112  -3.345   1.339  0.00  0.00    +0.105 C 
ENDBRANCH  19  20
ENDBRANCH  18  19
ENDBRANCH  14  18
TORSDOF 4
