REMARK  Name = NuBBE_431
REMARK  21 active torsions:
REMARK  status: ('A' for Active; 'I' for Inactive)
REMARK    1  A    between atoms: C_1  and  C_2
REMARK    2  A    between atoms: C_6  and  C_53
REMARK    3  A    between atoms: C_9  and  C_52
REMARK    4  A    between atoms: C_10  and  C_51
REMARK    5  A    between atoms: C_15  and  C_16
REMARK    6  A    between atoms: C_15  and  C_46
REMARK    7  A    between atoms: C_16  and  O_17
REMARK    8  A    between atoms: O_17  and  C_18
REMARK    9  A    between atoms: C_18  and  C_19
REMARK   10  A    between atoms: C_21  and  O_42
REMARK   11  A    between atoms: C_23  and  O_38
REMARK   12  A    between atoms: C_26  and  C_37
REMARK   13  A    between atoms: C_34  and  C_35
REMARK   14  A    between atoms: C_34  and  O_36
REMARK   15  A    between atoms: O_38  and  C_39
REMARK   16  A    between atoms: C_39  and  C_40
REMARK   17  A    between atoms: O_42  and  C_43
REMARK   18  A    between atoms: C_43  and  C_44
REMARK   19  A    between atoms: C_46  and  O_47
REMARK   20  A    between atoms: O_47  and  C_48
REMARK   21  A    between atoms: C_48  and  C_49
REMARK                            x       y       z     vdW  Elec       q    Type
REMARK                         _______ _______ _______ _____ _____    ______ ____
ROOT
ATOM      1  C   LIG A   1      -6.631  -2.043   4.710  0.00  0.00    +0.010 C 
ATOM      2  C   LIG A   1      -5.583  -1.001   4.275  0.00  0.00    +0.018 C 
ATOM      3  C   LIG A   1      -6.370   0.142   3.608  0.00  0.00    +0.006 C 
ATOM      4  C   LIG A   1      -5.556   1.031   2.701  0.00  0.00    +0.007 C 
ATOM      5  C   LIG A   1      -4.694   0.223   1.714  0.00  0.00    -0.023 C 
ATOM      6  C   LIG A   1      -4.077   1.262   0.769  0.00  0.00    +0.008 C 
ATOM      7  C   LIG A   1      -3.065   0.612  -0.141  0.00  0.00    +0.012 C 
ATOM      8  C   LIG A   1      -1.921  -0.100   0.616  0.00  0.00    -0.005 C 
ATOM      9  C   LIG A   1      -1.107  -1.031  -0.439  0.00  0.00    -0.019 C 
ATOM     10  C   LIG A   1      -0.881  -0.361  -1.801  0.00  0.00    +0.008 C 
ATOM     11  C   LIG A   1       0.212   0.674  -1.802  0.00  0.00    +0.005 C 
ATOM     12  C   LIG A   1       1.538   0.001  -1.455  0.00  0.00    +0.012 C 
ATOM     13  C   LIG A   1       2.831   0.707  -2.065  0.00  0.00    +0.083 C 
ATOM     14  C   LIG A   1       3.933   0.906  -0.993  0.00  0.00    +0.230 C 
ATOM     15  C   LIG A   1       4.167  -0.372  -0.105  0.00  0.00    +0.218 C 
ATOM     16  C   LIG A   1       2.948  -1.363   0.030  0.00  0.00    +0.055 C 
ATOM     17  C   LIG A   1       1.574  -0.623   0.018  0.00  0.00    -0.021 C 
ATOM     18  C   LIG A   1       0.257  -1.595   0.137  0.00  0.00    +0.006 C 
ATOM     19  C   LIG A   1      -0.073  -2.280   1.495  0.00  0.00    +0.031 C 
ATOM     20  C   LIG A   1      -1.387  -1.895   2.189  0.00  0.00    -0.026 C 
ATOM     21  C   LIG A   1      -2.322  -0.985   1.802  0.00  0.00    -0.061 C 
ATOM     22  C   LIG A   1      -3.619  -0.575   2.590  0.00  0.00    +0.053 C 
ATOM     23  C   LIG A   1      -4.383  -1.647   3.477  0.00  0.00    +0.073 C 
ATOM     24  C   LIG A   1      -3.494  -2.361   4.515  0.00  0.00    +0.042 C 
ATOM     25  C   LIG A   1       1.650   0.314   1.237  0.00  0.00    +0.012 C 
ATOM     26  C   LIG A   1      -2.006  -2.286  -0.822  0.00  0.00    +0.012 C 
ATOM     27  C   LIG A   1      -1.183   1.062   1.333  0.00  0.00    +0.016 C 
ATOM     28  C   LIG A   1      -5.585  -0.683   0.821  0.00  0.00    +0.012 C 
ENDROOT
BRANCH  23  29
ATOM     29  O   LIG A   1      -4.884  -2.690   2.629  0.00  0.00    -0.388 OA
ATOM     30  H   LIG A   1      -4.159  -2.945   2.029  0.00  0.00    +0.210 HD
ENDBRANCH  23  29
BRANCH  13  31
ATOM     31  C   LIG A   1       3.435  -0.244  -3.158  0.00  0.00    +0.246 C 
BRANCH  31  32
ATOM     32  O   LIG A   1       2.515  -0.443  -4.251  0.00  0.00    -0.464 OA
BRANCH  32  33
ATOM     33  C   LIG A   1       3.082  -0.452  -5.493  0.00  0.00    +0.304 C 
ATOM     34  C   LIG A   1       2.064  -0.681  -6.571  0.00  0.00    +0.136 C 
ATOM     35  O   LIG A   1       4.279  -0.328  -5.720  0.00  0.00    -0.251 OA
ENDBRANCH  32  33
ENDBRANCH  31  32
ENDBRANCH  13  31
BRANCH  15  36
ATOM     36  O   LIG A   1       5.315  -1.151  -0.488  0.00  0.00    -0.458 OA
BRANCH  36  37
ATOM     37  C   LIG A   1       6.479  -0.613  -0.005  0.00  0.00    +0.304 C 
ATOM     38  C   LIG A   1       7.149  -1.570   0.938  0.00  0.00    +0.136 C 
ATOM     39  O   LIG A   1       6.820   0.541  -0.154  0.00  0.00    -0.251 OA
ENDBRANCH  36  37
ENDBRANCH  15  36
BRANCH  14  40
ATOM     40  O   LIG A   1       3.588   1.968  -0.054  0.00  0.00    -0.457 OA
BRANCH  40  41
ATOM     41  C   LIG A   1       4.251   3.153  -0.143  0.00  0.00    +0.304 C 
ATOM     42  C   LIG A   1       4.677   3.636   1.208  0.00  0.00    +0.136 C 
ATOM     43  O   LIG A   1       4.488   3.765  -1.172  0.00  0.00    -0.251 OA
ENDBRANCH  40  41
ENDBRANCH  14  40
BRANCH  13  44
ATOM     44  C   LIG A   1       2.487   2.040  -2.810  0.00  0.00    +0.246 C 
BRANCH  44  45
ATOM     45  O   LIG A   1       3.609   2.712  -3.413  0.00  0.00    -0.464 OA
BRANCH  45  46
ATOM     46  C   LIG A   1       3.473   3.009  -4.734  0.00  0.00    +0.304 C 
ATOM     47  C   LIG A   1       4.032   4.359  -5.061  0.00  0.00    +0.136 C 
ATOM     48  O   LIG A   1       2.872   2.328  -5.555  0.00  0.00    -0.251 OA
ENDBRANCH  45  46
ENDBRANCH  44  45
ENDBRANCH  13  44
TORSDOF 11
