REMARK  Name = NuBBE_970
REMARK  7 active torsions:
REMARK  status: ('A' for Active; 'I' for Inactive)
REMARK    1  A    between atoms: C_1  and  C_2
REMARK    2  A    between atoms: C_2  and  O_3
REMARK    3  A    between atoms: C_2  and  C_4
REMARK    4  A    between atoms: C_2  and  C_19
REMARK    5  A    between atoms: C_8  and  C_14
REMARK    6  A    between atoms: C_14  and  O_15
REMARK    7  A    between atoms: C_17  and  O_18
REMARK                            x       y       z     vdW  Elec       q    Type
REMARK                         _______ _______ _______ _____ _____    ______ ____
ROOT
ATOM      1  C   LIG A   1      -0.179  -1.049  -0.947  0.00  0.00    +0.023 C 
ATOM      2  C   LIG A   1      -0.243  -0.528   0.511  0.00  0.00    +0.007 C 
ATOM      3  C   LIG A   1      -1.550   0.197   0.880  0.00  0.00    +0.006 C 
ATOM      4  C   LIG A   1      -1.401   1.296   1.960  0.00  0.00    +0.015 C 
ATOM      5  C   LIG A   1      -0.971   2.670   1.387  0.00  0.00    +0.006 C 
ATOM      6  C   LIG A   1       0.420   2.758   0.749  0.00  0.00    +0.005 C 
ATOM      7  C   LIG A   1       0.415   2.433  -0.757  0.00  0.00    +0.033 C 
ATOM      8  C   LIG A   1       1.684   1.770  -1.265  0.00  0.00    -0.049 C 
ATOM      9  C   LIG A   1       2.883   2.295  -0.970  0.00  0.00    +0.010 C 
ATOM     10  C   LIG A   1       1.246  -0.801  -1.539  0.00  0.00    +0.042 C 
ATOM     11  C   LIG A   1       1.481   0.580  -2.201  0.00  0.00    +0.140 C 
ENDROOT
BRANCH   1  13
ATOM     12  C   LIG A   1      -2.034  -2.811  -0.609  0.00  0.00    +0.041 C 
ATOM     13  C   LIG A   1      -0.597  -2.554  -1.079  0.00  0.00    +0.063 C 
ATOM     14  C   LIG A   1       0.364  -3.520  -0.372  0.00  0.00    +0.041 C 
BRANCH  13  15
ATOM     15  O   LIG A   1      -0.574  -2.877  -2.480  0.00  0.00    -0.389 OA
ATOM     16  H   LIG A   1      -0.806  -3.816  -2.578  0.00  0.00    +0.210 HD
ENDBRANCH  13  15
ENDBRANCH   1  13
BRANCH  11  17
ATOM     17  O   LIG A   1       2.640   0.460  -3.041  0.00  0.00    -0.388 OA
ATOM     18  H   LIG A   1       3.328   0.023  -2.513  0.00  0.00    +0.210 HD
ENDBRANCH  11  17
BRANCH   4  19
ATOM     19  C   LIG A   1      -0.543   0.849   3.156  0.00  0.00    +0.159 C 
BRANCH  19  20
ATOM     20  O   LIG A   1      -1.133  -0.281   3.792  0.00  0.00    -0.395 OA
ATOM     21  H   LIG A   1      -1.900   0.039   4.297  0.00  0.00    +0.209 HD
ENDBRANCH  19  20
ENDBRANCH   4  19
TORSDOF 5
