REMARK  Name = NuBBE_1356
REMARK  14 active torsions:
REMARK  status: ('A' for Active; 'I' for Inactive)
REMARK    1  A    between atoms: C_1  and  C_2
REMARK    2  A    between atoms: C_2  and  C_42
REMARK    3  A    between atoms: C_3  and  O_4
REMARK    4  A    between atoms: O_4  and  C_5
REMARK    5  A    between atoms: C_5  and  C_6
REMARK    6  A    between atoms: C_10  and  C_40
REMARK    7  A    between atoms: C_14  and  C_39
REMARK    8  A    between atoms: C_19  and  C_38
REMARK    9  A    between atoms: C_21  and  O_34
REMARK   10  A    between atoms: C_23  and  C_33
REMARK   11  A    between atoms: C_25  and  C_32
REMARK   12  A    between atoms: C_27  and  C_31
REMARK   13  A    between atoms: O_34  and  C_35
REMARK   14  A    between atoms: C_35  and  C_36
REMARK                            x       y       z     vdW  Elec       q    Type
REMARK                         _______ _______ _______ _____ _____    ______ ____
ROOT
ATOM      1  C   LIG A   1      -3.236  -3.134  -2.653  0.00  0.00    +0.015 C 
ATOM      2  C   LIG A   1      -2.573  -2.418  -1.435  0.00  0.00    +0.005 C 
ATOM      3  C   LIG A   1      -2.724  -3.425  -0.220  0.00  0.00    +0.182 C 
ATOM      4  C   LIG A   1      -1.441  -4.015   0.404  0.00  0.00    +0.046 C 
ATOM      5  C   LIG A   1      -0.112  -3.696  -0.277  0.00  0.00    +0.011 C 
ATOM      6  C   LIG A   1      -0.010  -2.219  -0.738  0.00  0.00    -0.025 C 
ATOM      7  C   LIG A   1      -1.075  -2.087  -1.865  0.00  0.00    +0.004 C 
ATOM      8  C   LIG A   1      -0.933  -0.744  -2.605  0.00  0.00    +0.005 C 
ATOM      9  C   LIG A   1       0.440  -0.577  -3.230  0.00  0.00    +0.008 C 
ATOM     10  C   LIG A   1       1.629  -0.624  -2.237  0.00  0.00    -0.019 C 
ATOM     11  C   LIG A   1       1.457  -1.895  -1.293  0.00  0.00    +0.006 C 
ATOM     12  C   LIG A   1       2.567  -1.867  -0.221  0.00  0.00    +0.031 C 
ATOM     13  C   LIG A   1       2.616  -0.586   0.550  0.00  0.00    -0.026 C 
ATOM     14  C   LIG A   1       2.254   0.625   0.083  0.00  0.00    -0.063 C 
ATOM     15  C   LIG A   1       1.947   0.819  -1.421  0.00  0.00    -0.002 C 
ATOM     16  C   LIG A   1       0.902   1.990  -1.590  0.00  0.00    +0.057 C 
ATOM     17  C   LIG A   1      -0.013   2.331  -0.397  0.00  0.00    +0.184 C 
ATOM     18  C   LIG A   1       0.759   2.547   0.978  0.00  0.00    +0.012 C 
ATOM     19  C   LIG A   1       2.204   1.912   0.953  0.00  0.00    +0.028 C 
ATOM     20  C   LIG A   1       2.870   1.782   2.377  0.00  0.00    -0.003 C 
ATOM     21  C   LIG A   1       1.912   1.203   3.453  0.00  0.00    -0.011 C 
ATOM     22  C   LIG A   1       0.550   1.901   3.482  0.00  0.00    +0.004 C 
ATOM     23  C   LIG A   1      -0.107   1.921   2.107  0.00  0.00    +0.011 C 
ATOM     24  C   LIG A   1       2.520   1.196   4.860  0.00  0.00    +0.008 C 
ATOM     25  C   LIG A   1       3.578   3.075   2.831  0.00  0.00    +0.008 C 
ATOM     26  C   LIG A   1       0.869   4.066   1.298  0.00  0.00    +0.015 C 
ATOM     27  C   LIG A   1       3.261   1.446  -2.013  0.00  0.00    +0.016 C 
ATOM     28  C   LIG A   1       2.839  -1.005  -3.182  0.00  0.00    +0.012 C 
ATOM     29  C   LIG A   1      -0.331  -1.328   0.457  0.00  0.00    +0.012 C 
ATOM     30  C   LIG A   1      -3.413  -1.127  -1.236  0.00  0.00    +0.015 C 
ENDROOT
BRANCH   3  31
ATOM     31  O   LIG A   1      -3.467  -2.833   0.896  0.00  0.00    -0.461 OA
BRANCH  31  32
ATOM     32  C   LIG A   1      -4.623  -3.422   1.301  0.00  0.00    +0.304 C 
ATOM     33  C   LIG A   1      -5.079  -2.885   2.626  0.00  0.00    +0.136 C 
ATOM     34  O   LIG A   1      -5.222  -4.316   0.698  0.00  0.00    -0.251 OA
ENDBRANCH  31  32
ENDBRANCH   3  31
BRANCH  17  35
ATOM     35  O   LIG A   1      -0.836   3.515  -0.668  0.00  0.00    -0.461 OA
BRANCH  35  36
ATOM     36  C   LIG A   1      -1.750   3.483  -1.675  0.00  0.00    +0.304 C 
ATOM     37  C   LIG A   1      -2.701   4.640  -1.573  0.00  0.00    +0.136 C 
ATOM     38  O   LIG A   1      -1.859   2.607  -2.519  0.00  0.00    -0.251 OA
ENDBRANCH  35  36
ENDBRANCH  17  35
TORSDOF 4
