@<TRIPOS>MOLECULE
NuBBE_1874
 42 44 0 0 0
SMALL
GASTEIGER

@<TRIPOS>ATOM
      1 O          -3.5220   -0.7802   -0.0817 O.2     1  LIG1       -0.2830
      2 C          -2.2933   -0.6440   -0.0192 C.ar    1  LIG1        0.2382
      3 C          -1.4845   -1.8596    0.0599 C.ar    1  LIG1        0.1128
      4 C          -2.0760   -3.1151    0.0292 C.ar    1  LIG1        0.1767
      5 C          -1.2936   -4.2631    0.0853 C.ar    1  LIG1        0.2018
      6 O          -1.9782   -5.4494    0.0454 O.3     1  LIG1       -0.5009
      7 C           0.0997   -4.1784    0.1723 C.ar    1  LIG1        0.1685
      8 C           0.6892   -2.9030    0.2101 C.ar    1  LIG1        0.0270
      9 C          -0.1051   -1.7490    0.1561 C.ar    1  LIG1        0.1468
     10 O           0.5216   -0.5352    0.1996 O.2     1  LIG1       -0.4507
     11 C          -0.2444    0.6156    0.0895 C.ar    1  LIG1        0.1809
     12 C           0.5932    1.8217    0.1097 C.ar    1  LIG1        0.0247
     13 C           1.0927    2.3507   -1.0877 C.ar    1  LIG1       -0.0473
     14 C           1.9987    3.4176   -1.0723 C.ar    1  LIG1       -0.0156
     15 C           2.4246    3.9555    0.1421 C.ar    1  LIG1        0.1613
     16 C           1.9119    3.4221    1.3311 C.ar    1  LIG1        0.1591
     17 O           2.3461    3.8866    2.5439 O.3     1  LIG1       -0.5033
     18 C           0.9916    2.3798    1.3275 C.ar    1  LIG1       -0.0057
     19 O           3.3331    4.9714    0.2961 O.3     1  LIG1       -0.4915
     20 C           3.8808    5.5114   -0.9027 C.3     1  LIG1        0.0790
     21 C          -1.5898    0.6671   -0.0299 C.ar    1  LIG1        0.2107
     22 O          -2.2406    1.8879   -0.1479 O.3     1  LIG1       -0.4883
     23 C          -3.6566    1.8710   -0.2996 C.3     1  LIG1        0.0791
     24 O           0.9792   -5.2303    0.2233 O.3     1  LIG1       -0.4912
     25 C           0.3918   -6.5296    0.1613 C.3     1  LIG1        0.0790
     26 O          -3.4337   -3.3247   -0.0609 O.3     1  LIG1       -0.5027
     27 H          -2.9210   -5.1966   -0.0324 H       1  LIG1        0.2924
     28 H           1.7724   -2.8060    0.2772 H       1  LIG1        0.0692
     29 H           0.8017    1.9160   -2.0416 H       1  LIG1        0.0626
     30 H           2.3676    3.7823   -2.0247 H       1  LIG1        0.0655
     31 H           3.0693    4.5085    2.3344 H       1  LIG1        0.2923
     32 H           0.6254    1.9850    2.2708 H       1  LIG1        0.0662
     33 H           4.5576    6.3257   -0.6280 H       1  LIG1        0.0660
     34 H           3.0981    5.9329   -1.5428 H       1  LIG1        0.0660
     35 H           4.4660    4.7567   -1.4391 H       1  LIG1        0.0660
     36 H          -4.0063    2.9067   -0.3315 H       1  LIG1        0.0660
     37 H          -4.1428    1.3976    0.5593 H       1  LIG1        0.0660
     38 H          -3.9446    1.3949   -1.2433 H       1  LIG1        0.0660
     39 H           1.1827   -7.2827    0.1750 H       1  LIG1        0.0660
     40 H          -0.1559   -6.6657   -0.7788 H       1  LIG1        0.0660
     41 H          -0.2393   -6.7116    1.0393 H       1  LIG1        0.0660
     42 H          -3.8671   -2.4407   -0.0742 H       1  LIG1        0.2923
@<TRIPOS>BOND
     1     1     2    2
     2     2     3   ar
     3     3     4   ar
     4     4     5   ar
     5     5     6    1
     6     5     7   ar
     7     7     8   ar
     8     8     9   ar
     9     3     9   ar
    10     9    10   ar
    11    10    11   ar
    12    11    12    1
    13    12    13   ar
    14    13    14   ar
    15    14    15   ar
    16    15    16   ar
    17    16    17    1
    18    16    18   ar
    19    12    18   ar
    20    15    19    1
    21    19    20    1
    22    11    21   ar
    23     2    21   ar
    24    21    22    1
    25    22    23    1
    26     7    24    1
    27    24    25    1
    28     4    26    1
    29     6    27    1
    30     8    28    1
    31    13    29    1
    32    14    30    1
    33    17    31    1
    34    18    32    1
    35    20    33    1
    36    20    34    1
    37    20    35    1
    38    23    36    1
    39    23    37    1
    40    23    38    1
    41    25    39    1
    42    25    40    1
    43    25    41    1
    44    26    42    1
