@<TRIPOS>MOLECULE
NuBBE_1697
 111 116 0 0 0
SMALL
GASTEIGER

@<TRIPOS>ATOM
      1 C          -1.6454   -1.1226    0.3189 C.3     1  LIG1        0.1080
      2 O          -1.9864    0.0556    1.0705 O.3     1  LIG1       -0.4639
      3 C          -3.3060    0.3427    1.2772 C.2     1  LIG1        0.3040
      4 O          -4.2335   -0.4198    1.0538 O.2     1  LIG1       -0.2512
      5 C          -3.5014    1.7624    1.7563 C.3     1  LIG1        0.0332
      6 C          -0.5843   -0.8698   -0.8295 C.3     1  LIG1        0.1207
      7 C           0.8957   -0.3158   -0.3196 C.3     1  LIG1        0.1549
      8 C           2.0466   -1.2064   -0.9265 C.3     1  LIG1        0.1446
      9 O           3.4227   -0.7488   -0.6174 O.3     1  LIG1       -0.4580
     10 C           4.1194    0.1284   -1.4071 C.2     1  LIG1        0.3043
     11 O           3.7373    0.5941   -2.4733 O.2     1  LIG1       -0.2512
     12 C           5.3837    0.6278   -0.7299 C.3     1  LIG1        0.0332
     13 C           1.7236   -2.4991   -0.0930 C.3     1  LIG1        0.0715
     14 C           0.4506   -3.2043   -0.6556 C.3     1  LIG1        0.1496
     15 C          -0.3897   -2.2777   -1.5862 C.3     1  LIG1        0.1553
     16 O          -1.6771   -2.9216   -1.9253 O.3     1  LIG1       -0.4569
     17 C          -1.7548   -3.8787   -2.9098 C.2     1  LIG1        0.3043
     18 O          -0.8094   -4.3476   -3.5350 O.2     1  LIG1       -0.2512
     19 C          -3.1774   -4.3537   -3.1217 C.3     1  LIG1        0.0332
     20 O           0.9510   -4.3093   -1.4432 O.3     1  LIG1       -0.4573
     21 C           1.3787   -5.3965   -0.7396 C.2     1  LIG1        0.3043
     22 O           0.9572   -5.7443    0.3521 O.2     1  LIG1       -0.2512
     23 C           2.5856   -5.9676   -1.4226 C.3     1  LIG1        0.0332
     24 C           1.6144   -1.8996    1.3381 C.3     1  LIG1        0.1114
     25 O           1.0269   -0.5781    1.1070 O.3     1  LIG1       -0.3557
     26 C           3.0682   -1.7529    1.8995 C.3     1  LIG1       -0.0321
     27 C           0.8380   -2.5056    2.5522 C.3     1  LIG1        0.1219
     28 O           1.2348   -1.6233    3.6704 O.3     1  LIG1       -0.4582
     29 C           0.4195   -1.2590    4.6733 C.2     1  LIG1        0.3410
     30 O          -0.6671   -1.7192    4.9441 O.2     1  LIG1       -0.2449
     31 C           1.1550   -0.2257    5.4541 C.ar    1  LIG1        0.0805
     32 C           1.0077    1.1693    5.3426 C.ar    1  LIG1        0.0588
     33 C           0.0630    1.9455    4.4268 C.3     1  LIG1        0.0119
     34 C           0.7879    2.6752    3.2499 C.3     1  LIG1        0.0616
     35 C           0.0247    3.0429    1.9341 C.2     1  LIG1        0.3110
     36 O          -0.0890    4.1915    1.5177 O.2     1  LIG1       -0.2505
     37 O          -0.3116    1.9676    1.1570 O.3     1  LIG1       -0.4542
     38 C          -0.1586    2.0843   -0.3179 C.3     1  LIG1        0.1742
     39 C           1.0906    1.2235   -0.6330 C.3     1  LIG1        0.1367
     40 C           2.2358    1.9125    0.1186 C.3     1  LIG1       -0.0295
     41 O           1.3204    1.2585   -2.0314 O.3     1  LIG1       -0.3820
     42 C          -1.3602    1.6094   -1.1792 C.3     1  LIG1        0.1802
     43 C          -1.1896    0.1911   -1.7981 C.3     1  LIG1        0.1584
     44 O          -2.5137   -0.1863   -2.2389 O.3     1  LIG1       -0.4567
     45 C          -2.5850   -0.6308   -3.5602 C.2     1  LIG1        0.3043
     46 O          -1.7031   -0.9598   -4.2433 O.2     1  LIG1       -0.2512
     47 C          -4.0361   -0.6302   -3.8799 C.3     1  LIG1        0.0332
     48 O          -1.8824    2.5390   -2.2085 O.3     1  LIG1       -0.4502
     49 C          -1.1807    2.9587   -3.2847 C.2     1  LIG1        0.3397
     50 O           0.0361    3.0258   -3.3660 O.2     1  LIG1       -0.2449
     51 C          -2.0861    3.2245   -4.4534 C.ar    1  LIG1        0.0590
     52 C          -3.4218    2.8031   -4.4660 C.ar    1  LIG1       -0.0478
     53 C          -4.1388    2.7471   -5.6687 C.ar    1  LIG1       -0.0610
     54 C          -3.5577    3.1963   -6.8522 C.ar    1  LIG1       -0.0617
     55 C          -2.2758    3.7410   -6.8267 C.ar    1  LIG1       -0.0610
     56 C          -1.5374    3.7432   -5.6361 C.ar    1  LIG1       -0.0478
     57 C           1.4095    4.0023    3.7632 C.3     1  LIG1       -0.0517
     58 C          -1.1453    1.1448    4.0379 C.3     1  LIG1       -0.0562
     59 N           1.7185    2.0098    6.1539 N.ar    1  LIG1       -0.2588
     60 C           2.5726    1.4953    7.0597 C.ar    1  LIG1        0.0279
     61 C           2.7793    0.1430    7.2178 C.ar    1  LIG1       -0.0428
     62 C           2.0621   -0.7268    6.4024 C.ar    1  LIG1       -0.0446
     63 H          -2.5505   -1.5814   -0.0912 H       1  LIG1        0.0706
     64 H          -1.2660   -1.8468    1.0278 H       1  LIG1        0.0706
     65 H          -3.4774    1.8074    2.8393 H       1  LIG1        0.0342
     66 H          -4.4829    2.1290    1.4527 H       1  LIG1        0.0342
     67 H          -2.7676    2.4492    1.3246 H       1  LIG1        0.0342
     68 H           1.9957   -1.3572   -2.0088 H       1  LIG1        0.0769
     69 H           6.1508   -0.1439   -0.6995 H       1  LIG1        0.0342
     70 H           5.1772    1.0062    0.2776 H       1  LIG1        0.0342
     71 H           5.7772    1.4836   -1.2975 H       1  LIG1        0.0342
     72 H           2.5712   -3.1931   -0.1351 H       1  LIG1        0.0404
     73 H          -0.2001   -3.6075    0.1280 H       1  LIG1        0.0777
     74 H           0.1268   -2.1115   -2.5438 H       1  LIG1        0.0781
     75 H          -3.3070   -5.3435   -2.6745 H       1  LIG1        0.0342
     76 H          -3.4100   -4.4161   -4.1926 H       1  LIG1        0.0342
     77 H          -3.8997   -3.6674   -2.6732 H       1  LIG1        0.0342
     78 H           3.2151   -6.4767   -0.6867 H       1  LIG1        0.0342
     79 H           3.1842   -5.1446   -1.8298 H       1  LIG1        0.0342
     80 H           2.2902   -6.6514   -2.2162 H       1  LIG1        0.0342
     81 H           3.8469   -2.0303    1.1866 H       1  LIG1        0.0259
     82 H           3.2489   -2.4614    2.7207 H       1  LIG1        0.0259
     83 H           3.2532   -0.7391    2.2607 H       1  LIG1        0.0259
     84 H           1.1821   -3.5185    2.7891 H       1  LIG1        0.0727
     85 H          -0.2473   -2.5127    2.4800 H       1  LIG1        0.0727
     86 H          -0.3548    2.7391    5.0672 H       1  LIG1        0.0369
     87 H           1.6364    2.0534    2.9543 H       1  LIG1        0.0417
     88 H           0.0243    3.1315   -0.5819 H       1  LIG1        0.0803
     89 H           2.3121    1.5730    1.1480 H       1  LIG1        0.0259
     90 H           2.1118    3.0014    0.1059 H       1  LIG1        0.0259
     91 H           3.2015    1.8079   -0.3343 H       1  LIG1        0.0259
     92 H           1.8553    2.0290   -2.3002 H       1  LIG1        0.2104
     93 H          -2.2374    1.5922   -0.5464 H       1  LIG1        0.0811
     94 H          -0.5598    0.2725   -2.6937 H       1  LIG1        0.0782
     95 H          -4.6040   -1.3750   -3.3054 H       1  LIG1        0.0342
     96 H          -4.1464   -0.8363   -4.9569 H       1  LIG1        0.0342
     97 H          -4.4548    0.3615   -3.6823 H       1  LIG1        0.0342
     98 H          -3.8991    2.4572   -3.5545 H       1  LIG1        0.0626
     99 H          -5.1386    2.3186   -5.6899 H       1  LIG1        0.0618
    100 H          -4.0987    3.1158   -7.7930 H       1  LIG1        0.0618
    101 H          -1.8328    4.1210   -7.7449 H       1  LIG1        0.0618
    102 H          -0.5138    4.1113   -5.6506 H       1  LIG1        0.0626
    103 H           0.6280    4.6959    4.0987 H       1  LIG1        0.0238
    104 H           1.9768    4.5077    2.9731 H       1  LIG1        0.0238
    105 H           2.1029    3.8517    4.5930 H       1  LIG1        0.0238
    106 H          -0.9280    0.3952    3.2775 H       1  LIG1        0.0236
    107 H          -1.8539    1.8631    3.6608 H       1  LIG1        0.0236
    108 H          -1.6185    0.6611    4.8998 H       1  LIG1        0.0236
    109 H           3.0929    2.2274    7.6712 H       1  LIG1        0.0829
    110 H           3.4735   -0.2243    7.9646 H       1  LIG1        0.0633
    111 H           2.2026   -1.7994    6.5126 H       1  LIG1        0.0627
@<TRIPOS>BOND
     1     1     2    1
     2     2     3    1
     3     3     4    2
     4     3     5    1
     5     1     6    1
     6     6     7    1
     7     7     8    1
     8     8     9    1
     9     9    10    1
    10    10    11    2
    11    10    12    1
    12     8    13    1
    13    13    14    1
    14    14    15    1
    15     6    15    1
    16    15    16    1
    17    16    17    1
    18    17    18    2
    19    17    19    1
    20    14    20    1
    21    20    21    1
    22    21    22    2
    23    21    23    1
    24    13    24    1
    25    24    25    1
    26     7    25    1
    27    24    26    1
    28    24    27    1
    29    27    28    1
    30    28    29    1
    31    29    30    2
    32    29    31    1
    33    31    32   ar
    34    32    33    1
    35    33    34    1
    36    34    35    1
    37    35    36    2
    38    35    37    1
    39    37    38    1
    40    38    39    1
    41     7    39    1
    42    39    40    1
    43    39    41    1
    44    38    42    1
    45    42    43    1
    46     6    43    1
    47    43    44    1
    48    44    45    1
    49    45    46    2
    50    45    47    1
    51    42    48    1
    52    48    49    1
    53    49    50    2
    54    49    51    1
    55    51    52   ar
    56    52    53   ar
    57    53    54   ar
    58    54    55   ar
    59    55    56   ar
    60    51    56   ar
    61    34    57    1
    62    33    58    1
    63    32    59   ar
    64    59    60   ar
    65    60    61   ar
    66    61    62   ar
    67    31    62   ar
    68     1    63    1
    69     1    64    1
    70     5    65    1
    71     5    66    1
    72     5    67    1
    73     8    68    1
    74    12    69    1
    75    12    70    1
    76    12    71    1
    77    13    72    1
    78    14    73    1
    79    15    74    1
    80    19    75    1
    81    19    76    1
    82    19    77    1
    83    23    78    1
    84    23    79    1
    85    23    80    1
    86    26    81    1
    87    26    82    1
    88    26    83    1
    89    27    84    1
    90    27    85    1
    91    33    86    1
    92    34    87    1
    93    38    88    1
    94    40    89    1
    95    40    90    1
    96    40    91    1
    97    41    92    1
    98    42    93    1
    99    43    94    1
   100    47    95    1
   101    47    96    1
   102    47    97    1
   103    52    98    1
   104    53    99    1
   105    54   100    1
   106    55   101    1
   107    56   102    1
   108    57   103    1
   109    57   104    1
   110    57   105    1
   111    58   106    1
   112    58   107    1
   113    58   108    1
   114    60   109    1
   115    61   110    1
   116    62   111    1
