@<TRIPOS>MOLECULE
NuBBE_2409
 104 112 0 0 0
SMALL
GASTEIGER

@<TRIPOS>ATOM
      1 C           4.1121    6.8985    0.2217 C.3     1  LIG1       -0.0465
      2 C           2.9706    5.9326    0.3196 C.2     1  LIG1       -0.0864
      3 C           2.9484    4.6345   -0.0574 C.2     1  LIG1       -0.0558
      4 C           4.1479    3.9563   -0.7078 C.3     1  LIG1        0.0203
      5 N           3.7791    2.9622   -1.7194 N.3     1  LIG1       -0.2974
      6 C           4.9299    2.3591   -2.3776 C.3     1  LIG1       -0.0121
      7 C           2.7888    1.9763   -1.2306 C.3     1  LIG1        0.0279
      8 C           3.3351    1.1259   -0.0623 C.3     1  LIG1       -0.0089
      9 C           2.4768    0.3718    0.9260 C.ar    1  LIG1       -0.0170
     10 C           1.3517    0.7570    1.6616 C.ar    1  LIG1        0.0279
     11 N           1.1439   -0.2139    2.6270 N.ar    1  LIG1       -0.3572
     12 H           0.4124   -0.1767    3.3242 H       1  LIG1        0.1656
     13 C           2.1764   -1.1162    2.6517 C.ar    1  LIG1        0.0469
     14 C           2.4835   -2.1195    3.5819 C.ar    1  LIG1       -0.0378
     15 C           3.6591   -2.8528    3.3883 C.ar    1  LIG1       -0.0598
     16 C           4.4749   -2.6160    2.2878 C.ar    1  LIG1       -0.0611
     17 C           4.1454   -1.6168    1.3660 C.ar    1  LIG1       -0.0523
     18 C           2.9835   -0.8315    1.5578 C.ar    1  LIG1        0.0032
     19 C           0.4992    2.0320    1.7224 C.3     1  LIG1        0.0306
     20 H           0.2161    2.1039    2.7873 H       1  LIG1        0.0414
     21 C          -0.8912    1.9601    1.0255 C.ar    1  LIG1        0.0269
     22 C          -1.7847    3.0877    1.0374 C.ar    1  LIG1        0.1259
     23 O          -1.3765    4.2254    1.7064 O.3     1  LIG1       -0.4948
     24 C          -2.2890    5.3308    1.6837 C.3     1  LIG1        0.0788
     25 C          -3.0450    3.0460    0.4218 C.ar    1  LIG1       -0.0190
     26 C          -3.5499    1.8768   -0.1081 C.ar    1  LIG1       -0.0488
     27 C          -2.7685    0.7225   -0.0635 C.ar    1  LIG1        0.0037
     28 C          -3.0967   -0.6294   -0.3646 C.ar    1  LIG1       -0.0168
     29 C          -4.5139   -1.1241   -0.6395 C.3     1  LIG1       -0.0126
     30 C          -5.0655   -2.1971    0.3506 C.3     1  LIG1        0.0033
     31 N          -4.4712   -3.5464    0.2189 N.3     1  LIG1       -0.2971
     32 C          -4.0250   -4.3590    1.7473 C.3     1  LIG1        0.0021
     33 C          -2.1844   -4.4900    1.9708 C.3     1  LIG1       -0.0265
     34 C          -2.5386   -3.2993    1.3767 C.3     1  LIG1       -0.0447
     35 C          -2.7542   -4.5831   -0.0944 C.3     1  LIG1       -0.0240
     36 C          -3.5790   -5.9538   -0.2299 C.3     1  LIG1       -0.0516
     37 C          -3.4061   -6.6313   -1.5927 C.3     1  LIG1       -0.0650
     38 C          -3.2515   -3.4742   -0.7993 C.3     1  LIG1        0.0344
     39 C          -1.6615   -2.8418   -0.6070 C.3     1  LIG1        0.1235
     40 C          -0.8929   -3.0213   -1.9133 C.2     1  LIG1        0.3205
     41 O          -1.3922   -2.9616   -3.0401 O.2     1  LIG1       -0.2497
     42 O           0.4239   -3.2618   -1.6714 O.3     1  LIG1       -0.4672
     43 C           1.1718   -3.6645   -2.8200 C.3     1  LIG1        0.0817
     44 C          -0.8426   -3.8722    0.7939 C.3     1  LIG1       -0.0262
     45 C          -1.8941   -1.3328   -0.3361 C.ar    1  LIG1        0.0388
     46 N          -0.9220   -0.4682    0.1218 N.ar    1  LIG1       -0.3565
     47 H           0.0406   -0.7308    0.2815 H       1  LIG1        0.1656
     48 C          -1.4519    0.7857    0.4085 C.ar    1  LIG1        0.0543
     49 C           1.4520    3.2589    1.5241 C.3     1  LIG1       -0.0332
     50 C           1.6425    3.8203    0.0995 C.3     1  LIG1       -0.0034
     51 C           1.5041    2.7701   -1.0063 C.3     1  LIG1        0.0787
     52 C           0.9523    3.4180   -2.2753 C.2     1  LIG1        0.3120
     53 O           0.1898    4.3955   -2.2984 O.2     1  LIG1       -0.2505
     54 O           1.2154    2.6375   -3.3549 O.3     1  LIG1       -0.4677
     55 C           0.2472    2.7357   -4.3890 C.3     1  LIG1        0.0817
     56 H           4.2270    7.4335    1.1700 H       1  LIG1        0.0272
     57 H           3.9051    7.6359   -0.5602 H       1  LIG1        0.0272
     58 H           5.0725    6.4249    0.0042 H       1  LIG1        0.0272
     59 H           2.0659    6.3619    0.7486 H       1  LIG1        0.0569
     60 H           4.7580    4.7092   -1.2188 H       1  LIG1        0.0473
     61 H           4.7862    3.5295    0.0748 H       1  LIG1        0.0473
     62 H           5.5388    3.1281   -2.8654 H       1  LIG1        0.0391
     63 H           4.6006    1.6811   -3.1741 H       1  LIG1        0.0391
     64 H           5.5711    1.7974   -1.6909 H       1  LIG1        0.0391
     65 H           2.5844    1.2649   -2.0428 H       1  LIG1        0.0474
     66 H           4.0081    1.7129    0.5695 H       1  LIG1        0.0329
     67 H           3.9923    0.3876   -0.5443 H       1  LIG1        0.0329
     68 H           1.8642   -2.2934    4.4558 H       1  LIG1        0.0638
     69 H           3.9497   -3.6067    4.1170 H       1  LIG1        0.0618
     70 H           5.3917   -3.1863    2.1572 H       1  LIG1        0.0618
     71 H           4.8202   -1.4186    0.5383 H       1  LIG1        0.0624
     72 H          -2.4364    5.6954    0.6594 H       1  LIG1        0.0660
     73 H          -1.8662    6.1506    2.2685 H       1  LIG1        0.0660
     74 H          -3.2511    5.0695    2.1451 H       1  LIG1        0.0660
     75 H          -3.7072    3.9028    0.3625 H       1  LIG1        0.0654
     76 H          -4.5477    1.8644   -0.5360 H       1  LIG1        0.0625
     77 H          -4.5858   -1.4712   -1.6774 H       1  LIG1        0.0326
     78 H          -5.2073   -0.2768   -0.5770 H       1  LIG1        0.0326
     79 H          -6.1343   -2.3201    0.1364 H       1  LIG1        0.0430
     80 H          -5.0276   -1.8089    1.3749 H       1  LIG1        0.0430
     81 H          -4.5020   -5.3430    1.7966 H       1  LIG1        0.0429
     82 H          -4.5002   -3.7866    2.5677 H       1  LIG1        0.0429
     83 H          -1.8907   -4.3465    3.0139 H       1  LIG1        0.0314
     84 H          -1.7961   -2.4948    1.5825 H       1  LIG1        0.0271
     85 H          -3.2985   -2.6091    1.7862 H       1  LIG1        0.0271
     86 H          -1.8393   -4.9720   -0.5687 H       1  LIG1        0.0316
     87 H          -4.6647   -5.8267   -0.1480 H       1  LIG1        0.0266
     88 H          -3.2549   -6.6614    0.5428 H       1  LIG1        0.0266
     89 H          -3.7209   -5.9708   -2.4059 H       1  LIG1        0.0230
     90 H          -4.0372   -7.5269   -1.6344 H       1  LIG1        0.0230
     91 H          -2.3730   -6.9424   -1.7701 H       1  LIG1        0.0230
     92 H          -3.5522   -3.6637   -1.8324 H       1  LIG1        0.0480
     93 H           1.4298   -2.7962   -3.4328 H       1  LIG1        0.0661
     94 H           0.6218   -4.4056   -3.4120 H       1  LIG1        0.0661
     95 H           2.0935   -4.1365   -2.4696 H       1  LIG1        0.0661
     96 H          -0.1051   -3.2377    1.3189 H       1  LIG1        0.0283
     97 H          -0.2812   -4.7334    0.3990 H       1  LIG1        0.0283
     98 H           2.4342    3.0240    1.9602 H       1  LIG1        0.0281
     99 H           1.0870    4.0813    2.1550 H       1  LIG1        0.0281
    100 H           0.8164    4.5364   -0.0153 H       1  LIG1        0.0355
    101 H           0.7243    2.0446   -0.7892 H       1  LIG1        0.0435
    102 H          -0.6941    2.3209   -4.0160 H       1  LIG1        0.0661
    103 H           0.5912    2.1194   -5.2217 H       1  LIG1        0.0661
    104 H           0.1134    3.7644   -4.7345 H       1  LIG1        0.0661
@<TRIPOS>BOND
     1     1     2    1
     2     2     3    2
     3     3     4    1
     4     4     5    1
     5     5     6    1
     6     5     7    1
     7     7     8    1
     8     8     9    1
     9     9    10   ar
    10    10    11   ar
    11    11    12    1
    12    11    13   ar
    13    13    14   ar
    14    14    15   ar
    15    15    16   ar
    16    16    17   ar
    17    17    18   ar
    18     9    18   ar
    19    13    18   ar
    20    10    19    1
    21    21    22   ar
    22    22    23    1
    23    23    24    1
    24    22    25   ar
    25    25    26   ar
    26    26    27   ar
    27    27    28   ar
    28    28    29    1
    29    29    30    1
    30    30    31    1
    31    31    32    1
    32    32    33    1
    33    33    34    1
    34    34    35    1
    35    35    36    1
    36    36    37    1
    37    35    38    1
    38    31    38    1
    39    38    39    1
    40    39    40    1
    41    40    41    2
    42    40    42    1
    43    42    43    1
    44    39    44    1
    45    33    44    1
    46    39    45    1
    47    28    45   ar
    48    45    46   ar
    49    46    47    1
    50    46    48   ar
    51    21    48   ar
    52    27    48   ar
    53    19    49    1
    54    49    50    1
    55     3    50    1
    56    50    51    1
    57     7    51    1
    58    51    52    1
    59    52    53    2
    60    52    54    1
    61    54    55    1
    62    19    21    1
    63    19    20    1
    64     1    56    1
    65     1    57    1
    66     1    58    1
    67     2    59    1
    68     4    60    1
    69     4    61    1
    70     6    62    1
    71     6    63    1
    72     6    64    1
    73     7    65    1
    74     8    66    1
    75     8    67    1
    76    14    68    1
    77    15    69    1
    78    16    70    1
    79    17    71    1
    80    24    72    1
    81    24    73    1
    82    24    74    1
    83    25    75    1
    84    26    76    1
    85    29    77    1
    86    29    78    1
    87    30    79    1
    88    30    80    1
    89    32    81    1
    90    32    82    1
    91    33    83    1
    92    34    84    1
    93    34    85    1
    94    35    86    1
    95    36    87    1
    96    36    88    1
    97    37    89    1
    98    37    90    1
    99    37    91    1
   100    38    92    1
   101    43    93    1
   102    43    94    1
   103    43    95    1
   104    44    96    1
   105    44    97    1
   106    49    98    1
   107    49    99    1
   108    50   100    1
   109    51   101    1
   110    55   102    1
   111    55   103    1
   112    55   104    1
