REMARK  Name = NuBBE_1635
REMARK  11 active torsions:
REMARK  status: ('A' for Active; 'I' for Inactive)
REMARK    1  A    between atoms: C_1  and  C_2
REMARK    2  A    between atoms: C_4  and  C_5
REMARK    3  A    between atoms: C_6  and  C_14
REMARK    4  A    between atoms: C_23  and  C_24
REMARK    5  A    between atoms: C_23  and  C_30
REMARK    6  A    between atoms: C_25  and  C_26
REMARK    7  A    between atoms: C_26  and  O_28
REMARK    8  A    between atoms: O_28  and  C_29
REMARK    9  A    between atoms: C_34  and  O_36
REMARK   10  A    between atoms: C_37  and  C_39
REMARK   11  A    between atoms: C_37  and  C_40
REMARK                            x       y       z     vdW  Elec       q    Type
REMARK                         _______ _______ _______ _____ _____    ______ ____
ROOT
ATOM      1  C   LIG A   1       0.228  -0.144  -2.400  0.00  0.00    +0.017 C 
ATOM      2  C   LIG A   1       0.959  -0.312  -1.040  0.00  0.00    +0.037 C 
ATOM      3  C   LIG A   1       1.371  -1.834  -0.882  0.00  0.00    +0.124 C 
ATOM      4  C   LIG A   1       0.478  -2.862  -0.148  0.00  0.00    +0.042 C 
ATOM      5  C   LIG A   1       1.325  -3.866   0.700  0.00  0.00    +0.018 C 
ATOM      6  C   LIG A   1      -0.250  -3.628  -1.304  0.00  0.00    +0.218 C 
ATOM      7  O   LIG A   1       0.716  -4.381  -2.094  0.00  0.00    -0.454 OA
ATOM      8  C   LIG A   1       1.931  -3.852  -2.420  0.00  0.00    +0.340 C 
ATOM      9  O   LIG A   1       2.778  -4.485  -3.030  0.00  0.00    -0.248 OA
ATOM     10  C   LIG A   1       2.151  -2.435  -2.057  0.00  0.00    +0.260 C 
ATOM     11  O   LIG A   1       2.771  -2.144  -0.798  0.00  0.00    -0.352 OA
ATOM     12  C   LIG A   1      -0.445  -2.185   0.883  0.00  0.00    +0.014 C 
ATOM     13  C   LIG A   1      -1.056  -0.885   0.412  0.00  0.00    +0.006 C 
ATOM     14  C   LIG A   1       0.070   0.146   0.165  0.00  0.00    +0.014 C 
ATOM     15  C   LIG A   1      -0.450   1.652   0.128  0.00  0.00    +0.029 C 
ATOM     16  C   LIG A   1      -1.654   1.802  -0.853  0.00  0.00    +0.019 C 
ATOM     17  C   LIG A   1       0.703   2.613  -0.337  0.00  0.00    +0.167 C 
ATOM     18  C   LIG A   1       2.058   2.046  -0.693  0.00  0.00    +0.197 C 
ATOM     19  O   LIG A   1       3.061   2.767  -0.731  0.00  0.00    -0.291 OA
ATOM     20  C   LIG A   1       2.230   0.574  -1.017  0.00  0.00    +0.192 C 
ATOM     21  C   LIG A   1       0.349   4.106  -0.809  0.00  0.00    +0.102 C 
ATOM     22  O   LIG A   1       0.893   3.797   0.467  0.00  0.00    -0.353 OA
ATOM     23  C   LIG A   1       1.290   4.846  -1.724  0.00  0.00    +0.044 C 
ATOM     24  C   LIG A   1      -0.971   4.807  -0.623  0.00  0.00    +0.044 C 
ENDROOT
BRANCH   6  25
ATOM     25  C   LIG A   1      -1.347  -4.554  -0.859  0.00  0.00    +0.031 A 
ATOM     26  C   LIG A   1      -1.244  -5.940  -0.535  0.00  0.00    +0.048 A 
ATOM     27  C   LIG A   1      -2.506  -6.358  -0.186  0.00  0.00    +0.195 A 
ATOM     28  O   LIG A   1      -3.386  -5.332  -0.282  0.00  0.00    -0.471 OA
ATOM     29  C   LIG A   1      -2.686  -4.249  -0.701  0.00  0.00    +0.202 A 
ENDBRANCH   6  25
BRANCH  15  30
ATOM     30  C   LIG A   1      -1.016   1.948   1.536  0.00  0.00    -0.010 C 
ATOM     31  C   LIG A   1      -0.348   2.436   2.597  0.00  0.00    +0.088 C 
BRANCH  31  32
ATOM     32  C   LIG A   1      -1.054   2.757   3.857  0.00  0.00    +0.331 C 
ATOM     33  O   LIG A   1      -2.184   2.397   4.141  0.00  0.00    -0.246 OA
BRANCH  32  34
ATOM     34  O   LIG A   1      -0.235   3.537   4.604  0.00  0.00    -0.465 OA
ATOM     35  C   LIG A   1      -0.804   3.964   5.841  0.00  0.00    +0.280 C 
ENDBRANCH  32  34
ENDBRANCH  31  32
ENDBRANCH  15  30
BRANCH  20  36
ATOM     36  O   LIG A   1       2.918   0.520  -2.275  0.00  0.00    -0.384 OA
ATOM     37  H   LIG A   1       3.705   1.095  -2.172  0.00  0.00    +0.210 HD
ENDBRANCH  20  36
TORSDOF 5
