REMARK  Name = NuBBE_401
REMARK  6 active torsions:
REMARK  status: ('A' for Active; 'I' for Inactive)
REMARK    1  A    between atoms: C_1  and  C_2
REMARK    2  A    between atoms: C_2  and  S_3
REMARK    3  A    between atoms: S_3  and  S_4
REMARK    4  A    between atoms: S_4  and  S_5
REMARK    5  A    between atoms: S_5  and  C_6
REMARK    6  A    between atoms: C_6  and  C_7
REMARK                            x       y       z     vdW  Elec       q    Type
REMARK                         _______ _______ _______ _____ _____    ______ ____
ROOT
ATOM      1  S   LIG A   1      -3.251  -0.213   0.057  0.00  0.00    -0.024 S 
ENDROOT
BRANCH   1   2
ATOM      2  S   LIG A   1      -1.876  -1.000   1.367  0.00  0.00    -0.077 S 
BRANCH   2   3
ATOM      3  C   LIG A   1      -1.107  -2.320   0.377  0.00  0.00    +0.116 C 
BRANCH   3   4
ATOM      4  C   LIG A   1      -0.080  -3.120   1.146  0.00  0.00    -0.037 A 
ATOM      5  C   LIG A   1       1.252  -3.190   0.710  0.00  0.00    +0.004 A 
ATOM      6  C   LIG A   1       2.190  -3.966   1.396  0.00  0.00    +0.000 A 
ATOM      7  C   LIG A   1       1.807  -4.690   2.525  0.00  0.00    +0.000 A 
ATOM      8  C   LIG A   1       0.488  -4.637   2.963  0.00  0.00    +0.000 A 
ATOM      9  C   LIG A   1      -0.451  -3.861   2.280  0.00  0.00    +0.004 A 
ENDBRANCH   3   4
ENDBRANCH   2   3
ENDBRANCH   1   2
BRANCH   1  10
ATOM     10  S   LIG A   1      -2.140   0.822  -1.324  0.00  0.00    -0.077 S 
BRANCH  10  11
ATOM     11  C   LIG A   1      -1.480   2.196  -0.326  0.00  0.00    +0.116 C 
BRANCH  11  12
ATOM     12  C   LIG A   1      -0.591   3.111  -1.132  0.00  0.00    -0.037 A 
ATOM     13  C   LIG A   1      -0.897   4.474  -1.247  0.00  0.00    +0.004 A 
ATOM     14  C   LIG A   1      -0.057   5.329  -1.963  0.00  0.00    +0.000 A 
ATOM     15  C   LIG A   1       1.091   4.831  -2.576  0.00  0.00    +0.000 A 
ATOM     16  C   LIG A   1       1.406   3.478  -2.470  0.00  0.00    +0.000 A 
ATOM     17  C   LIG A   1       0.577   2.625  -1.743  0.00  0.00    +0.004 A 
ENDBRANCH  11  12
ENDBRANCH  10  11
ENDBRANCH   1  10
TORSDOF 6
