@<TRIPOS>MOLECULE
NuBBE_2438
 33 35 0 0 0
SMALL
GASTEIGER

@<TRIPOS>ATOM
      1 O           1.4728   -0.8796    0.2196 O.3     1  LIG1       -0.4778
      2 C           0.3434   -0.1079    0.1845 C.ar    1  LIG1        0.1740
      3 C          -0.8873   -0.7768    0.2479 C.ar    1  LIG1        0.2055
      4 O          -0.8786   -2.1407    0.4000 O.3     1  LIG1       -0.4885
      5 C          -1.4672   -2.8097   -0.7137 C.3     1  LIG1        0.0791
      6 C          -2.0731   -0.0357    0.2342 C.ar    1  LIG1        0.1841
      7 O          -3.3038   -0.7187    0.3458 O.2     1  LIG1       -0.4183
      8 C          -4.5178   -0.0503    0.3244 C.ar    1  LIG1        0.3373
      9 O          -5.5933   -0.6344    0.3919 O.2     1  LIG1       -0.2452
     10 C          -4.4650    1.4160    0.2060 C.ar    1  LIG1        0.0236
     11 C          -3.3120    2.0849    0.1142 C.ar    1  LIG1       -0.0442
     12 C          -2.0538    1.3549    0.1297 C.ar    1  LIG1        0.0221
     13 C          -0.8250    2.0155    0.0518 C.ar    1  LIG1       -0.0402
     14 C           0.3743    1.2883    0.0831 C.ar    1  LIG1        0.0210
     15 C           1.6492    1.9850    0.0194 C.2     1  LIG1       -0.0512
     16 C           2.7646    1.2510    0.0259 C.2     1  LIG1       -0.0409
     17 C           2.7657   -0.2585    0.0952 C.3     1  LIG1        0.1237
     18 C           3.3987   -0.8223   -1.1825 C.3     1  LIG1       -0.0215
     19 C           3.5776   -0.7085    1.3154 C.3     1  LIG1       -0.0215
     20 H          -0.9721   -3.7798   -0.8199 H       1  LIG1        0.0660
     21 H          -1.3393   -2.2619   -1.6547 H       1  LIG1        0.0660
     22 H          -2.5282   -2.9962   -0.5233 H       1  LIG1        0.0660
     23 H          -5.4225    1.9224    0.1977 H       1  LIG1        0.0689
     24 H          -3.2980    3.1661    0.0291 H       1  LIG1        0.0627
     25 H          -0.7961    3.1003   -0.0250 H       1  LIG1        0.0632
     26 H           1.6771    3.0672   -0.0323 H       1  LIG1        0.0623
     27 H           3.7285    1.7510   -0.0250 H       1  LIG1        0.0611
     28 H           2.8076   -0.5484   -2.0648 H       1  LIG1        0.0271
     29 H           3.4219   -1.9181   -1.1562 H       1  LIG1        0.0271
     30 H           4.4222   -0.4596   -1.3286 H       1  LIG1        0.0271
     31 H           3.1167   -0.3513    2.2442 H       1  LIG1        0.0271
     32 H           4.6095   -0.3421    1.2805 H       1  LIG1        0.0271
     33 H           3.6033   -1.8023    1.3855 H       1  LIG1        0.0271
@<TRIPOS>BOND
     1     1     2    1
     2     2     3   ar
     3     3     4    1
     4     4     5    1
     5     3     6   ar
     6     6     7   ar
     7     7     8   ar
     8     8     9    2
     9     8    10   ar
    10    10    11   ar
    11    11    12   ar
    12     6    12   ar
    13    12    13   ar
    14    13    14   ar
    15     2    14   ar
    16    14    15    1
    17    15    16    2
    18    16    17    1
    19     1    17    1
    20    17    18    1
    21    17    19    1
    22     5    20    1
    23     5    21    1
    24     5    22    1
    25    10    23    1
    26    11    24    1
    27    13    25    1
    28    15    26    1
    29    16    27    1
    30    18    28    1
    31    18    29    1
    32    18    30    1
    33    19    31    1
    34    19    32    1
    35    19    33    1
