REMARK  Name = NuBBE_1633
REMARK  12 active torsions:
REMARK  status: ('A' for Active; 'I' for Inactive)
REMARK    1  A    between atoms: C_1  and  C_2
REMARK    2  A    between atoms: C_2  and  C_3
REMARK    3  A    between atoms: C_7  and  C_8
REMARK    4  A    between atoms: C_10  and  O_11
REMARK    5  A    between atoms: O_11  and  C_12
REMARK    6  A    between atoms: C_12  and  C_13
REMARK    7  A    between atoms: C_19  and  C_20
REMARK    8  A    between atoms: C_25  and  C_27
REMARK    9  A    between atoms: C_35  and  C_36
REMARK   10  A    between atoms: C_36  and  C_37
REMARK   11  A    between atoms: C_37  and  O_38
REMARK   12  A    between atoms: O_38  and  C_39
REMARK                            x       y       z     vdW  Elec       q    Type
REMARK                         _______ _______ _______ _____ _____    ______ ____
ROOT
ATOM      1  C   LIG A   1       0.984   0.793  -0.308  0.00  0.00    +0.065 C 
ATOM      2  C   LIG A   1       0.235  -0.545  -0.449  0.00  0.00    +0.185 C 
ATOM      3  C   LIG A   1      -1.164  -0.384  -1.024  0.00  0.00    +0.055 C 
ATOM      4  C   LIG A   1      -1.263   0.361  -2.374  0.00  0.00    +0.014 C 
ATOM      5  C   LIG A   1      -2.438   1.370  -2.233  0.00  0.00    +0.015 C 
ATOM      6  C   LIG A   1       0.023   1.130  -2.734  0.00  0.00    +0.123 C 
ATOM      7  C   LIG A   1       0.404   0.774  -4.142  0.00  0.00    +0.157 C 
ATOM      8  C   LIG A   1      -0.509  -0.238  -4.724  0.00  0.00    +0.043 C 
ATOM      9  C   LIG A   1      -1.583  -0.540  -3.651  0.00  0.00    +0.034 C 
ATOM     10  O   LIG A   1      -0.183   2.038  -3.847  0.00  0.00    -0.359 OA
ATOM     11  C   LIG A   1       1.133   1.359  -1.749  0.00  0.00    -0.035 C 
ATOM     12  C   LIG A   1       2.288   1.971  -2.092  0.00  0.00    +0.011 C 
ENDROOT
BRANCH   1  19
ATOM     13  C   LIG A   1       1.830   0.623   4.020  0.00  0.00    +0.019 C 
ATOM     14  C   LIG A   1       1.313   1.842   3.234  0.00  0.00    +0.031 C 
ATOM     15  C   LIG A   1       0.884   2.946   4.242  0.00  0.00    +0.019 C 
ATOM     16  C   LIG A   1       2.516   2.446   2.501  0.00  0.00    +0.162 C 
ATOM     17  C   LIG A   1       2.227   3.395   1.415  0.00  0.00    +0.043 C 
ATOM     18  C   LIG A   1       1.184   3.145   0.630  0.00  0.00    -0.019 C 
ATOM     19  C   LIG A   1       0.356   1.864   0.710  0.00  0.00    +0.027 C 
ATOM     20  C   LIG A   1       0.088   1.546   2.267  0.00  0.00    +0.020 C 
ATOM     21  O   LIG A   1       3.684   2.275   2.835  0.00  0.00    -0.292 OA
BRANCH  20  22
ATOM     22  C   LIG A   1      -0.694   0.239   2.546  0.00  0.00    +0.125 C 
BRANCH  22  23
ATOM     23  C   LIG A   1      -1.128  -0.155   3.957  0.00  0.00    +0.307 C 
ATOM     24  O   LIG A   1      -1.383   0.602   4.873  0.00  0.00    -0.251 OA
BRANCH  23  25
ATOM     25  O   LIG A   1      -1.163  -1.523   4.006  0.00  0.00    -0.468 OA
ATOM     26  C   LIG A   1      -1.326  -2.128   5.289  0.00  0.00    +0.280 C 
ENDBRANCH  23  25
ENDBRANCH  22  23
ENDBRANCH  20  22
ENDBRANCH   1  19
BRANCH   9  27
ATOM     27  C   LIG A   1      -1.815  -2.012  -3.425  0.00  0.00    -0.006 A 
ATOM     28  C   LIG A   1      -0.935  -3.061  -3.611  0.00  0.00    +0.198 A 
ATOM     29  O   LIG A   1      -1.513  -4.251  -3.318  0.00  0.00    -0.471 OA
ATOM     30  C   LIG A   1      -2.788  -3.986  -2.944  0.00  0.00    +0.195 A 
ATOM     31  C   LIG A   1      -3.030  -2.634  -2.996  0.00  0.00    +0.045 A 
ENDBRANCH   9  27
BRANCH   2  32
ATOM     32  O   LIG A   1       0.988  -1.512  -1.221  0.00  0.00    -0.461 OA
BRANCH  32  33
ATOM     33  C   LIG A   1       1.314  -2.664  -0.558  0.00  0.00    +0.304 C 
ATOM     34  C   LIG A   1       2.002  -3.638  -1.464  0.00  0.00    +0.136 C 
ATOM     35  O   LIG A   1       1.055  -2.910   0.612  0.00  0.00    -0.251 OA
ENDBRANCH  32  33
ENDBRANCH   2  32
TORSDOF 7
