@<TRIPOS>MOLECULE
NuBBE_2110
 47 46 0 0 0
SMALL
GASTEIGER

@<TRIPOS>ATOM
      1 C          -0.1093    5.6512    0.9584 C.3     1  LIG1       -0.0653
      2 C           1.3466    5.5602    0.5261 C.3     1  LIG1       -0.0559
      3 C           2.1189    4.3531    1.0626 C.3     1  LIG1       -0.0533
      4 C           1.5844    2.9422    0.7950 C.3     1  LIG1       -0.0531
      5 C           1.4552    2.5377   -0.6789 C.3     1  LIG1       -0.0531
      6 C           0.9114    1.1005   -0.8022 C.3     1  LIG1       -0.0531
      7 C           0.7544    0.6404   -2.2574 C.3     1  LIG1       -0.0531
      8 C           0.1390   -0.7672   -2.4067 C.3     1  LIG1       -0.0531
      9 C          -1.2893   -0.8673   -1.8596 C.3     1  LIG1       -0.0531
     10 C          -1.9560   -2.2429   -2.0066 C.3     1  LIG1       -0.0531
     11 C          -1.2858   -3.4241   -1.2953 C.3     1  LIG1       -0.0531
     12 C          -1.0922   -3.2196    0.2093 C.3     1  LIG1       -0.0531
     13 C          -0.3624   -4.4013    0.8616 C.3     1  LIG1       -0.0533
     14 C          -0.1850   -4.2296    2.3730 C.3     1  LIG1       -0.0559
     15 C          -1.5028   -4.1467    3.1291 C.3     1  LIG1       -0.0653
     16 H          -0.7658    5.1933    0.2126 H       1  LIG1        0.0230
     17 H          -0.4058    6.7045    1.0470 H       1  LIG1        0.0230
     18 H          -0.2880    5.1745    1.9258 H       1  LIG1        0.0230
     19 H           1.8594    6.4575    0.8976 H       1  LIG1        0.0263
     20 H           1.4098    5.6082   -0.5663 H       1  LIG1        0.0263
     21 H           2.2047    4.4684    2.1508 H       1  LIG1        0.0265
     22 H           3.1470    4.4119    0.6751 H       1  LIG1        0.0265
     23 H           0.6137    2.8191    1.2995 H       1  LIG1        0.0265
     24 H           2.2686    2.2395    1.2815 H       1  LIG1        0.0265
     25 H           2.4411    2.5969   -1.1633 H       1  LIG1        0.0265
     26 H           0.7892    3.2257   -1.1993 H       1  LIG1        0.0265
     27 H          -0.0671    1.0755   -0.3008 H       1  LIG1        0.0265
     28 H           1.5628    0.4041   -0.2696 H       1  LIG1        0.0265
     29 H           1.7454    0.6381   -2.7374 H       1  LIG1        0.0265
     30 H           0.1427    1.3616   -2.8103 H       1  LIG1        0.0265
     31 H           0.7904   -1.4997   -1.9198 H       1  LIG1        0.0265
     32 H           0.1240   -1.0201   -3.4772 H       1  LIG1        0.0265
     33 H          -1.9114   -0.1367   -2.3897 H       1  LIG1        0.0265
     34 H          -1.3169   -0.5812   -0.8038 H       1  LIG1        0.0265
     35 H          -2.0414   -2.4857   -3.0745 H       1  LIG1        0.0265
     36 H          -2.9833   -2.1530   -1.6325 H       1  LIG1        0.0265
     37 H          -0.3342   -3.6648   -1.7746 H       1  LIG1        0.0265
     38 H          -1.9335   -4.3056   -1.4365 H       1  LIG1        0.0265
     39 H          -2.0769   -3.0836    0.6660 H       1  LIG1        0.0265
     40 H          -0.5125   -2.3093    0.3979 H       1  LIG1        0.0265
     41 H           0.6292   -4.5060    0.4065 H       1  LIG1        0.0265
     42 H          -0.9019   -5.3350    0.6619 H       1  LIG1        0.0265
     43 H           0.4096   -3.3311    2.5787 H       1  LIG1        0.0263
     44 H           0.3886   -5.0817    2.7609 H       1  LIG1        0.0263
     45 H          -2.0691   -3.2529    2.8507 H       1  LIG1        0.0230
     46 H          -1.3218   -4.0936    4.2064 H       1  LIG1        0.0230
     47 H          -2.1237   -5.0254    2.9283 H       1  LIG1        0.0230
@<TRIPOS>BOND
     1     1     2    1
     2     2     3    1
     3     3     4    1
     4     4     5    1
     5     5     6    1
     6     6     7    1
     7     7     8    1
     8     8     9    1
     9     9    10    1
    10    10    11    1
    11    11    12    1
    12    12    13    1
    13    13    14    1
    14    14    15    1
    15     1    16    1
    16     1    17    1
    17     1    18    1
    18     2    19    1
    19     2    20    1
    20     3    21    1
    21     3    22    1
    22     4    23    1
    23     4    24    1
    24     5    25    1
    25     5    26    1
    26     6    27    1
    27     6    28    1
    28     7    29    1
    29     7    30    1
    30     8    31    1
    31     8    32    1
    32     9    33    1
    33     9    34    1
    34    10    35    1
    35    10    36    1
    36    11    37    1
    37    11    38    1
    38    12    39    1
    39    12    40    1
    40    13    41    1
    41    13    42    1
    42    14    43    1
    43    14    44    1
    44    15    45    1
    45    15    46    1
    46    15    47    1
