REMARK  Name = NuBBE_1226
REMARK  10 active torsions:
REMARK  status: ('A' for Active; 'I' for Inactive)
REMARK    1  A    between atoms: C_3  and  O_4
REMARK    2  A    between atoms: O_4  and  C_5
REMARK    3  A    between atoms: C_6  and  C_7
REMARK    4  A    between atoms: C_11  and  O_12
REMARK    5  A    between atoms: O_12  and  C_13
REMARK    6  A    between atoms: C_21  and  O_22
REMARK    7  A    between atoms: O_22  and  C_23
REMARK    8  A    between atoms: C_24  and  O_25
REMARK    9  A    between atoms: O_25  and  C_26
REMARK   10  A    between atoms: C_27  and  O_28
REMARK                            x       y       z     vdW  Elec       q    Type
REMARK                         _______ _______ _______ _____ _____    ______ ____
ROOT
ATOM      1  O   LIG A   1      -3.579   0.390   0.709  0.00  0.00    -0.283 OA
ATOM      2  C   LIG A   1      -2.366   0.254   0.539  0.00  0.00    +0.238 A 
ATOM      3  C   LIG A   1      -1.694  -1.074   0.410  0.00  0.00    +0.211 A 
ATOM      4  C   LIG A   1      -0.346  -1.065   0.355  0.00  0.00    +0.181 A 
ATOM      5  O   LIG A   1       0.454   0.060   0.400  0.00  0.00    -0.451 OA
ATOM      6  C   LIG A   1      -1.521   1.457   0.451  0.00  0.00    +0.113 A 
ATOM      7  C   LIG A   1      -0.147   1.289   0.400  0.00  0.00    +0.147 A 
ATOM      8  C   LIG A   1       0.703   2.396   0.353  0.00  0.00    +0.096 A 
ATOM      9  C   LIG A   1       0.185   3.697   0.346  0.00  0.00    +0.169 A 
ATOM     10  C   LIG A   1      -1.214   3.879   0.349  0.00  0.00    +0.204 A 
ATOM     11  C   LIG A   1      -2.058   2.751   0.422  0.00  0.00    +0.177 A 
ENDROOT
BRANCH   4  12
ATOM     12  C   LIG A   1       0.439  -2.299   0.207  0.00  0.00    +0.021 A 
ATOM     13  C   LIG A   1       0.912  -2.989   1.328  0.00  0.00    +0.015 A 
ATOM     14  C   LIG A   1       1.686  -4.142   1.165  0.00  0.00    +0.046 A 
ATOM     15  C   LIG A   1       2.010  -4.605  -0.112  0.00  0.00    +0.120 A 
ATOM     16  C   LIG A   1       1.525  -3.930  -1.232  0.00  0.00    +0.046 A 
ATOM     17  C   LIG A   1       0.746  -2.779  -1.072  0.00  0.00    +0.015 A 
BRANCH  15  18
ATOM     18  O   LIG A   1       2.769  -5.742  -0.149  0.00  0.00    -0.495 OA
ATOM     19  C   LIG A   1       3.613  -5.876  -1.289  0.00  0.00    +0.277 C 
ENDBRANCH  15  18
ENDBRANCH   4  12
BRANCH   3  20
ATOM     20  O   LIG A   1      -2.388  -2.275   0.384  0.00  0.00    -0.488 OA
ATOM     21  C   LIG A   1      -3.677  -2.254  -0.219  0.00  0.00    +0.277 C 
ENDBRANCH   3  20
BRANCH   9  22
ATOM     22  O   LIG A   1       0.973   4.815   0.374  0.00  0.00    -0.491 OA
ATOM     23  C   LIG A   1       2.384   4.658   0.428  0.00  0.00    +0.277 C 
ENDBRANCH   9  22
BRANCH  10  24
ATOM     24  O   LIG A   1      -1.862   5.092   0.363  0.00  0.00    -0.488 OA
ATOM     25  C   LIG A   1      -1.255   6.166  -0.345  0.00  0.00    +0.277 C 
ENDBRANCH  10  24
BRANCH  11  26
ATOM     26  O   LIG A   1      -3.418   2.962   0.448  0.00  0.00    -0.503 OA
ATOM     27  H   LIG A   1      -3.869   2.099   0.582  0.00  0.00    +0.292 HD
ENDBRANCH  11  26
TORSDOF 6
