@<TRIPOS>MOLECULE
NuBBE_2258
 43 45 0 0 0
SMALL
GASTEIGER

@<TRIPOS>ATOM
      1 O          -2.6817    0.5531    0.7149 O.2     1  LIG1       -0.2863
      2 C          -1.4730    0.5965    0.5264 C.ar    1  LIG1        0.2040
      3 C          -0.7379    1.8648    0.3357 C.ar    1  LIG1        0.1068
      4 C          -1.3515    3.1232    0.2125 C.ar    1  LIG1        0.1460
      5 O          -2.7643    3.1905    0.0632 O.3     1  LIG1       -0.4252
      6 C          -3.4914    4.3672   -0.1433 C.2     1  LIG1        0.3092
      7 C          -4.9214    4.0508   -0.4336 C.3     1  LIG1        0.0336
      8 O          -3.0692    5.5159   -0.1151 O.2     1  LIG1       -0.2507
      9 C          -0.5555    4.2727    0.1520 C.ar    1  LIG1       -0.0183
     10 C           0.8320    4.1805    0.1403 C.ar    1  LIG1       -0.0548
     11 C           1.4380    2.9350    0.1859 C.ar    1  LIG1       -0.0184
     12 C           0.6561    1.7825    0.2860 C.ar    1  LIG1        0.1430
     13 O           1.3682    0.6133    0.2990 O.2     1  LIG1       -0.4506
     14 C           0.6981   -0.5761    0.3513 C.ar    1  LIG1        0.1853
     15 C          -0.6840   -0.6526    0.4788 C.ar    1  LIG1        0.0721
     16 C          -1.3318   -1.8914    0.4429 C.ar    1  LIG1       -0.0017
     17 C          -0.5952   -3.0648    0.2395 C.ar    1  LIG1        0.1661
     18 O          -1.1836   -4.2955    0.0738 O.3     1  LIG1       -0.4913
     19 C          -2.5064   -4.2875   -0.4601 C.3     1  LIG1        0.0790
     20 C           0.8108   -3.0136    0.1648 C.ar    1  LIG1        0.2080
     21 O           1.4536   -4.2055   -0.0714 O.3     1  LIG1       -0.4884
     22 C           2.7528   -4.3586    0.4941 C.3     1  LIG1        0.0791
     23 C           1.4398   -1.7579    0.1941 C.ar    1  LIG1        0.2193
     24 O           2.7735   -1.6995   -0.2972 O.3     1  LIG1       -0.4183
     25 C           3.7821   -0.8415    0.1343 C.2     1  LIG1        0.3094
     26 C           4.8238   -0.8140   -0.9427 C.3     1  LIG1        0.0336
     27 O           3.8344   -0.2467    1.2073 O.2     1  LIG1       -0.2507
     28 H          -4.9951    3.4275   -1.3270 H       1  LIG1        0.0342
     29 H          -5.4419    4.9944   -0.6326 H       1  LIG1        0.0342
     30 H          -5.3829    3.5737    0.4316 H       1  LIG1        0.0342
     31 H          -0.9706    5.2715    0.1039 H       1  LIG1        0.0654
     32 H           1.4278    5.0870    0.0754 H       1  LIG1        0.0620
     33 H           2.5217    2.8605    0.1500 H       1  LIG1        0.0654
     34 H          -2.4144   -1.9177    0.5320 H       1  LIG1        0.0664
     35 H          -2.6635   -5.2300   -0.9932 H       1  LIG1        0.0660
     36 H          -2.6707   -3.4796   -1.1832 H       1  LIG1        0.0660
     37 H          -3.2334   -4.2287    0.3555 H       1  LIG1        0.0660
     38 H           2.9205   -5.4264    0.6677 H       1  LIG1        0.0660
     39 H           2.8633   -3.8439    1.4550 H       1  LIG1        0.0660
     40 H           3.5165   -4.0283   -0.2171 H       1  LIG1        0.0660
     41 H           4.3241   -0.7917   -1.9180 H       1  LIG1        0.0342
     42 H           5.4549   -1.7018   -0.8704 H       1  LIG1        0.0342
     43 H           5.4272    0.0925   -0.8629 H       1  LIG1        0.0342
@<TRIPOS>BOND
     1     1     2    2
     2     2     3   ar
     3     3     4   ar
     4     4     5    1
     5     5     6    1
     6     6     7    1
     7     6     8    2
     8     4     9   ar
     9     9    10   ar
    10    10    11   ar
    11    11    12   ar
    12     3    12   ar
    13    12    13   ar
    14    13    14   ar
    15    14    15   ar
    16     2    15   ar
    17    15    16   ar
    18    16    17   ar
    19    17    18    1
    20    18    19    1
    21    17    20   ar
    22    20    21    1
    23    21    22    1
    24    20    23   ar
    25    14    23   ar
    26    23    24    1
    27    24    25    1
    28    25    26    1
    29    25    27    2
    30     7    28    1
    31     7    29    1
    32     7    30    1
    33     9    31    1
    34    10    32    1
    35    11    33    1
    36    16    34    1
    37    19    35    1
    38    19    36    1
    39    19    37    1
    40    22    38    1
    41    22    39    1
    42    22    40    1
    43    26    41    1
    44    26    42    1
    45    26    43    1
