@<TRIPOS>MOLECULE
NuBBE_1804
 47 47 0 0 0
SMALL
GASTEIGER

@<TRIPOS>ATOM
      1 C          -2.6930   -6.3208    0.3750 C.3     1  LIG1       -0.0653
      2 C          -3.2164   -4.9515    0.7741 C.3     1  LIG1       -0.0559
      3 C          -2.6941   -3.8381   -0.1360 C.3     1  LIG1       -0.0533
      4 C          -3.2148   -2.4533    0.2717 C.3     1  LIG1       -0.0531
      5 C          -2.8004   -2.0128    1.6818 C.3     1  LIG1       -0.0531
      6 C          -1.2832   -1.9277    1.8943 C.3     1  LIG1       -0.0531
      7 C          -0.6201   -0.9021    0.9703 C.3     1  LIG1       -0.0531
      8 C           0.8889   -0.8015    1.2035 C.3     1  LIG1       -0.0529
      9 C           1.5908    0.1525    0.2220 C.3     1  LIG1       -0.0497
     10 C           1.1032    1.6068    0.3252 C.3     1  LIG1       -0.0156
     11 C           1.8119    2.5519   -0.6490 C.3     1  LIG1        0.1039
     12 C           1.3296    3.9891   -0.5394 C.3     1  LIG1       -0.0024
     13 C           2.5302    4.7978   -1.0010 C.3     1  LIG1        0.0661
     14 C           2.5501    5.0462   -2.5036 C.3     1  LIG1        0.0158
     15 C           3.7456    5.8760   -2.9085 C.2     1  LIG1        0.1211
     16 O           3.6397    6.9604   -3.4736 O.2     1  LIG1       -0.3010
     17 C           3.6650    3.8880   -0.5978 C.2     1  LIG1        0.3110
     18 O           3.2093    2.6232   -0.3606 O.3     1  LIG1       -0.4611
     19 O           4.8333    4.2154   -0.5474 O.2     1  LIG1       -0.2505
     20 H          -3.1137   -7.0857    1.0361 H       1  LIG1        0.0230
     21 H          -1.6025   -6.3658    0.4604 H       1  LIG1        0.0230
     22 H          -2.9724   -6.5682   -0.6531 H       1  LIG1        0.0230
     23 H          -2.9225   -4.7698    1.8127 H       1  LIG1        0.0263
     24 H          -4.3118   -4.9609    0.7423 H       1  LIG1        0.0263
     25 H          -3.0082   -4.0378   -1.1678 H       1  LIG1        0.0265
     26 H          -1.5981   -3.8416   -0.1458 H       1  LIG1        0.0265
     27 H          -4.3097   -2.4449    0.2078 H       1  LIG1        0.0265
     28 H          -2.8724   -1.7130   -0.4610 H       1  LIG1        0.0265
     29 H          -3.2269   -2.7014    2.4204 H       1  LIG1        0.0265
     30 H          -3.2529   -1.0366    1.8962 H       1  LIG1        0.0265
     31 H          -0.8285   -2.9132    1.7453 H       1  LIG1        0.0265
     32 H          -1.0906   -1.6559    2.9394 H       1  LIG1        0.0265
     33 H          -1.0938    0.0710    1.1370 H       1  LIG1        0.0265
     34 H          -0.7906   -1.1754   -0.0762 H       1  LIG1        0.0265
     35 H           1.3326   -1.7999    1.0945 H       1  LIG1        0.0265
     36 H           1.0856   -0.4808    2.2331 H       1  LIG1        0.0265
     37 H           1.4472   -0.2143   -0.8019 H       1  LIG1        0.0266
     38 H           2.6686    0.1116    0.4224 H       1  LIG1        0.0266
     39 H           1.2649    1.9495    1.3545 H       1  LIG1        0.0301
     40 H           0.0289    1.6542    0.1216 H       1  LIG1        0.0301
     41 H           1.6956    2.1831   -1.6758 H       1  LIG1        0.0734
     42 H           1.1155    4.2440    0.5068 H       1  LIG1        0.0309
     43 H           0.4181    4.1743   -1.1158 H       1  LIG1        0.0309
     44 H           2.5939    5.7356   -0.4396 H       1  LIG1        0.0419
     45 H           1.6472    5.5936   -2.8015 H       1  LIG1        0.0347
     46 H           2.5822    4.1135   -3.0760 H       1  LIG1        0.0347
     47 H           4.7386    5.4351   -2.7173 H       1  LIG1        0.1026
@<TRIPOS>BOND
     1     1     2    1
     2     2     3    1
     3     3     4    1
     4     4     5    1
     5     5     6    1
     6     6     7    1
     7     7     8    1
     8     8     9    1
     9     9    10    1
    10    10    11    1
    11    11    12    1
    12    12    13    1
    13    13    14    1
    14    14    15    1
    15    15    16    2
    16    13    17    1
    17    17    18    1
    18    11    18    1
    19    17    19    2
    20     1    20    1
    21     1    21    1
    22     1    22    1
    23     2    23    1
    24     2    24    1
    25     3    25    1
    26     3    26    1
    27     4    27    1
    28     4    28    1
    29     5    29    1
    30     5    30    1
    31     6    31    1
    32     6    32    1
    33     7    33    1
    34     7    34    1
    35     8    35    1
    36     8    36    1
    37     9    37    1
    38     9    38    1
    39    10    39    1
    40    10    40    1
    41    11    41    1
    42    12    42    1
    43    12    43    1
    44    13    44    1
    45    14    45    1
    46    14    46    1
    47    15    47    1
