REMARK  Name = NuBBE_1833
REMARK  24 active torsions:
REMARK  status: ('A' for Active; 'I' for Inactive)
REMARK    1  A    between atoms: C_1  and  C_2
REMARK    2  A    between atoms: C_4  and  C_6
REMARK    3  A    between atoms: C_7  and  O_8
REMARK    4  A    between atoms: C_11  and  O_12
REMARK    5  A    between atoms: O_12  and  C_13
REMARK    6  A    between atoms: C_13  and  C_14
REMARK    7  A    between atoms: C_17  and  O_18
REMARK    8  A    between atoms: O_18  and  C_19
REMARK    9  A    between atoms: C_21  and  O_23
REMARK   10  A    between atoms: O_23  and  C_24
REMARK   11  A    between atoms: C_24  and  C_25
REMARK   12  A    between atoms: C_27  and  O_29
REMARK   13  A    between atoms: O_29  and  C_30
REMARK   14  A    between atoms: C_30  and  C_31
REMARK   15  A    between atoms: C_33  and  O_35
REMARK   16  A    between atoms: O_35  and  C_36
REMARK   17  A    between atoms: C_36  and  C_37
REMARK   18  A    between atoms: C_39  and  C_41
REMARK   19  A    between atoms: C_41  and  O_42
REMARK   20  A    between atoms: O_42  and  C_43
REMARK   21  A    between atoms: C_43  and  C_44
REMARK   22  A    between atoms: C_48  and  O_49
REMARK   23  A    between atoms: O_49  and  C_50
REMARK   24  A    between atoms: C_50  and  C_51
REMARK                            x       y       z     vdW  Elec       q    Type
REMARK                         _______ _______ _______ _____ _____    ______ ____
ROOT
ATOM      1  C   LIG A   1       0.156   4.225   0.105  0.00  0.00    +0.043 C 
ATOM      2  C   LIG A   1       1.075   3.370  -0.804  0.00  0.00    +0.150 C 
ATOM      3  O   LIG A   1       1.988   4.312  -1.403  0.00  0.00    -0.366 OA
ATOM      4  C   LIG A   1       1.558   4.698  -2.699  0.00  0.00    +0.149 C 
ATOM      5  C   LIG A   1       0.156   5.306  -2.675  0.00  0.00    +0.041 C 
ATOM      6  C   LIG A   1       1.738   3.477  -3.617  0.00  0.00    +0.173 C 
ATOM      7  C   LIG A   1       1.105   2.230  -3.085  0.00  0.00    -0.007 A 
ATOM      8  C   LIG A   1       0.571   2.232  -1.826  0.00  0.00    +0.030 A 
ATOM      9  C   LIG A   1      -0.170   1.037  -1.562  0.00  0.00    +0.149 A 
ATOM     10  C   LIG A   1       0.034  -0.385  -2.153  0.00  0.00    +0.067 A 
ATOM     11  C   LIG A   1      -0.205  -1.875  -1.763  0.00  0.00    +0.139 A 
ATOM     12  C   LIG A   1       0.367  -2.933  -2.498  0.00  0.00    +0.092 A 
ATOM     13  C   LIG A   1       1.149  -2.672  -3.603  0.00  0.00    +0.136 A 
ATOM     14  C   LIG A   1       1.319  -1.359  -4.033  0.00  0.00    +0.055 A 
ATOM     15  C   LIG A   1       0.785  -0.248  -3.340  0.00  0.00    -0.007 A 
ATOM     16  C   LIG A   1       1.157   1.028  -3.833  0.00  0.00    +0.015 A 
ENDROOT
BRANCH   6  17
ATOM     17  O   LIG A   1       3.133   3.177  -3.709  0.00  0.00    -0.385 OA
ATOM     18  H   LIG A   1       3.438   3.084  -2.785  0.00  0.00    +0.210 HD
ENDBRANCH   6  17
BRANCH  11  19
ATOM     19  O   LIG A   1      -0.691  -2.504  -0.564  0.00  0.00    -0.459 OA
BRANCH  19  20
ATOM     20  C   LIG A   1      -1.361  -1.670   0.381  0.00  0.00    +0.353 C 
ATOM     21  C   LIG A   1      -1.957  -2.154   1.797  0.00  0.00    +0.288 C 
ATOM     22  C   LIG A   1      -0.811  -1.975   2.817  0.00  0.00    +0.266 C 
ATOM     23  C   LIG A   1      -0.139  -0.560   2.950  0.00  0.00    +0.253 C 
ATOM     24  C   LIG A   1      -0.412   0.303   1.756  0.00  0.00    +0.204 C 
ATOM     25  O   LIG A   1      -0.508  -0.542   0.604  0.00  0.00    -0.328 OA
BRANCH  22  26
ATOM     26  O   LIG A   1       0.254  -2.899   2.437  0.00  0.00    -0.454 OA
BRANCH  26  27
ATOM     27  C   LIG A   1       0.138  -4.157   2.930  0.00  0.00    +0.304 C 
ATOM     28  C   LIG A   1       1.198  -5.076   2.399  0.00  0.00    +0.136 C 
ATOM     29  O   LIG A   1      -0.755  -4.525   3.681  0.00  0.00    -0.251 OA
ENDBRANCH  26  27
ENDBRANCH  22  26
BRANCH  23  30
ATOM     30  O   LIG A   1      -0.319   0.239   4.160  0.00  0.00    -0.455 OA
BRANCH  30  31
ATOM     31  C   LIG A   1      -1.220  -0.065   5.128  0.00  0.00    +0.304 C 
ATOM     32  C   LIG A   1      -1.655   1.153   5.873  0.00  0.00    +0.136 C 
ATOM     33  O   LIG A   1      -1.731  -1.153   5.354  0.00  0.00    -0.251 OA
ENDBRANCH  30  31
ENDBRANCH  23  30
BRANCH  21  34
ATOM     34  O   LIG A   1      -3.318  -1.450   2.353  0.00  0.00    -0.451 OA
BRANCH  34  35
ATOM     35  C   LIG A   1      -3.563  -0.191   2.896  0.00  0.00    +0.304 C 
ATOM     36  C   LIG A   1      -4.932   0.411   2.643  0.00  0.00    +0.136 C 
ATOM     37  O   LIG A   1      -2.713   0.612   3.268  0.00  0.00    -0.251 OA
ENDBRANCH  34  35
ENDBRANCH  21  34
BRANCH  24  38
ATOM     38  C   LIG A   1       0.564   1.458   1.555  0.00  0.00    +0.267 C 
BRANCH  38  39
ATOM     39  O   LIG A   1       1.886   1.172   1.081  0.00  0.00    -0.462 OA
BRANCH  39  40
ATOM     40  C   LIG A   1       2.089   0.241   0.127  0.00  0.00    +0.304 C 
ATOM     41  C   LIG A   1       3.073   0.626  -0.897  0.00  0.00    +0.136 C 
ATOM     42  O   LIG A   1       1.687  -0.936   0.142  0.00  0.00    -0.251 OA
ENDBRANCH  39  40
ENDBRANCH  38  39
ENDBRANCH  24  38
ENDBRANCH  19  20
ENDBRANCH  11  19
BRANCH  13  43
ATOM     43  O   LIG A   1       1.920  -3.658  -4.248  0.00  0.00    -0.426 OA
BRANCH  43  44
ATOM     44  C   LIG A   1       1.797  -4.963  -3.782  0.00  0.00    +0.309 C 
ATOM     45  C   LIG A   1       3.154  -5.493  -3.453  0.00  0.00    +0.136 C 
ATOM     46  O   LIG A   1       0.756  -5.596  -3.659  0.00  0.00    -0.251 OA
ENDBRANCH  43  44
ENDBRANCH  13  43
BRANCH   9  47
ATOM     47  O   LIG A   1      -1.188   1.357  -0.627  0.00  0.00    -0.425 OA
BRANCH  47  48
ATOM     48  C   LIG A   1      -2.256   0.738  -0.690  0.00  0.00    +0.309 C 
ATOM     49  C   LIG A   1      -3.018   0.403   0.387  0.00  0.00    +0.136 C 
ATOM     50  O   LIG A   1      -2.761   0.501  -1.821  0.00  0.00    -0.251 OA
ENDBRANCH  47  48
ENDBRANCH   9  47
TORSDOF 16
