REMARK  Name = NuBBE_1286
REMARK  3 active torsions:
REMARK  status: ('A' for Active; 'I' for Inactive)
REMARK    1  A    between atoms: C_1  and  C_2
REMARK    2  A    between atoms: C_2  and  C_4
REMARK    3  A    between atoms: N_15  and  C_16
REMARK                            x       y       z     vdW  Elec       q    Type
REMARK                         _______ _______ _______ _____ _____    ______ ____
ROOT
ATOM      1  C   LIG A   1      -3.190  -1.441  -0.655  0.00  0.00    +0.060 C 
ATOM      2  C   LIG A   1      -1.790  -1.913  -0.174  0.00  0.00    +0.123 C 
ATOM      3  O   LIG A   1      -0.636  -1.269  -0.871  0.00  0.00    -0.481 OA
ATOM      4  C   LIG A   1      -1.708  -3.404  -0.539  0.00  0.00    +0.060 C 
ATOM      5  C   LIG A   1      -1.789  -1.747   1.359  0.00  0.00    +0.020 C 
ATOM      6  C   LIG A   1      -0.659  -1.341   1.961  0.00  0.00    +0.016 C 
ATOM      7  C   LIG A   1       0.045  -0.304   1.215  0.00  0.00    +0.082 A 
ATOM      8  C   LIG A   1       0.279  -0.560  -0.082  0.00  0.00    +0.143 A 
ATOM      9  C   LIG A   1       1.413   0.249  -0.599  0.00  0.00    +0.041 A 
ATOM     10  C   LIG A   1       2.648  -0.307  -0.977  0.00  0.00    +0.013 A 
ATOM     11  C   LIG A   1       3.803   0.499  -1.062  0.00  0.00    +0.001 A 
ATOM     12  C   LIG A   1       3.729   1.872  -0.837  0.00  0.00    +0.002 A 
ATOM     13  C   LIG A   1       2.513   2.442  -0.475  0.00  0.00    +0.026 A 
ATOM     14  C   LIG A   1       1.392   1.621  -0.273  0.00  0.00    +0.055 A 
ATOM     15  N   LIG A   1       0.303   2.067   0.519  0.00  0.00    -0.310 N 
ATOM     16  C   LIG A   1      -0.133   3.448   0.507  0.00  0.00    +0.152 C 
ATOM     17  C   LIG A   1      -0.397   1.145   1.292  0.00  0.00    +0.262 A 
ATOM     18  O   LIG A   1      -1.372   1.462   2.002  0.00  0.00    -0.267 OA
ENDROOT
TORSDOF 0
