REMARK  Name = NuBBE_2487
REMARK  4 active torsions:
REMARK  status: ('A' for Active; 'I' for Inactive)
REMARK    1  A    between atoms: C_9  and  O_12
REMARK    2  A    between atoms: O_12  and  C_13
REMARK    3  A    between atoms: C_19  and  O_21
REMARK    4  A    between atoms: O_21  and  C_22
REMARK                            x       y       z     vdW  Elec       q    Type
REMARK                         _______ _______ _______ _____ _____    ______ ____
ROOT
ATOM      1  O   LIG A   1      -3.495  -1.767   0.004  0.00  0.00    -0.244 OA
ATOM      2  C   LIG A   1      -2.276  -1.624   0.004  0.00  0.00    +0.349 A 
ATOM      3  C   LIG A   1      -1.626  -0.334   0.002  0.00  0.00    +0.113 A 
ATOM      4  C   LIG A   1      -0.258  -0.263  -0.000  0.00  0.00    +0.154 A 
ATOM      5  C   LIG A   1       0.641  -1.376   0.004  0.00  0.00    +0.061 A 
ATOM      6  C   LIG A   1       0.028  -2.634   0.007  0.00  0.00    +0.146 A 
ATOM      7  O   LIG A   1      -1.399  -2.747   0.004  0.00  0.00    -0.421 OA
ATOM      8  C   LIG A   1       0.783  -3.801   0.016  0.00  0.00    +0.092 A 
ATOM      9  C   LIG A   1       2.180  -3.708   0.027  0.00  0.00    +0.124 A 
ATOM     10  C   LIG A   1       2.795  -2.448   0.020  0.00  0.00    +0.046 A 
ATOM     11  C   LIG A   1       2.027  -1.280   0.010  0.00  0.00    +0.019 A 
ATOM     12  O   LIG A   1       0.195   1.006  -0.006  0.00  0.00    -0.454 OA
ATOM     13  C   LIG A   1      -0.922   1.792  -0.008  0.00  0.00    +0.140 A 
ATOM     14  C   LIG A   1      -2.078   1.010   0.000  0.00  0.00    +0.035 A 
ATOM     15  C   LIG A   1      -3.320   1.668   0.004  0.00  0.00    +0.016 A 
ATOM     16  C   LIG A   1      -3.332   3.073  -0.009  0.00  0.00    +0.046 A 
ATOM     17  C   LIG A   1      -2.148   3.823  -0.026  0.00  0.00    +0.124 A 
ATOM     18  C   LIG A   1      -0.906   3.185  -0.019  0.00  0.00    +0.092 A 
ENDROOT
BRANCH   9  19
ATOM     19  O   LIG A   1       2.837  -4.909   0.046  0.00  0.00    -0.495 OA
ATOM     20  C   LIG A   1       4.259  -4.857   0.081  0.00  0.00    +0.277 C 
ENDBRANCH   9  19
BRANCH  17  21
ATOM     21  O   LIG A   1      -2.332   5.181  -0.051  0.00  0.00    -0.495 OA
ATOM     22  C   LIG A   1      -1.156   5.983  -0.094  0.00  0.00    +0.277 C 
ENDBRANCH  17  21
TORSDOF 2
