REMARK  Name = NuBBE_1268
REMARK  7 active torsions:
REMARK  status: ('A' for Active; 'I' for Inactive)
REMARK    1  A    between atoms: C_9  and  C_10
REMARK    2  A    between atoms: C_11  and  C_12
REMARK    3  A    between atoms: C_12  and  O_13
REMARK    4  A    between atoms: C_12  and  C_14
REMARK    5  A    between atoms: C_12  and  C_15
REMARK    6  A    between atoms: C_16  and  O_17
REMARK    7  A    between atoms: O_17  and  C_18
REMARK                            x       y       z     vdW  Elec       q    Type
REMARK                         _______ _______ _______ _____ _____    ______ ____
ROOT
ATOM      1  O   LIG A   1      -5.909   1.441   0.610  0.00  0.00    -0.245 OA
ATOM      2  C   LIG A   1      -4.693   1.280   0.716  0.00  0.00    +0.337 A 
ATOM      3  C   LIG A   1      -3.865   2.249   1.449  0.00  0.00    +0.092 A 
ATOM      4  C   LIG A   1      -2.546   2.089   1.615  0.00  0.00    +0.018 A 
ATOM      5  O   LIG A   1      -4.038   0.198   0.150  0.00  0.00    -0.422 OA
ATOM      6  C   LIG A   1      -2.659  -0.001   0.351  0.00  0.00    +0.143 A 
ATOM      7  C   LIG A   1      -1.897   0.904   1.078  0.00  0.00    +0.018 A 
ATOM      8  C   LIG A   1      -0.546   0.620   1.299  0.00  0.00    +0.023 A 
ATOM      9  C   LIG A   1       0.030  -0.561   0.794  0.00  0.00    +0.017 A 
ATOM     10  C   LIG A   1      -0.754  -1.444   0.017  0.00  0.00    +0.131 A 
ATOM     11  C   LIG A   1      -2.109  -1.161  -0.186  0.00  0.00    +0.093 A 
ENDROOT
BRANCH   9  12
ATOM     12  C   LIG A   1       1.416  -0.873   1.183  0.00  0.00    +0.010 C 
ATOM     13  C   LIG A   1       2.579  -0.538   0.596  0.00  0.00    +0.007 C 
BRANCH  13  14
ATOM     14  C   LIG A   1       2.894   0.270  -0.642  0.00  0.00    +0.079 C 
ATOM     15  C   LIG A   1       1.853   1.319  -1.029  0.00  0.00    +0.045 C 
ATOM     16  C   LIG A   1       4.257   0.965  -0.496  0.00  0.00    +0.045 C 
BRANCH  14  17
ATOM     17  O   LIG A   1       3.026  -0.658  -1.720  0.00  0.00    -0.385 OA
ATOM     18  H   LIG A   1       2.311  -1.311  -1.618  0.00  0.00    +0.211 HD
ENDBRANCH  14  17
ENDBRANCH  13  14
ENDBRANCH   9  12
BRANCH  10  19
ATOM     19  O   LIG A   1      -0.145  -2.573  -0.477  0.00  0.00    -0.494 OA
ATOM     20  C   LIG A   1      -0.809  -3.204  -1.572  0.00  0.00    +0.277 C 
ENDBRANCH  10  19
TORSDOF 4
