@<TRIPOS>MOLECULE
NuBBE_1988
 23 23 0 0 0
SMALL
GASTEIGER

@<TRIPOS>ATOM
      1 C          -2.1085    0.4560    0.3598 C.2     1  LIG1       -0.0588
      2 C          -2.9435   -0.4318   -0.2006 C.2     1  LIG1       -0.0866
      3 C          -4.4289   -0.3941   -0.0415 C.3     1  LIG1       -0.0465
      4 C          -0.6455    0.4265    0.2114 C.ar    1  LIG1       -0.0251
      5 C           0.0670    1.6302    0.2328 C.ar    1  LIG1       -0.0511
      6 C           1.4614    1.6330    0.1184 C.ar    1  LIG1       -0.0194
      7 C           2.1689    0.4364   -0.0086 C.ar    1  LIG1        0.1201
      8 C           1.4680   -0.7680   -0.0094 C.ar    1  LIG1       -0.0194
      9 C           0.0721   -0.7715    0.1063 C.ar    1  LIG1       -0.0511
     10 O           3.5247    0.5778   -0.1162 O.3     1  LIG1       -0.4951
     11 C           4.2813   -0.6153   -0.2806 C.3     1  LIG1        0.0788
     12 H          -2.5063    1.2735    0.9582 H       1  LIG1        0.0620
     13 H          -2.5604   -1.2360   -0.8247 H       1  LIG1        0.0569
     14 H          -4.7598    0.4516    0.5692 H       1  LIG1        0.0272
     15 H          -4.7740   -1.3165    0.4356 H       1  LIG1        0.0272
     16 H          -4.9065   -0.3153   -1.0228 H       1  LIG1        0.0272
     17 H          -0.4535    2.5802    0.3288 H       1  LIG1        0.0625
     18 H           1.9995    2.5777    0.1281 H       1  LIG1        0.0654
     19 H           1.9718   -1.7248   -0.0923 H       1  LIG1        0.0654
     20 H          -0.4444   -1.7279    0.1235 H       1  LIG1        0.0625
     21 H           5.3349   -0.3342   -0.3711 H       1  LIG1        0.0660
     22 H           3.9972   -1.1406   -1.1987 H       1  LIG1        0.0660
     23 H           4.1845   -1.2669    0.5941 H       1  LIG1        0.0660
@<TRIPOS>BOND
     1     1     2    2
     2     2     3    1
     3     1     4    1
     4     4     5   ar
     5     5     6   ar
     6     6     7   ar
     7     7     8   ar
     8     8     9   ar
     9     4     9   ar
    10     7    10    1
    11    10    11    1
    12     1    12    1
    13     2    13    1
    14     3    14    1
    15     3    15    1
    16     3    16    1
    17     5    17    1
    18     6    18    1
    19     8    19    1
    20     9    20    1
    21    11    21    1
    22    11    22    1
    23    11    23    1
