REMARK  Name = NuBBE_992
REMARK  9 active torsions:
REMARK  status: ('A' for Active; 'I' for Inactive)
REMARK    1  A    between atoms: C_1  and  C_2
REMARK    2  A    between atoms: C_9  and  O_23
REMARK    3  A    between atoms: C_11  and  O_19
REMARK    4  A    between atoms: O_19  and  C_20
REMARK    5  A    between atoms: C_20  and  C_21
REMARK    6  A    between atoms: O_23  and  C_24
REMARK    7  A    between atoms: C_24  and  C_25
REMARK    8  A    between atoms: C_29  and  C_31
REMARK    9  A    between atoms: C_31  and  C_32
REMARK                            x       y       z     vdW  Elec       q    Type
REMARK                         _______ _______ _______ _____ _____    ______ ____
ROOT
ATOM      1  C   LIG A   1      -2.571   2.165   2.780  0.00  0.00    +0.012 C 
ATOM      2  C   LIG A   1      -1.088   1.725   2.766  0.00  0.00    -0.019 C 
ATOM      3  C   LIG A   1      -0.311   2.588   1.711  0.00  0.00    +0.006 C 
ATOM      4  C   LIG A   1      -0.145   1.828   0.373  0.00  0.00    -0.003 C 
ATOM      5  C   LIG A   1       0.492   2.679  -0.724  0.00  0.00    +0.004 C 
ATOM      6  C   LIG A   1       0.412   1.931  -2.043  0.00  0.00    +0.004 C 
ATOM      7  C   LIG A   1       1.038   0.516  -2.021  0.00  0.00    +0.002 C 
ATOM      8  C   LIG A   1       0.626  -0.149  -3.360  0.00  0.00    +0.055 C 
ATOM      9  C   LIG A   1       0.540  -1.676  -3.346  0.00  0.00    +0.248 C 
ATOM     10  C   LIG A   1      -0.018  -2.215  -1.986  0.00  0.00    +0.253 C 
ATOM     11  C   LIG A   1      -0.598  -1.126  -1.069  0.00  0.00    +0.092 C 
ATOM     12  C   LIG A   1       0.675  -0.341  -0.756  0.00  0.00    +0.006 C 
ATOM     13  C   LIG A   1       0.672   0.525   0.533  0.00  0.00    +0.001 C 
ATOM     14  C   LIG A   1       0.283  -0.226   1.820  0.00  0.00    +0.005 C 
ATOM     15  C   LIG A   1      -1.056   0.227   2.371  0.00  0.00    +0.008 C 
ATOM     16  C   LIG A   1       1.691  -1.505  -0.592  0.00  0.00    +0.172 C 
ATOM     17  O   LIG A   1       1.113  -2.665  -1.200  0.00  0.00    -0.336 OA
ATOM     18  C   LIG A   1       1.023   3.012   2.337  0.00  0.00    +0.079 C 
ATOM     19  C   LIG A   1       0.903   2.633   3.779  0.00  0.00    +0.137 C 
ATOM     20  C   LIG A   1      -0.458   2.084   4.146  0.00  0.00    +0.061 C 
ATOM     21  O   LIG A   1       1.816   2.806   4.580  0.00  0.00    -0.297 OA
ENDROOT
BRANCH  20  22
ATOM     22  C   LIG A   1      -0.327   0.995   5.220  0.00  0.00    +0.008 C 
ATOM     23  C   LIG A   1      -1.636   0.386   5.703  0.00  0.00    +0.004 C 
ENDBRANCH  20  22
BRANCH  10  24
ATOM     24  O   LIG A   1      -0.898  -3.331  -2.166  0.00  0.00    -0.429 OA
BRANCH  24  25
ATOM     25  C   LIG A   1      -2.061  -3.086  -2.825  0.00  0.00    +0.306 C 
ATOM     26  C   LIG A   1      -2.788  -4.373  -3.070  0.00  0.00    +0.136 C 
ATOM     27  O   LIG A   1      -2.454  -1.994  -3.191  0.00  0.00    -0.251 OA
ENDBRANCH  24  25
ENDBRANCH  10  24
BRANCH   9  28
ATOM     28  O   LIG A   1       1.865  -2.203  -3.608  0.00  0.00    -0.455 OA
BRANCH  28  29
ATOM     29  C   LIG A   1       2.255  -2.244  -4.907  0.00  0.00    +0.304 C 
ATOM     30  C   LIG A   1       3.707  -2.585  -4.993  0.00  0.00    +0.136 C 
ATOM     31  O   LIG A   1       1.551  -1.968  -5.872  0.00  0.00    -0.251 OA
ENDBRANCH  28  29
ENDBRANCH   9  28
TORSDOF 5
