REMARK  Name = NuBBE_2375
REMARK  5 active torsions:
REMARK  status: ('A' for Active; 'I' for Inactive)
REMARK    1  A    between atoms: C_1  and  C_22
REMARK    2  A    between atoms: C_1  and  C_23
REMARK    3  A    between atoms: C_12  and  C_13
REMARK    4  A    between atoms: C_13  and  C_14
REMARK    5  A    between atoms: C_13  and  C_15
REMARK                            x       y       z     vdW  Elec       q    Type
REMARK                         _______ _______ _______ _____ _____    ______ ____
ROOT
ATOM      1  C   LIG A   1      -0.064   3.462   0.719  0.00  0.00    -0.028 C 
ATOM      2  C   LIG A   1      -0.211   1.915   0.408  0.00  0.00    +0.021 C 
ATOM      3  C   LIG A   1      -0.249   1.681  -1.107  0.00  0.00    -0.065 C 
ATOM      4  C   LIG A   1      -1.099   2.448  -1.821  0.00  0.00    -0.027 C 
ATOM      5  C   LIG A   1      -1.864   3.555  -1.171  0.00  0.00    +0.028 C 
ATOM      6  C   LIG A   1      -0.950   4.341  -0.232  0.00  0.00    +0.011 C 
ATOM      7  C   LIG A   1       0.590   0.653  -1.823  0.00  0.00    +0.070 C 
ATOM      8  C   LIG A   1       0.438  -0.725  -1.258  0.00  0.00    +0.010 C 
ATOM      9  C   LIG A   1       0.919  -1.058  -0.050  0.00  0.00    -0.040 C 
ATOM     10  C   LIG A   1       0.796  -2.394   0.491  0.00  0.00    +0.011 C 
ATOM     11  C   LIG A   1       0.167  -3.408  -0.127  0.00  0.00    +0.006 C 
ATOM     12  C   LIG A   1      -0.449  -3.138  -1.459  0.00  0.00    +0.229 C 
ATOM     13  O   LIG A   1      -1.096  -3.986  -2.059  0.00  0.00    -0.283 OA
ATOM     14  C   LIG A   1      -0.247  -1.757  -2.078  0.00  0.00    +0.229 C 
ATOM     15  O   LIG A   1      -0.633  -1.529  -3.216  0.00  0.00    -0.283 OA
ATOM     16  C   LIG A   1       1.608  -0.015   0.792  0.00  0.00    +0.036 C 
ATOM     17  C   LIG A   1       0.631   1.008   1.365  0.00  0.00    +0.013 C 
ATOM     18  C   LIG A   1      -0.498   3.768   2.171  0.00  0.00    +0.011 C 
ATOM     19  C   LIG A   1       1.405   3.914   0.547  0.00  0.00    +0.011 C 
ENDROOT
BRANCH  11  20
ATOM     20  C   LIG A   1       0.072  -4.793   0.482  0.00  0.00    +0.017 C 
ATOM     21  C   LIG A   1      -1.368  -5.191   0.813  0.00  0.00    +0.012 C 
ATOM     22  C   LIG A   1       0.761  -5.858  -0.375  0.00  0.00    +0.012 C 
ENDBRANCH  11  20
TORSDOF 1
