@<TRIPOS>MOLECULE
NuBBE_1202
 12 11 0 0 0
SMALL
GASTEIGER

@<TRIPOS>ATOM
      1 C          -1.5252   -0.1630    0.0956 C.2     1  LIG1       -0.0890
      2 C          -0.1819   -0.1566    0.0646 C.2     1  LIG1        0.0263
      3 C           0.6429   -1.3266    0.5061 C.3     1  LIG1       -0.0335
      4 C           0.5874    1.0172   -0.4122 C.2     1  LIG1        0.3319
      5 O          -0.1826    2.0495   -0.7944 O.3     1  LIG1       -0.4774
      6 O           1.8025    1.0860   -0.4695 O.2     1  LIG1       -0.2455
      7 H          -2.0768   -1.0290    0.4470 H       1  LIG1        0.0540
      8 H          -2.1137    0.6909   -0.2271 H       1  LIG1        0.0540
      9 H           0.0200   -2.1595    0.8494 H       1  LIG1        0.0280
     10 H           1.3004   -1.0421    1.3343 H       1  LIG1        0.0280
     11 H           1.2610   -1.6941   -0.3198 H       1  LIG1        0.0280
     12 H           0.4661    2.7273   -1.0741 H       1  LIG1        0.2954
@<TRIPOS>BOND
     1     1     2    2
     2     2     3    1
     3     2     4    1
     4     4     5    1
     5     4     6    2
     6     1     7    1
     7     1     8    1
     8     3     9    1
     9     3    10    1
    10     3    11    1
    11     5    12    1
