@<TRIPOS>MOLECULE
NuBBE_686
 58 61 0 0 0
SMALL
GASTEIGER

@<TRIPOS>ATOM
      1 CL         -2.4420   -2.8462    3.0128 Cl      1  LIG1       -0.0792
      2 C          -2.1705   -1.6257    1.8168 C.2     1  LIG1        0.0938
      3 C          -3.3867   -0.8113    1.4348 C.2     1  LIG1        0.2068
      4 C          -3.0926    0.5376    0.7573 C.3     1  LIG1        0.1407
      5 C          -2.5917    1.5161    1.8397 C.3     1  LIG1       -0.0277
      6 C          -2.1169    0.2050   -0.3655 C.3     1  LIG1        0.0418
      7 C          -0.8310   -0.3061    0.2219 C.2     1  LIG1        0.0034
      8 C           0.4049    0.0615   -0.1484 C.2     1  LIG1        0.0966
      9 O           1.5619   -0.4668    0.3838 O.2     1  LIG1       -0.4632
     10 H          -2.5320   -0.6367   -0.9474 H       1  LIG1        0.0392
     11 O          -4.1730    1.1665    0.0677 O.3     1  LIG1       -0.3329
     12 C          -3.6186    1.9390   -1.0047 C.3     1  LIG1        0.1881
     13 O          -3.5250    3.2705   -0.5025 O.3     1  LIG1       -0.3635
     14 C          -2.1959    1.4365   -1.2739 C.3     1  LIG1        0.1202
     15 H          -1.4552    2.1954   -0.9921 H       1  LIG1        0.0474
     16 C          -4.5574    1.9541   -2.2101 C.3     1  LIG1        0.0478
     17 H          -5.3880    2.6480   -2.0231 H       1  LIG1        0.0386
     18 C          -3.7825    2.4441   -3.4334 C.3     1  LIG1        0.1077
     19 H          -4.4385    2.3624   -4.3090 H       1  LIG1        0.0735
     20 O          -2.6651    1.5785   -3.6927 O.3     1  LIG1       -0.4608
     21 C          -1.9071    1.0580   -2.7076 C.2     1  LIG1        0.3164
     22 O          -0.9708    0.3122   -2.9934 O.2     1  LIG1       -0.2503
     23 C          -3.2897    3.8870   -3.3809 C.3     1  LIG1       -0.0273
     24 C          -5.1861    0.5786   -2.4826 C.3     1  LIG1       -0.0541
     25 O          -4.5295   -1.1969    1.6721 O.2     1  LIG1       -0.2880
     26 C          -0.9572   -1.3291    1.2893 C.2     1  LIG1        0.0067
     27 C           0.2798   -1.9798    1.7329 C.2     1  LIG1       -0.0104
     28 C           1.4659   -1.5237    1.2869 C.2     1  LIG1        0.1279
     29 C           2.7352   -2.0907    1.7029 C.2     1  LIG1       -0.0229
     30 C           3.9364   -1.6710    1.2681 C.2     1  LIG1       -0.0753
     31 C           5.2592   -2.3000    1.6583 C.3     1  LIG1        0.0004
     32 H           5.1356   -2.8037    2.6266 H       1  LIG1        0.0365
     33 C           5.6137   -3.3626    0.6139 C.3     1  LIG1       -0.0566
     34 C           6.3647   -1.2233    1.8279 C.3     1  LIG1        0.0584
     35 H           6.0344   -0.4827    2.5671 H       1  LIG1        0.0596
     36 O           6.5845   -0.5311    0.5958 O.3     1  LIG1       -0.3915
     37 C           7.7004   -1.8085    2.2783 C.3     1  LIG1       -0.0384
     38 H          -1.8769    1.0670    2.5363 H       1  LIG1        0.0262
     39 H          -3.4391    1.8771    2.4348 H       1  LIG1        0.0262
     40 H          -2.1126    2.4004    1.4091 H       1  LIG1        0.0262
     41 H           0.6507    0.7791   -0.9195 H       1  LIG1        0.1032
     42 H          -4.4150    3.4776   -0.1639 H       1  LIG1        0.2128
     43 H          -2.4577    4.0174   -2.6824 H       1  LIG1        0.0265
     44 H          -4.0967    4.5757   -3.1149 H       1  LIG1        0.0265
     45 H          -2.8987    4.1792   -4.3622 H       1  LIG1        0.0265
     46 H          -4.4336   -0.2023   -2.6276 H       1  LIG1        0.0235
     47 H          -5.8110    0.6133   -3.3816 H       1  LIG1        0.0235
     48 H          -5.8320    0.2732   -1.6527 H       1  LIG1        0.0235
     49 H           0.2380   -2.8043    2.4363 H       1  LIG1        0.0661
     50 H           2.6892   -2.9326    2.3905 H       1  LIG1        0.0651
     51 H           3.9987   -0.8508    0.5528 H       1  LIG1        0.0577
     52 H           4.8096   -4.1025    0.5240 H       1  LIG1        0.0236
     53 H           6.5171   -3.9106    0.8972 H       1  LIG1        0.0236
     54 H           5.7748   -2.9231   -0.3763 H       1  LIG1        0.0236
     55 H           7.2600    0.1496    0.7579 H       1  LIG1        0.2098
     56 H           8.4260   -1.0060    2.4521 H       1  LIG1        0.0255
     57 H           8.1400   -2.4448    1.5028 H       1  LIG1        0.0255
     58 H           7.5957   -2.3876    3.1998 H       1  LIG1        0.0255
@<TRIPOS>BOND
     1     2     3    1
     2     3     4    1
     3     4     6    1
     4     6     7    1
     5     7     8    2
     6     8     9    1
     7     4    11    1
     8    11    12    1
     9    12    14    1
    10     6    14    1
    11    12    16    1
    12    16    18    1
    13    18    20    1
    14    20    21    1
    15    14    21    1
    16     2    26    2
    17     7    26    1
    18    26    27    1
    19    27    28    2
    20     9    28    1
    21    29    30    2
    22    30    31    1
    23    31    32    1
    24    31    33    1
    25    34    36    1
    26    34    37    1
    27     1     2    1
    28     3    25    2
    29     4     5    1
    30     6    10    1
    31    12    13    1
    32    14    15    1
    33    18    19    1
    34    18    23    1
    35    21    22    2
    36    28    29    1
    37    16    24    1
    38    16    17    1
    39    34    35    1
    40    34    31    1
    41     5    38    1
    42     5    39    1
    43     5    40    1
    44     8    41    1
    45    13    42    1
    46    23    43    1
    47    23    44    1
    48    23    45    1
    49    24    46    1
    50    24    47    1
    51    24    48    1
    52    27    49    1
    53    29    50    1
    54    30    51    1
    55    33    52    1
    56    33    53    1
    57    33    54    1
    58    36    55    1
    59    37    56    1
    60    37    57    1
    61    37    58    1
