@<TRIPOS>MOLECULE
NuBBE_1106
 51 55 0 0 0
SMALL
GASTEIGER

@<TRIPOS>ATOM
      1 O           1.5295   -1.3938   -0.8324 O.2     1  LIG1       -0.2668
      2 C           0.8932   -2.4388   -0.9033 C.ar    1  LIG1        0.2645
      3 C           1.6008   -3.7244   -0.7050 C.ar    1  LIG1        0.0665
      4 C           0.8788   -4.9123   -0.7714 C.ar    1  LIG1        0.0979
      5 C           1.5362   -6.1323   -0.5757 C.ar    1  LIG1       -0.0340
      6 C           2.9085   -6.1560   -0.3136 C.ar    1  LIG1       -0.0597
      7 C           3.6290   -4.9642   -0.2476 C.ar    1  LIG1       -0.0609
      8 C           2.9768   -3.7454   -0.4439 C.ar    1  LIG1       -0.0473
      9 N          -0.4919   -4.8400   -1.0283 N.ar    1  LIG1       -0.1313
     10 O          -1.2113   -6.0556   -1.0773 O.3     1  LIG1       -0.4219
     11 C          -1.2070   -3.6779   -1.2090 C.ar    1  LIG1        0.3648
     12 N          -0.4792   -2.4959   -1.1527 N.ar    1  LIG1       -0.2577
     13 C          -1.2036   -1.2311   -1.3104 C.3     1  LIG1        0.0351
     14 C          -1.7098   -0.6870    0.0327 C.3     1  LIG1       -0.0074
     15 C          -2.4666    0.6041   -0.1017 C.ar    1  LIG1       -0.0200
     16 C          -3.8320    0.6709   -0.3163 C.ar    1  LIG1        0.0060
     17 N          -4.2076    1.9812   -0.3341 N.ar    1  LIG1       -0.3603
     18 C          -3.1214    2.7911   -0.1080 C.ar    1  LIG1        0.0475
     19 C          -1.9904    1.9681    0.0121 C.ar    1  LIG1        0.0135
     20 C          -0.7444    2.6200    0.2303 C.ar    1  LIG1        0.0259
     21 C          -0.7020    4.0171    0.3865 C.ar    1  LIG1        0.1295
     22 C          -1.8491    4.7887    0.2545 C.ar    1  LIG1       -0.0173
     23 C          -3.0791    4.1886   -0.0053 C.ar    1  LIG1       -0.0343
     24 O           0.4547    4.7074    0.6468 O.3     1  LIG1       -0.4816
     25 C           1.5697    3.9502    1.1655 C.3     1  LIG1        0.1235
     26 C           1.5400    4.0437    2.6964 C.3     1  LIG1       -0.0215
     27 C           2.8278    4.6477    0.6330 C.3     1  LIG1       -0.0215
     28 C           1.5909    2.5057    0.7268 C.2     1  LIG1       -0.0409
     29 C           0.5042    1.8764    0.2675 C.2     1  LIG1       -0.0507
     30 O          -2.4262   -3.7251   -1.4012 O.2     1  LIG1       -0.2431
     31 H           0.9892   -7.0711   -0.6222 H       1  LIG1        0.0639
     32 H           3.4144   -7.1070   -0.1600 H       1  LIG1        0.0618
     33 H           4.6970   -4.9839   -0.0426 H       1  LIG1        0.0618
     34 H           3.5433   -2.8176   -0.3905 H       1  LIG1        0.0626
     35 H          -2.1234   -5.7345   -1.2421 H       1  LIG1        0.3259
     36 H          -2.0498   -1.3864   -1.9915 H       1  LIG1        0.0497
     37 H          -0.5478   -0.4973   -1.7914 H       1  LIG1        0.0497
     38 H          -0.8833   -0.5730    0.7417 H       1  LIG1        0.0331
     39 H          -2.3717   -1.4331    0.4945 H       1  LIG1        0.0331
     40 H          -4.5697   -0.1115   -0.4407 H       1  LIG1        0.0810
     41 H          -5.1519    2.3171   -0.4648 H       1  LIG1        0.1653
     42 H          -1.7863    5.8689    0.3571 H       1  LIG1        0.0655
     43 H          -3.9756    4.7922   -0.1071 H       1  LIG1        0.0639
     44 H           1.5392    5.0902    3.0232 H       1  LIG1        0.0271
     45 H           2.3989    3.5397    3.1531 H       1  LIG1        0.0271
     46 H           0.6257    3.5951    3.1029 H       1  LIG1        0.0271
     47 H           2.8374    5.7075    0.9132 H       1  LIG1        0.0271
     48 H           2.8562    4.6177   -0.4630 H       1  LIG1        0.0271
     49 H           3.7449    4.1836    1.0128 H       1  LIG1        0.0271
     50 H           2.5305    1.9636    0.7859 H       1  LIG1        0.0611
     51 H           0.5640    0.8582   -0.0829 H       1  LIG1        0.0623
@<TRIPOS>BOND
     1     1     2    2
     2     2     3   ar
     3     3     4   ar
     4     4     5   ar
     5     5     6   ar
     6     6     7   ar
     7     7     8   ar
     8     3     8   ar
     9     4     9   ar
    10     9    10    1
    11     9    11   ar
    12    11    12   ar
    13     2    12   ar
    14    12    13    1
    15    13    14    1
    16    14    15    1
    17    15    16   ar
    18    16    17   ar
    19    17    18   ar
    20    18    19   ar
    21    15    19   ar
    22    19    20   ar
    23    20    21   ar
    24    21    22   ar
    25    22    23   ar
    26    18    23   ar
    27    21    24    1
    28    24    25    1
    29    25    26    1
    30    25    27    1
    31    25    28    1
    32    28    29    2
    33    20    29    1
    34    11    30    2
    35     5    31    1
    36     6    32    1
    37     7    33    1
    38     8    34    1
    39    10    35    1
    40    13    36    1
    41    13    37    1
    42    14    38    1
    43    14    39    1
    44    16    40    1
    45    17    41    1
    46    22    42    1
    47    23    43    1
    48    26    44    1
    49    26    45    1
    50    26    46    1
    51    27    47    1
    52    27    48    1
    53    27    49    1
    54    28    50    1
    55    29    51    1
