@<TRIPOS>MOLECULE
NuBBE_1382
 28 27 0 0 0
SMALL
GASTEIGER

@<TRIPOS>ATOM
      1 C          -4.1763    1.6383   -1.9133 C.3     1  LIG1       -0.0653
      2 C          -2.6563    1.6168   -1.8893 C.3     1  LIG1       -0.0559
      3 C          -2.1250    0.6830   -0.8020 C.3     1  LIG1       -0.0533
      4 C          -0.5953    0.6726   -0.7772 C.3     1  LIG1       -0.0531
      5 C          -0.0622   -0.2621    0.3103 C.3     1  LIG1       -0.0530
      6 C           1.4674   -0.2725    0.3375 C.3     1  LIG1       -0.0527
      7 C           2.0003   -1.2174    1.4160 C.3     1  LIG1       -0.0466
      8 C           3.5239   -1.2206    1.4445 C.3     1  LIG1        0.0028
      9 C           4.0308   -2.1626    2.5043 C.2     1  LIG1        0.1203
     10 O           4.2533   -3.3499    2.2999 O.2     1  LIG1       -0.3010
     11 H          -4.5331    2.3086   -2.7015 H       1  LIG1        0.0230
     12 H          -4.5787    1.9921   -0.9588 H       1  LIG1        0.0230
     13 H          -4.5802    0.6397   -2.1080 H       1  LIG1        0.0230
     14 H          -2.2853    2.6344   -1.7203 H       1  LIG1        0.0263
     15 H          -2.2859    1.2949   -2.8695 H       1  LIG1        0.0263
     16 H          -2.4970   -0.3339   -0.9772 H       1  LIG1        0.0265
     17 H          -2.5063    1.0024    0.1756 H       1  LIG1        0.0265
     18 H          -0.2242    1.6897   -0.6021 H       1  LIG1        0.0265
     19 H          -0.2147    0.3534   -1.7552 H       1  LIG1        0.0265
     20 H          -0.4335   -1.2789    0.1339 H       1  LIG1        0.0265
     21 H          -0.4438    0.0569    1.2878 H       1  LIG1        0.0265
     22 H           1.8381    0.7430    0.5228 H       1  LIG1        0.0265
     23 H           1.8498   -0.5820   -0.6429 H       1  LIG1        0.0265
     24 H           1.6340   -2.2349    1.2285 H       1  LIG1        0.0269
     25 H           1.6104   -0.9219    2.3979 H       1  LIG1        0.0269
     26 H           3.9176   -0.2224    1.6641 H       1  LIG1        0.0339
     27 H           3.9339   -1.5350    0.4790 H       1  LIG1        0.0339
     28 H           4.1382   -1.7317    3.5152 H       1  LIG1        0.1026
@<TRIPOS>BOND
     1     1     2    1
     2     2     3    1
     3     3     4    1
     4     4     5    1
     5     5     6    1
     6     6     7    1
     7     7     8    1
     8     8     9    1
     9     9    10    2
    10     1    11    1
    11     1    12    1
    12     1    13    1
    13     2    14    1
    14     2    15    1
    15     3    16    1
    16     3    17    1
    17     4    18    1
    18     4    19    1
    19     5    20    1
    20     5    21    1
    21     6    22    1
    22     6    23    1
    23     7    24    1
    24     7    25    1
    25     8    26    1
    26     8    27    1
    27     9    28    1
