@<TRIPOS>MOLECULE
NuBBE_153
 59 60 0 0 0
SMALL
GASTEIGER

@<TRIPOS>ATOM
      1 O           0.4025   -2.1341    6.2354 O.3     1  LIG1       -0.4771
      2 C          -0.3279   -2.5596    5.1638 C.2     1  LIG1        0.3368
      3 C           0.0276   -1.9607    3.8672 C.ar    1  LIG1        0.0596
      4 C          -0.1794   -2.7069    2.7008 C.ar    1  LIG1       -0.0411
      5 C           0.1659   -2.1641    1.4440 C.ar    1  LIG1       -0.0046
      6 C          -0.0036   -2.9860    0.1799 C.3     1  LIG1       -0.0240
      7 C          -1.3746   -2.8386   -0.5006 C.3     1  LIG1       -0.0466
      8 C          -1.5029   -3.7005   -1.7810 C.3     1  LIG1       -0.0464
      9 C          -1.3165   -5.1932   -1.4940 C.3     1  LIG1       -0.0627
     10 C          -2.8592   -3.4895   -2.4643 C.3     1  LIG1       -0.0627
     11 C           0.7149   -0.8784    1.3999 C.ar    1  LIG1        0.1276
     12 O           1.0315   -0.4272    0.1535 O.3     1  LIG1       -0.4854
     13 C           1.7111    0.8167    0.0206 C.3     1  LIG1        0.1082
     14 C           0.6916    1.9046   -0.3699 C.3     1  LIG1       -0.0132
     15 C           0.0265    1.8103   -1.7488 C.3     1  LIG1       -0.0492
     16 C          -0.9430    2.9688   -2.0739 C.3     1  LIG1       -0.0506
     17 C          -0.3197    4.3831   -2.2169 C.3     1  LIG1       -0.0467
     18 C          -1.3752    5.4063   -2.6554 C.3     1  LIG1       -0.0627
     19 C           0.3287    4.9266   -0.9426 C.3     1  LIG1       -0.0627
     20 C           2.7445    0.5895   -1.0906 C.3     1  LIG1       -0.0249
     21 C           2.4761    1.2664    1.2885 C.3     1  LIG1       -0.0091
     22 C           1.6033    1.1977    2.5267 C.3     1  LIG1       -0.0206
     23 C           0.9425   -0.1436    2.5725 C.ar    1  LIG1       -0.0045
     24 C           0.5479   -0.6751    3.8043 C.ar    1  LIG1       -0.0411
     25 O          -1.2116   -3.4003    5.2579 O.2     1  LIG1       -0.2451
     26 H           1.1742   -1.6513    6.0023 H       1  LIG1        0.2954
     27 H          -0.5785   -3.7142    2.7589 H       1  LIG1        0.0629
     28 H           0.1894   -4.0307    0.4428 H       1  LIG1        0.0314
     29 H           0.7835   -2.7282   -0.5425 H       1  LIG1        0.0314
     30 H          -1.5427   -1.7857   -0.7651 H       1  LIG1        0.0271
     31 H          -2.1657   -3.1080    0.2097 H       1  LIG1        0.0271
     32 H          -0.7269   -3.3878   -2.4918 H       1  LIG1        0.0296
     33 H          -1.9734   -5.5193   -0.6810 H       1  LIG1        0.0232
     34 H          -0.2837   -5.4235   -1.2149 H       1  LIG1        0.0232
     35 H          -1.5479   -5.7968   -2.3782 H       1  LIG1        0.0232
     36 H          -3.6889   -3.7695   -1.8067 H       1  LIG1        0.0232
     37 H          -2.9322   -4.1037   -3.3704 H       1  LIG1        0.0232
     38 H          -2.9965   -2.4460   -2.7655 H       1  LIG1        0.0232
     39 H           1.2698    2.8167   -0.3219 H       1  LIG1        0.0304
     40 H          -0.1036    1.9680    0.3836 H       1  LIG1        0.0304
     41 H          -0.5343    0.8669   -1.8130 H       1  LIG1        0.0267
     42 H           0.7832    1.7789   -2.5381 H       1  LIG1        0.0267
     43 H          -1.7574    2.9815   -1.3377 H       1  LIG1        0.0268
     44 H          -1.4152    2.7191   -3.0354 H       1  LIG1        0.0268
     45 H           0.4474    4.3401   -3.0006 H       1  LIG1        0.0295
     46 H          -2.2497    5.3846   -1.9966 H       1  LIG1        0.0232
     47 H          -1.7054    5.2292   -3.6835 H       1  LIG1        0.0232
     48 H          -0.9593    6.4216   -2.6190 H       1  LIG1        0.0232
     49 H          -0.2429    4.6274   -0.0573 H       1  LIG1        0.0232
     50 H           0.3955    6.0227   -0.9416 H       1  LIG1        0.0232
     51 H           1.3644    4.5844   -0.8579 H       1  LIG1        0.0232
     52 H           2.2705    0.2733   -2.0255 H       1  LIG1        0.0268
     53 H           3.4227   -0.2293   -0.8189 H       1  LIG1        0.0268
     54 H           3.3382    1.4897   -1.2772 H       1  LIG1        0.0268
     55 H           2.8628    2.2870    1.1723 H       1  LIG1        0.0307
     56 H           3.3517    0.6212    1.4448 H       1  LIG1        0.0307
     57 H           0.8468    1.9901    2.5410 H       1  LIG1        0.0316
     58 H           2.2408    1.3410    3.4097 H       1  LIG1        0.0316
     59 H           0.6624   -0.0617    4.6984 H       1  LIG1        0.0629
@<TRIPOS>BOND
     1     1     2    1
     2     2     3    1
     3     3     4   ar
     4     4     5   ar
     5     5     6    1
     6     6     7    1
     7     7     8    1
     8     8     9    1
     9     8    10    1
    10     5    11   ar
    11    11    12    1
    12    12    13    1
    13    13    14    1
    14    14    15    1
    15    15    16    1
    16    16    17    1
    17    17    18    1
    18    17    19    1
    19    13    20    1
    20    13    21    1
    21    21    22    1
    22    11    23   ar
    23    22    23    1
    24    23    24   ar
    25     3    24   ar
    26     2    25    2
    27     1    26    1
    28     4    27    1
    29     6    28    1
    30     6    29    1
    31     7    30    1
    32     7    31    1
    33     8    32    1
    34     9    33    1
    35     9    34    1
    36     9    35    1
    37    10    36    1
    38    10    37    1
    39    10    38    1
    40    14    39    1
    41    14    40    1
    42    15    41    1
    43    15    42    1
    44    16    43    1
    45    16    44    1
    46    17    45    1
    47    18    46    1
    48    18    47    1
    49    18    48    1
    50    19    49    1
    51    19    50    1
    52    19    51    1
    53    20    52    1
    54    20    53    1
    55    20    54    1
    56    21    55    1
    57    21    56    1
    58    22    57    1
    59    22    58    1
    60    24    59    1
