@<TRIPOS>MOLECULE
NuBBE_337
 60 61 0 0 0
SMALL
GASTEIGER

@<TRIPOS>ATOM
      1 O          -3.6263   -3.6789    1.2312 O.2     1  LIG1       -0.2452
      2 C          -3.6464   -2.4781    1.4488 C.2     1  LIG1        0.3381
      3 O          -4.4747   -1.8412    2.3201 O.3     1  LIG1       -0.4646
      4 C          -5.8782   -2.0508    2.1584 C.3     1  LIG1        0.0820
      5 C          -2.7205   -1.4857    0.8177 C.2     1  LIG1        0.0749
      6 C          -3.0689   -0.1890    0.8593 C.2     1  LIG1        0.0981
      7 O          -2.2704    0.8787    0.5536 O.2     1  LIG1       -0.4701
      8 C          -0.9790    0.5726    0.0038 C.3     1  LIG1        0.2102
      9 H          -1.1850    0.4440   -1.0525 H       1  LIG1        0.1060
     10 O          -0.1536    1.7236    0.0894 O.3     1  LIG1       -0.3094
     11 C           1.1662    1.6079   -0.4461 C.3     1  LIG1        0.1918
     12 H           1.7325    0.8860    0.1264 H       1  LIG1        0.0939
     13 O           1.7761    2.8642   -0.2074 O.3     1  LIG1       -0.3404
     14 C           3.0051    3.0481   -0.8946 C.3     1  LIG1        0.1130
     15 H           3.7135    2.2461   -0.6352 H       1  LIG1        0.0647
     16 C           3.5953    4.3664   -0.3993 C.3     1  LIG1        0.0730
     17 O           4.8087    4.6854   -1.0652 O.3     1  LIG1       -0.3924
     18 C           2.6920    3.0268   -2.4003 C.3     1  LIG1        0.1119
     19 H           1.8386    3.6794   -2.6220 H       1  LIG1        0.0647
     20 O           3.7774    3.4211   -3.2237 O.3     1  LIG1       -0.3865
     21 C           2.3267    1.5873   -2.7466 C.3     1  LIG1        0.1141
     22 H           3.2083    0.9436   -2.6257 H       1  LIG1        0.0648
     23 O           1.9094    1.4035   -4.1101 O.3     1  LIG1       -0.3864
     24 C           1.1906    1.0888   -1.8868 C.3     1  LIG1        0.1342
     25 H           0.2321    1.2992   -2.3705 H       1  LIG1        0.0671
     26 O           1.3557   -0.3431   -1.8374 O.3     1  LIG1       -0.3841
     27 C          -0.3622   -0.6996    0.6128 C.3     1  LIG1        0.0659
     28 C           0.0481   -0.5190    2.1239 C.3     1  LIG1        0.1093
     29 H          -0.8180   -0.2735    2.7462 H       1  LIG1        0.0736
     30 O           0.6676   -1.7609    2.5237 O.3     1  LIG1       -0.4613
     31 C          -0.1799   -2.7205    3.0008 C.2     1  LIG1        0.3042
     32 C           0.4562   -4.0674    2.8144 C.3     1  LIG1        0.0332
     33 O          -1.3049   -2.5372    3.3841 O.2     1  LIG1       -0.2512
     34 C           1.1293    0.5368    2.4315 C.3     1  LIG1       -0.0272
     35 C          -1.3561   -1.8877    0.3199 C.3     1  LIG1        0.0157
     36 H          -1.0166   -2.7601    0.8729 H       1  LIG1        0.0363
     37 C          -1.3004   -2.4371   -1.1340 C.3     1  LIG1        0.0525
     38 C          -1.7830   -1.5509   -2.2294 C.2     1  LIG1        0.3053
     39 O          -0.8181   -0.9753   -2.9481 O.3     1  LIG1       -0.4806
     40 O          -2.9612   -1.2461   -2.4499 O.2     1  LIG1       -0.2510
     41 H          -6.1269   -2.5039    1.1950 H       1  LIG1        0.0661
     42 H          -6.3477   -1.0602    2.1977 H       1  LIG1        0.0661
     43 H          -6.2771   -2.6419    2.9861 H       1  LIG1        0.0661
     44 H          -4.0255    0.1707    1.2202 H       1  LIG1        0.1029
     45 H           3.7815    4.3201    0.6812 H       1  LIG1        0.0584
     46 H           2.8826    5.1814   -0.5583 H       1  LIG1        0.0584
     47 H           5.4693    4.0175   -0.8026 H       1  LIG1        0.2095
     48 H           4.0518    4.3139   -2.9331 H       1  LIG1        0.2100
     49 H           1.3787    2.1773   -4.3650 H       1  LIG1        0.2100
     50 H           1.2254   -0.6722   -2.7500 H       1  LIG1        0.2101
     51 H           0.5686   -0.9726    0.1183 H       1  LIG1        0.0403
     52 H           1.0823   -4.0773    1.9130 H       1  LIG1        0.0342
     53 H          -0.3345   -4.8060    2.6541 H       1  LIG1        0.0342
     54 H           1.0436   -4.3037    3.6958 H       1  LIG1        0.0342
     55 H           0.7929    1.5612    2.2474 H       1  LIG1        0.0265
     56 H           2.0569    0.3391    1.8825 H       1  LIG1        0.0265
     57 H           1.4487    0.4948    3.4767 H       1  LIG1        0.0265
     58 H          -0.2649   -2.7293   -1.3680 H       1  LIG1        0.0384
     59 H          -1.8770   -3.3685   -1.2048 H       1  LIG1        0.0384
     60 H          -1.2546   -0.2480   -3.4402 H       1  LIG1        0.2951
@<TRIPOS>BOND
     1     1     2    2
     2     2     3    1
     3     3     4    1
     4     2     5    1
     5     5     6    2
     6     6     7    1
     7     7     8    1
     8    11    13    1
     9    13    14    1
    10    14    15    1
    11    14    16    1
    12    16    17    1
    13    14    18    1
    14    18    21    1
    15    21    22    1
    16    21    23    1
    17    21    24    1
    18    11    24    1
    19     8    27    1
    20    27    28    1
    21    28    29    1
    22    28    30    1
    23    30    31    1
    24    31    32    1
    25    31    33    2
    26    28    34    1
    27    27    35    1
    28     5    35    1
    29    37    38    1
    30    38    39    1
    31    38    40    2
    32    11    12    1
    33    11    10    1
    34     8    10    1
    35     8     9    1
    36    18    20    1
    37    18    19    1
    38    24    26    1
    39    24    25    1
    40    35    37    1
    41    35    36    1
    42     4    41    1
    43     4    42    1
    44     4    43    1
    45     6    44    1
    46    16    45    1
    47    16    46    1
    48    17    47    1
    49    20    48    1
    50    23    49    1
    51    26    50    1
    52    27    51    1
    53    32    52    1
    54    32    53    1
    55    32    54    1
    56    34    55    1
    57    34    56    1
    58    34    57    1
    59    37    58    1
    60    37    59    1
    61    39    60    1
