REMARK  Name = NuBBE_645
REMARK  10 active torsions:
REMARK  status: ('A' for Active; 'I' for Inactive)
REMARK    1  A    between atoms: O_1  and  C_2
REMARK    2  A    between atoms: C_5  and  C_6
REMARK    3  A    between atoms: C_8  and  C_10
REMARK    4  A    between atoms: C_11  and  C_13
REMARK    5  A    between atoms: C_14  and  C_16
REMARK    6  A    between atoms: C_18  and  O_19
REMARK    7  A    between atoms: O_19  and  C_20
REMARK    8  A    between atoms: C_21  and  O_22
REMARK    9  A    between atoms: C_27  and  O_28
REMARK   10  A    between atoms: O_28  and  C_29
REMARK                            x       y       z     vdW  Elec       q    Type
REMARK                         _______ _______ _______ _____ _____    ______ ____
ROOT
ATOM      1  C   LIG A   1      -1.811   0.048   1.273  0.00  0.00    +0.152 C 
ATOM      2  C   LIG A   1      -1.117   0.945   2.314  0.00  0.00    +0.025 C 
ATOM      3  C   LIG A   1      -1.744   0.773   3.701  0.00  0.00    +0.011 C 
ATOM      4  C   LIG A   1       0.333   0.471   2.204  0.00  0.00    +0.025 C 
ATOM      5  C   LIG A   1       1.236   0.859   3.364  0.00  0.00    +0.011 C 
ATOM      6  C   LIG A   1       0.165  -1.035   1.994  0.00  0.00    +0.152 C 
ATOM      7  O   LIG A   1      -1.073  -1.190   1.257  0.00  0.00    -0.364 OA
ENDROOT
BRANCH   1  11
ATOM      8  C   LIG A   1      -2.153   1.521  -2.804  0.00  0.00    +0.159 A 
ATOM      9  C   LIG A   1      -2.679   0.274  -2.444  0.00  0.00    +0.049 A 
ATOM     10  C   LIG A   1      -2.551  -0.196  -1.133  0.00  0.00    +0.010 A 
ATOM     11  C   LIG A   1      -1.902   0.574  -0.154  0.00  0.00    -0.015 A 
ATOM     12  C   LIG A   1      -1.375   1.815  -0.549  0.00  0.00    +0.055 A 
ATOM     13  C   LIG A   1      -1.485   2.295  -1.861  0.00  0.00    +0.162 A 
BRANCH   8  14
ATOM     14  O   LIG A   1      -2.317   1.951  -4.092  0.00  0.00    -0.503 OA
ATOM     15  H   LIG A   1      -2.842   1.298  -4.581  0.00  0.00    +0.292 HD
ENDBRANCH   8  14
BRANCH  13  16
ATOM     16  O   LIG A   1      -0.885   3.518  -2.013  0.00  0.00    -0.491 OA
ATOM     17  C   LIG A   1      -0.876   4.111  -3.301  0.00  0.00    +0.277 C 
ENDBRANCH  13  16
ENDBRANCH   1  11
BRANCH   6  18
ATOM     18  C   LIG A   1       1.309  -1.699   1.256  0.00  0.00    -0.015 A 
ATOM     19  C   LIG A   1       1.312  -1.778  -0.148  0.00  0.00    +0.055 A 
ATOM     20  C   LIG A   1       2.349  -2.418  -0.831  0.00  0.00    +0.162 A 
ATOM     21  C   LIG A   1       3.390  -2.984  -0.090  0.00  0.00    +0.159 A 
ATOM     22  C   LIG A   1       3.431  -2.890   1.296  0.00  0.00    +0.049 A 
ATOM     23  C   LIG A   1       2.390  -2.246   1.968  0.00  0.00    +0.010 A 
BRANCH  20  24
ATOM     24  O   LIG A   1       2.453  -2.553  -2.192  0.00  0.00    -0.491 OA
ATOM     25  C   LIG A   1       1.415  -1.965  -2.970  0.00  0.00    +0.277 C 
ENDBRANCH  20  24
BRANCH  21  26
ATOM     26  O   LIG A   1       4.397  -3.664  -0.720  0.00  0.00    -0.503 OA
ATOM     27  H   LIG A   1       4.139  -3.674  -1.662  0.00  0.00    +0.292 HD
ENDBRANCH  21  26
ENDBRANCH   6  18
TORSDOF 6
