REMARK  Name = NuBBE_857
REMARK  10 active torsions:
REMARK  status: ('A' for Active; 'I' for Inactive)
REMARK    1  A    between atoms: C_5  and  C_35
REMARK    2  A    between atoms: C_6  and  O_31
REMARK    3  A    between atoms: C_10  and  C_11
REMARK    4  A    between atoms: C_10  and  C_30
REMARK    5  A    between atoms: C_15  and  C_28
REMARK    6  A    between atoms: C_19  and  C_27
REMARK    7  A    between atoms: C_20  and  C_21
REMARK    8  A    between atoms: C_20  and  O_26
REMARK    9  A    between atoms: O_31  and  C_32
REMARK   10  A    between atoms: C_32  and  C_33
REMARK                            x       y       z     vdW  Elec       q    Type
REMARK                         _______ _______ _______ _____ _____    ______ ____
ROOT
ATOM      1  O   LIG A   1      -0.794   4.042   2.390  0.00  0.00    -0.289 OA
ATOM      2  C   LIG A   1      -0.990   3.276   1.455  0.00  0.00    +0.193 C 
ATOM      3  C   LIG A   1       0.033   2.337   0.981  0.00  0.00    +0.050 C 
ATOM      4  C   LIG A   1      -0.546   1.476   0.128  0.00  0.00    -0.047 C 
ATOM      5  C   LIG A   1       0.067   0.128  -0.342  0.00  0.00    +0.030 C 
ATOM      6  C   LIG A   1       1.591  -0.013   0.021  0.00  0.00    +0.187 C 
ATOM      7  C   LIG A   1       2.112  -1.455  -0.079  0.00  0.00    +0.051 C 
ATOM      8  C   LIG A   1       1.292  -2.425   0.785  0.00  0.00    +0.016 C 
ATOM      9  C   LIG A   1       1.974  -3.823   0.979  0.00  0.00    +0.031 C 
ATOM     10  C   LIG A   1       2.482  -4.470  -0.320  0.00  0.00    +0.019 C 
ATOM     11  C   LIG A   1       1.027  -4.811   1.678  0.00  0.00    +0.162 C 
ATOM     12  C   LIG A   1      -0.378  -4.422   1.927  0.00  0.00    +0.043 C 
ATOM     13  C   LIG A   1      -0.939  -3.364   1.329  0.00  0.00    -0.016 C 
ATOM     14  C   LIG A   1      -0.218  -2.446   0.347  0.00  0.00    -0.006 C 
ATOM     15  C   LIG A   1      -0.764  -0.962   0.453  0.00  0.00    +0.012 C 
ATOM     16  C   LIG A   1      -2.294  -0.794   0.190  0.00  0.00    +0.006 C 
ATOM     17  C   LIG A   1      -2.803   0.601   0.596  0.00  0.00    +0.015 C 
ATOM     18  C   LIG A   1      -2.047   1.773  -0.081  0.00  0.00    +0.030 C 
ATOM     19  C   LIG A   1      -2.289   3.154   0.668  0.00  0.00    +0.164 C 
ATOM     20  C   LIG A   1      -2.489   1.875  -1.556  0.00  0.00    +0.019 C 
ATOM     21  C   LIG A   1      -0.470  -3.057  -1.047  0.00  0.00    +0.016 C 
ATOM     22  O   LIG A   1       1.390  -5.924   2.050  0.00  0.00    -0.292 OA
ATOM     23  C   LIG A   1       3.190  -3.673   1.927  0.00  0.00    +0.019 C 
ATOM     24  C   LIG A   1      -0.043   0.011  -1.884  0.00  0.00    +0.020 C 
ENDROOT
BRANCH  19  25
ATOM     25  C   LIG A   1      -2.456   4.380  -0.202  0.00  0.00    +0.030 A 
ATOM     26  C   LIG A   1      -3.645   4.902  -0.679  0.00  0.00    +0.201 A 
ATOM     27  O   LIG A   1      -3.429   6.013  -1.427  0.00  0.00    -0.471 OA
ATOM     28  C   LIG A   1      -2.092   6.233  -1.429  0.00  0.00    +0.195 A 
ATOM     29  C   LIG A   1      -1.447   5.264  -0.699  0.00  0.00    +0.048 A 
ENDBRANCH  19  25
BRANCH  19  30
ATOM     30  O   LIG A   1      -3.361   3.076   1.611  0.00  0.00    -0.375 OA
ATOM     31  H   LIG A   1      -3.223   3.828   2.222  0.00  0.00    +0.211 HD
ENDBRANCH  19  30
BRANCH   6  32
ATOM     32  O   LIG A   1       2.392   0.758  -0.914  0.00  0.00    -0.461 OA
BRANCH  32  33
ATOM     33  C   LIG A   1       3.250   1.686  -0.421  0.00  0.00    +0.304 C 
ATOM     34  C   LIG A   1       4.064   2.279  -1.531  0.00  0.00    +0.136 C 
ATOM     35  O   LIG A   1       3.341   2.021   0.751  0.00  0.00    -0.251 OA
ENDBRANCH  32  33
ENDBRANCH   6  32
TORSDOF 4
