@<TRIPOS>MOLECULE
NuBBE_1254
 30 30 0 0 0
SMALL
GASTEIGER

@<TRIPOS>ATOM
      1 O          -1.2157   -4.5808    2.9446 O.2     1  LIG1       -0.2963
      2 C          -1.4057   -3.9767    1.8980 C.2     1  LIG1        0.1431
      3 C          -0.6943   -2.7170    1.5889 C.2     1  LIG1       -0.0217
      4 C          -0.9263   -2.0702    0.4385 C.2     1  LIG1       -0.0446
      5 C          -0.2662   -0.7966    0.0715 C.ar    1  LIG1        0.0586
      6 C          -0.8708    0.4308    0.4158 C.ar    1  LIG1        0.1342
      7 O          -2.0669    0.3875    1.0961 O.3     1  LIG1       -0.4943
      8 C          -2.9364    1.5020    0.8983 C.3     1  LIG1        0.0788
      9 C          -0.2403    1.6360    0.0878 C.ar    1  LIG1        0.0226
     10 C           0.9554    1.6442   -0.6256 C.ar    1  LIG1        0.1271
     11 O           1.6376    2.7690   -1.0106 O.3     1  LIG1       -0.4949
     12 C           1.0689    4.0169   -0.6234 C.3     1  LIG1        0.0788
     13 C           1.5373    0.4334   -1.0052 C.ar    1  LIG1        0.0226
     14 C           0.9433   -0.7899   -0.6617 C.ar    1  LIG1        0.1342
     15 O           1.4565   -2.0141   -1.0207 O.3     1  LIG1       -0.4943
     16 C           2.6918   -2.0289   -1.7309 C.3     1  LIG1        0.0788
     17 H          -2.1141   -4.3313    1.1307 H       1  LIG1        0.1075
     18 H           0.0021   -2.3635    2.3468 H       1  LIG1        0.0650
     19 H          -1.6379   -2.4389   -0.2962 H       1  LIG1        0.0627
     20 H          -3.8956    1.2695    1.3695 H       1  LIG1        0.0660
     21 H          -3.1185    1.6787   -0.1681 H       1  LIG1        0.0660
     22 H          -2.5519    2.4054    1.3835 H       1  LIG1        0.0660
     23 H          -0.6822    2.5708    0.4027 H       1  LIG1        0.0691
     24 H           1.7131    4.8190   -0.9940 H       1  LIG1        0.0660
     25 H           1.0228    4.1035    0.4678 H       1  LIG1        0.0660
     26 H           0.0781    4.1522   -1.0715 H       1  LIG1        0.0660
     27 H           2.4610    0.4805   -1.5732 H       1  LIG1        0.0691
     28 H           2.9539   -3.0736   -1.9240 H       1  LIG1        0.0660
     29 H           3.4984   -1.5898   -1.1339 H       1  LIG1        0.0660
     30 H           2.6026   -1.5281   -2.7014 H       1  LIG1        0.0660
@<TRIPOS>BOND
     1     1     2    2
     2     2     3    1
     3     3     4    2
     4     4     5    1
     5     5     6   ar
     6     6     7    1
     7     7     8    1
     8     6     9   ar
     9     9    10   ar
    10    10    11    1
    11    11    12    1
    12    10    13   ar
    13    13    14   ar
    14     5    14   ar
    15    14    15    1
    16    15    16    1
    17     2    17    1
    18     3    18    1
    19     4    19    1
    20     8    20    1
    21     8    21    1
    22     8    22    1
    23     9    23    1
    24    12    24    1
    25    12    25    1
    26    12    26    1
    27    13    27    1
    28    16    28    1
    29    16    29    1
    30    16    30    1
