@<TRIPOS>MOLECULE
NuBBE_655
 26 26 0 0 0
SMALL
GASTEIGER

@<TRIPOS>ATOM
      1 O          -2.5533    0.3242    1.6561 O.3     1  LIG1       -0.3918
      2 C          -1.1379    0.3005    1.8410 C.3     1  LIG1        0.0553
      3 C          -0.5985   -1.0881    1.5095 C.3     1  LIG1       -0.0265
      4 C          -0.7400   -1.4189    0.0243 C.3     1  LIG1       -0.0455
      5 C          -0.1346   -0.3613   -0.9205 C.3     1  LIG1       -0.0151
      6 C           1.4018   -0.5127   -1.0499 C.3     1  LIG1        0.0553
      7 C           1.9884    0.2964   -2.2050 C.3     1  LIG1       -0.0387
      8 O           2.0807   -0.1716    0.1523 O.3     1  LIG1       -0.3918
      9 C          -0.6249    1.0471   -0.5339 C.3     1  LIG1       -0.0455
     10 C          -0.5168    1.3775    0.9566 C.3     1  LIG1       -0.0265
     11 H          -2.9332   -0.3551    2.2393 H       1  LIG1        0.2098
     12 H          -0.9446    0.5359    2.8934 H       1  LIG1        0.0593
     13 H          -1.1470   -1.8446    2.0838 H       1  LIG1        0.0290
     14 H           0.4512   -1.1602    1.8126 H       1  LIG1        0.0290
     15 H          -1.8088   -1.5161   -0.2090 H       1  LIG1        0.0270
     16 H          -0.2995   -2.4032   -0.1744 H       1  LIG1        0.0270
     17 H          -0.5397   -0.5758   -1.9200 H       1  LIG1        0.0326
     18 H           1.6276   -1.5680   -1.2440 H       1  LIG1        0.0593
     19 H           1.9044    1.3737   -2.0317 H       1  LIG1        0.0255
     20 H           1.4990    0.0512   -3.1523 H       1  LIG1        0.0255
     21 H           3.0590    0.0854   -2.3043 H       1  LIG1        0.0255
     22 H           2.2509    0.7855    0.1437 H       1  LIG1        0.2098
     23 H          -1.6826    1.1243   -0.8210 H       1  LIG1        0.0270
     24 H          -0.1070    1.8164   -1.1157 H       1  LIG1        0.0270
     25 H          -1.0251    2.3338    1.1320 H       1  LIG1        0.0290
     26 H           0.5305    1.5237    1.2368 H       1  LIG1        0.0290
@<TRIPOS>BOND
     1     1     2    1
     2     2     3    1
     3     3     4    1
     4     4     5    1
     5     5     6    1
     6     6     7    1
     7     6     8    1
     8     5     9    1
     9     9    10    1
    10     2    10    1
    11     1    11    1
    12     2    12    1
    13     3    13    1
    14     3    14    1
    15     4    15    1
    16     4    16    1
    17     5    17    1
    18     6    18    1
    19     7    19    1
    20     7    20    1
    21     7    21    1
    22     8    22    1
    23     9    23    1
    24     9    24    1
    25    10    25    1
    26    10    26    1
