REMARK  Name = NuBBE_1243
REMARK  11 active torsions:
REMARK  status: ('A' for Active; 'I' for Inactive)
REMARK    1  A    between atoms: O_1  and  C_2
REMARK    2  A    between atoms: C_3  and  C_22
REMARK    3  A    between atoms: C_4  and  O_5
REMARK    4  A    between atoms: C_12  and  C_14
REMARK    5  A    between atoms: C_16  and  O_17
REMARK    6  A    between atoms: C_18  and  O_21
REMARK    7  A    between atoms: C_25  and  C_27
REMARK    8  A    between atoms: C_27  and  O_28
REMARK    9  A    between atoms: C_29  and  O_37
REMARK   10  A    between atoms: C_31  and  O_36
REMARK   11  A    between atoms: C_33  and  O_35
REMARK                            x       y       z     vdW  Elec       q    Type
REMARK                         _______ _______ _______ _____ _____    ______ ____
ROOT
ATOM      1  C   LIG A   1       0.006   1.389  -0.556  0.00  0.00    +0.140 A 
ATOM      2  C   LIG A   1      -0.075   0.236  -1.359  0.00  0.00    +0.067 A 
ATOM      3  C   LIG A   1      -0.017  -1.013  -0.710  0.00  0.00    +0.130 A 
ATOM      4  C   LIG A   1       0.121  -1.118   0.677  0.00  0.00    +0.093 A 
ATOM      5  C   LIG A   1       0.198   0.036   1.451  0.00  0.00    +0.146 A 
ATOM      6  C   LIG A   1       0.140   1.285   0.839  0.00  0.00    +0.106 A 
ATOM      7  C   LIG A   1       0.219   2.473   1.700  0.00  0.00    +0.197 A 
ATOM      8  O   LIG A   1       0.175   3.603   1.233  0.00  0.00    -0.287 OA
ATOM      9  C   LIG A   1       0.346   2.248   3.146  0.00  0.00    +0.098 A 
ATOM     10  C   LIG A   1       0.379   0.992   3.618  0.00  0.00    +0.139 A 
ATOM     11  O   LIG A   1       0.325  -0.134   2.808  0.00  0.00    -0.454 OA
ENDROOT
BRANCH  10  12
ATOM     12  C   LIG A   1       0.496   0.707   5.067  0.00  0.00    +0.021 A 
ATOM     13  C   LIG A   1       1.147  -0.459   5.512  0.00  0.00    +0.060 A 
ATOM     14  C   LIG A   1       1.249  -0.720   6.877  0.00  0.00    +0.159 A 
ATOM     15  C   LIG A   1       0.708   0.162   7.807  0.00  0.00    +0.158 A 
ATOM     16  C   LIG A   1       0.054   1.309   7.395  0.00  0.00    +0.050 A 
ATOM     17  C   LIG A   1      -0.057   1.576   6.029  0.00  0.00    +0.015 A 
BRANCH  14  18
ATOM     18  O   LIG A   1       1.879  -1.836   7.357  0.00  0.00    -0.503 OA
ATOM     19  H   LIG A   1       2.211  -2.350   6.601  0.00  0.00    +0.292 HD
ENDBRANCH  14  18
BRANCH  15  20
ATOM     20  O   LIG A   1       0.815  -0.099   9.142  0.00  0.00    -0.503 OA
ATOM     21  H   LIG A   1       1.304  -0.944   9.190  0.00  0.00    +0.292 HD
ENDBRANCH  15  20
ENDBRANCH  10  12
BRANCH   2  22
ATOM     22  C   LIG A   1      -0.216   0.342  -2.873  0.00  0.00    +0.187 C 
ATOM     23  O   LIG A   1      -1.453  -0.308  -3.232  0.00  0.00    -0.361 OA
ATOM     24  C   LIG A   1      -1.716  -0.307  -4.642  0.00  0.00    +0.175 C 
ATOM     25  C   LIG A   1      -0.613  -1.081  -5.375  0.00  0.00    +0.176 C 
ATOM     26  C   LIG A   1       0.726  -0.392  -5.113  0.00  0.00    +0.177 C 
ATOM     27  C   LIG A   1       1.009  -0.248  -3.616  0.00  0.00    +0.179 C 
BRANCH  27  28
ATOM     28  O   LIG A   1       2.167   0.592  -3.466  0.00  0.00    -0.386 OA
ATOM     29  H   LIG A   1       2.837   0.211  -4.068  0.00  0.00    +0.210 HD
ENDBRANCH  27  28
BRANCH  26  30
ATOM     30  O   LIG A   1       1.797  -1.133  -5.726  0.00  0.00    -0.387 OA
ATOM     31  H   LIG A   1       1.415  -1.543  -6.528  0.00  0.00    +0.210 HD
ENDBRANCH  26  30
BRANCH  25  32
ATOM     32  O   LIG A   1      -0.815  -1.140  -6.794  0.00  0.00    -0.387 OA
ATOM     33  H   LIG A   1      -0.912  -0.234  -7.136  0.00  0.00    +0.210 HD
ENDBRANCH  25  32
BRANCH  24  34
ATOM     34  C   LIG A   1      -3.103  -0.927  -4.854  0.00  0.00    +0.190 C 
BRANCH  34  35
ATOM     35  O   LIG A   1      -3.155  -2.255  -4.336  0.00  0.00    -0.392 OA
ATOM     36  H   LIG A   1      -2.789  -2.196  -3.432  0.00  0.00    +0.209 HD
ENDBRANCH  34  35
ENDBRANCH  24  34
ENDBRANCH   2  22
BRANCH   1  37
ATOM     37  O   LIG A   1      -0.056   2.616  -1.170  0.00  0.00    -0.505 OA
ATOM     38  H   LIG A   1       0.039   3.317  -0.487  0.00  0.00    +0.292 HD
ENDBRANCH   1  37
BRANCH   3  39
ATOM     39  O   LIG A   1      -0.100  -2.159  -1.454  0.00  0.00    -0.506 OA
ATOM     40  H   LIG A   1      -0.041  -2.933  -0.870  0.00  0.00    +0.292 HD
ENDBRANCH   3  39
TORSDOF 11
