@<TRIPOS>MOLECULE
NuBBE_1240
 35 37 0 0 0
SMALL
GASTEIGER

@<TRIPOS>ATOM
      1 O          -3.5873    0.5888   -0.5751 O.2     1  LIG1       -0.2871
      2 C          -2.3882    0.4413   -0.3704 C.ar    1  LIG1        0.1900
      3 C          -1.4994    1.6113   -0.2801 C.ar    1  LIG1        0.0098
      4 C          -0.2012    1.4195   -0.0043 C.ar    1  LIG1        0.0529
      5 C           0.6303    2.6378    0.0260 C.ar    1  LIG1       -0.0014
      6 C           1.2655    3.0806   -1.1425 C.ar    1  LIG1       -0.0526
      7 C           2.0491    4.2354   -1.1229 C.ar    1  LIG1       -0.0611
      8 C           2.2026    4.9533    0.0627 C.ar    1  LIG1       -0.0617
      9 C           1.5705    4.5214    1.2288 C.ar    1  LIG1       -0.0611
     10 C           0.7826    3.3690    1.2113 C.ar    1  LIG1       -0.0526
     11 N           0.3846    0.1703    0.2176 N.ar    1  LIG1       -0.3426
     12 C           1.7901   -0.0154    0.5959 C.3     1  LIG1        0.0124
     13 C          -0.3988   -1.0046    0.0522 C.ar    1  LIG1        0.0564
     14 C           0.1250   -2.3073    0.1434 C.ar    1  LIG1        0.0043
     15 C          -0.6751   -3.4491   -0.0245 C.ar    1  LIG1        0.1221
     16 O          -0.0014   -4.6348    0.0934 O.3     1  LIG1       -0.4950
     17 C          -0.7597   -5.8265   -0.0750 C.3     1  LIG1        0.0788
     18 C          -2.0338   -3.3060   -0.2893 C.ar    1  LIG1       -0.0192
     19 C          -2.5847   -2.0299   -0.3931 C.ar    1  LIG1       -0.0455
     20 C          -1.7744   -0.8974   -0.2293 C.ar    1  LIG1        0.0454
     21 H          -1.9481    2.5812   -0.4524 H       1  LIG1        0.0677
     22 H           1.1507    2.5259   -2.0712 H       1  LIG1        0.0624
     23 H           2.5380    4.5751   -2.0323 H       1  LIG1        0.0618
     24 H           2.8137    5.8523    0.0772 H       1  LIG1        0.0618
     25 H           1.6902    5.0831    2.1516 H       1  LIG1        0.0618
     26 H           0.2936    3.0386    2.1248 H       1  LIG1        0.0624
     27 H           2.2942    0.9195    0.8573 H       1  LIG1        0.0456
     28 H           2.3547   -0.4640   -0.2290 H       1  LIG1        0.0456
     29 H           1.8762   -0.6495    1.4862 H       1  LIG1        0.0456
     30 H           1.1799   -2.4759    0.3393 H       1  LIG1        0.0675
     31 H          -0.0792   -6.6750    0.0444 H       1  LIG1        0.0660
     32 H          -1.1888   -5.8828   -1.0809 H       1  LIG1        0.0660
     33 H          -1.5360   -5.9113    0.6926 H       1  LIG1        0.0660
     34 H          -2.6895   -4.1593   -0.4250 H       1  LIG1        0.0654
     35 H          -3.6456   -1.9158   -0.6073 H       1  LIG1        0.0626
@<TRIPOS>BOND
     1     1     2    2
     2     2     3   ar
     3     3     4   ar
     4     4     5    1
     5     5     6   ar
     6     6     7   ar
     7     7     8   ar
     8     8     9   ar
     9     9    10   ar
    10     5    10   ar
    11     4    11   ar
    12    11    12    1
    13    11    13   ar
    14    13    14   ar
    15    14    15   ar
    16    15    16    1
    17    16    17    1
    18    15    18   ar
    19    18    19   ar
    20    19    20   ar
    21    13    20   ar
    22     2    20   ar
    23     3    21    1
    24     6    22    1
    25     7    23    1
    26     8    24    1
    27     9    25    1
    28    10    26    1
    29    12    27    1
    30    12    28    1
    31    12    29    1
    32    14    30    1
    33    17    31    1
    34    17    32    1
    35    17    33    1
    36    18    34    1
    37    19    35    1
