REMARK  Name = NuBBE_1110
REMARK  10 active torsions:
REMARK  status: ('A' for Active; 'I' for Inactive)
REMARK    1  A    between atoms: O_1  and  C_2
REMARK    2  A    between atoms: C_6  and  C_7
REMARK    3  A    between atoms: C_11  and  C_12
REMARK    4  A    between atoms: C_13  and  C_14
REMARK    5  A    between atoms: C_18  and  C_19
REMARK    6  A    between atoms: C_22  and  C_23
REMARK    7  A    between atoms: C_26  and  C_27
REMARK    8  A    between atoms: C_26  and  C_28
REMARK    9  A    between atoms: C_31  and  C_32
REMARK   10  A    between atoms: C_31  and  C_33
REMARK                            x       y       z     vdW  Elec       q    Type
REMARK                         _______ _______ _______ _____ _____    ______ ____
ROOT
ATOM      1  C   LIG A   1       3.354   0.346  -4.286  0.00  0.00    +0.120 C 
ATOM      2  C   LIG A   1       3.442   1.756  -3.703  0.00  0.00    +0.032 C 
ATOM      3  C   LIG A   1       2.453   1.980  -2.581  0.00  0.00    +0.010 C 
ATOM      4  C   LIG A   1       2.490   0.877  -1.469  0.00  0.00    -0.023 C 
ATOM      5  C   LIG A   1       3.668   1.321  -0.571  0.00  0.00    +0.012 C 
ATOM      6  C   LIG A   1       2.740  -0.539  -2.210  0.00  0.00    +0.004 C 
ATOM      7  C   LIG A   1       2.416  -1.785  -1.353  0.00  0.00    +0.005 C 
ATOM      8  C   LIG A   1       1.003  -1.704  -0.857  0.00  0.00    +0.008 C 
ATOM      9  C   LIG A   1       0.776  -0.531   0.135  0.00  0.00    -0.020 C 
ATOM     10  C   LIG A   1       1.769  -0.766   1.326  0.00  0.00    +0.012 C 
ATOM     11  C   LIG A   1       1.037   0.868  -0.612  0.00  0.00    -0.021 C 
ATOM     12  C   LIG A   1      -0.101   1.221  -1.626  0.00  0.00    +0.012 C 
ATOM     13  C   LIG A   1       0.902   1.984   0.477  0.00  0.00    +0.008 C 
ATOM     14  C   LIG A   1      -0.497   2.054   1.158  0.00  0.00    +0.009 C 
ATOM     15  C   LIG A   1      -1.020   0.737   1.736  0.00  0.00    +0.022 C 
ATOM     16  C   LIG A   1      -0.709  -0.625   0.721  0.00  0.00    -0.020 C 
ATOM     17  C   LIG A   1      -1.706  -1.027  -0.456  0.00  0.00    +0.012 C 
ATOM     18  C   LIG A   1      -0.826  -1.869   1.636  0.00  0.00    +0.008 C 
ATOM     19  C   LIG A   1      -2.219  -1.922   2.166  0.00  0.00    +0.011 C 
ATOM     20  C   LIG A   1      -2.764  -0.521   2.448  0.00  0.00    -0.011 C 
ATOM     21  C   LIG A   1      -2.157  -0.507   4.094  0.00  0.00    +0.016 C 
ATOM     22  C   LIG A   1      -2.408   0.953   2.538  0.00  0.00    -0.063 C 
ATOM     23  C   LIG A   1      -3.645   1.102   3.221  0.00  0.00    -0.021 C 
ATOM     24  C   LIG A   1      -5.065   0.249   2.816  0.00  0.00    -0.017 C 
ATOM     25  C   LIG A   1      -6.195   0.462   3.804  0.00  0.00    +0.015 C 
ATOM     26  C   LIG A   1      -5.360  -1.288   2.364  0.00  0.00    +0.015 C 
ATOM     27  C   LIG A   1      -5.025   0.899   1.468  0.00  0.00    +0.011 C 
ATOM     28  C   LIG A   1      -3.691   0.207   1.039  0.00  0.00    +0.012 C 
ATOM     29  C   LIG A   1       3.971  -0.843  -3.313  0.00  0.00    -0.006 C 
ATOM     30  C   LIG A   1       5.008  -1.148  -2.092  0.00  0.00    +0.014 C 
ATOM     31  C   LIG A   1       5.360  -0.577  -4.111  0.00  0.00    +0.014 C 
ENDROOT
BRANCH   1  32
ATOM     32  O   LIG A   1       2.035  -0.020  -4.761  0.00  0.00    -0.391 OA
ATOM     33  H   LIG A   1       1.413   0.705  -4.597  0.00  0.00    +0.210 HD
ENDBRANCH   1  32
TORSDOF 1
