@<TRIPOS>MOLECULE
NuBBE_1072
 84 88 0 0 0
SMALL
GASTEIGER

@<TRIPOS>ATOM
      1 O           3.0136   -0.6308   -4.9584 O.3     1  LIG1       -0.3912
      2 C           4.0436   -0.3037   -4.0195 C.3     1  LIG1        0.0606
      3 H           4.9757   -0.3095   -4.5976 H       1  LIG1        0.0599
      4 C           3.7999    1.1175   -3.5187 C.3     1  LIG1       -0.0258
      5 C           2.6027    1.2247   -2.5679 C.3     1  LIG1       -0.0447
      6 C           2.6512    0.2477   -1.3505 C.3     1  LIG1       -0.0252
      7 C           3.7526    0.7643   -0.3942 C.3     1  LIG1       -0.0590
      8 C           2.9109   -1.2035   -1.9062 C.3     1  LIG1       -0.0278
      9 C           2.8374   -2.2516   -0.7779 C.3     1  LIG1       -0.0486
     10 C           1.4501   -2.2633   -0.1235 C.3     1  LIG1       -0.0466
     11 C           0.9855   -0.8923    0.4520 C.3     1  LIG1       -0.0231
     12 C           1.8387   -0.6333    1.7286 C.3     1  LIG1       -0.0588
     13 C           1.2196    0.2180   -0.6497 C.3     1  LIG1       -0.0294
     14 C           0.7073    1.5807   -0.1621 C.3     1  LIG1       -0.0489
     15 C          -0.7718    1.5390    0.2294 C.3     1  LIG1       -0.0491
     16 C          -1.1002    0.4884    1.2964 C.3     1  LIG1       -0.0314
     17 C          -0.6004   -0.9299    0.8535 C.3     1  LIG1       -0.0233
     18 C          -1.4481   -1.4367   -0.3483 C.3     1  LIG1       -0.0588
     19 C          -0.8358   -1.8556    2.0737 C.3     1  LIG1       -0.0464
     20 C          -2.2992   -2.0667    2.4027 C.3     1  LIG1       -0.0468
     21 C          -3.1444   -0.7789    2.5031 C.3     1  LIG1       -0.0286
     22 C          -3.4999   -0.5621    3.9959 C.3     1  LIG1       -0.0593
     23 C          -2.5528    0.5693    1.9330 C.3     1  LIG1       -0.0269
     24 C          -3.7222    1.2545    1.1229 C.3     1  LIG1       -0.0090
     25 H          -3.4892    1.2090    0.0530 H       1  LIG1        0.0331
     26 C          -4.1045    2.7341    1.5081 C.3     1  LIG1        0.0636
     27 C          -5.3068    3.2200    0.6750 C.3     1  LIG1       -0.0361
     28 O          -4.4878    2.7680    2.8903 O.3     1  LIG1       -0.3888
     29 C          -2.9861    3.7600    1.3512 C.3     1  LIG1       -0.0361
     30 C          -4.9614    0.3625    1.3774 C.3     1  LIG1       -0.0468
     31 C          -4.4434   -1.0106    1.7073 C.3     1  LIG1       -0.0470
     32 C           4.1345   -1.3654   -2.8824 C.3     1  LIG1       -0.0056
     33 C           5.5012   -1.2503   -2.1777 C.3     1  LIG1       -0.0572
     34 C           4.1025   -2.7736   -3.5371 C.3     1  LIG1       -0.0572
     35 H           2.1588   -0.6248   -4.4997 H       1  LIG1        0.2098
     36 H           3.6081    1.7761   -4.3754 H       1  LIG1        0.0290
     37 H           4.7043    1.5012   -3.0365 H       1  LIG1        0.0290
     38 H           1.6846    1.0518   -3.1438 H       1  LIG1        0.0271
     39 H           2.5509    2.2633   -2.2194 H       1  LIG1        0.0271
     40 H           4.5333    1.3262   -0.9133 H       1  LIG1        0.0235
     41 H           4.2683   -0.0372    0.1367 H       1  LIG1        0.0235
     42 H           3.3600    1.4594    0.3521 H       1  LIG1        0.0235
     43 H           2.0364   -1.4273   -2.5384 H       1  LIG1        0.0312
     44 H           3.6167   -2.0970   -0.0274 H       1  LIG1        0.0268
     45 H           3.0042   -3.2572   -1.1771 H       1  LIG1        0.0268
     46 H           1.4481   -3.0294    0.6607 H       1  LIG1        0.0271
     47 H           0.7485   -2.6124   -0.8883 H       1  LIG1        0.0271
     48 H           2.9090   -0.6489    1.5373 H       1  LIG1        0.0235
     49 H           1.6934   -1.4192    2.4766 H       1  LIG1        0.0235
     50 H           1.6150    0.3227    2.2062 H       1  LIG1        0.0235
     51 H           0.5554   -0.0375   -1.4840 H       1  LIG1        0.0312
     52 H           0.8103    2.3383   -0.9451 H       1  LIG1        0.0268
     53 H           1.2897    1.9436    0.6905 H       1  LIG1        0.0268
     54 H          -1.3805    1.3894   -0.6684 H       1  LIG1        0.0268
     55 H          -0.9890    2.5302    0.6123 H       1  LIG1        0.0268
     56 H          -0.4637    0.7613    2.1514 H       1  LIG1        0.0309
     57 H          -1.1438   -1.0164   -1.3076 H       1  LIG1        0.0235
     58 H          -2.4999   -1.1730   -0.2532 H       1  LIG1        0.0235
     59 H          -1.3970   -2.5271   -0.4406 H       1  LIG1        0.0235
     60 H          -0.3617   -1.4412    2.9712 H       1  LIG1        0.0271
     61 H          -0.3830   -2.8391    1.9066 H       1  LIG1        0.0271
     62 H          -2.3575   -2.6406    3.3375 H       1  LIG1        0.0271
     63 H          -2.7175   -2.7515    1.6540 H       1  LIG1        0.0271
     64 H          -4.0256   -1.4299    4.4108 H       1  LIG1        0.0235
     65 H          -4.1474    0.3082    4.1431 H       1  LIG1        0.0235
     66 H          -2.5920   -0.4055    4.5897 H       1  LIG1        0.0235
     67 H          -2.3938    1.2305    2.7982 H       1  LIG1        0.0312
     68 H          -5.5502    4.2632    0.9095 H       1  LIG1        0.0257
     69 H          -6.2157    2.6523    0.8989 H       1  LIG1        0.0257
     70 H          -5.1019    3.1501   -0.3983 H       1  LIG1        0.0257
     71 H          -4.7950    3.6669    3.0986 H       1  LIG1        0.2101
     72 H          -3.3331    4.7611    1.6371 H       1  LIG1        0.0257
     73 H          -2.6380    3.8217    0.3163 H       1  LIG1        0.0257
     74 H          -2.1536    3.5463    2.0285 H       1  LIG1        0.0257
     75 H          -5.6171    0.3334    0.5000 H       1  LIG1        0.0269
     76 H          -5.5685    0.7184    2.2170 H       1  LIG1        0.0269
     77 H          -4.2711   -1.5507    0.7713 H       1  LIG1        0.0271
     78 H          -5.1822   -1.5937    2.2689 H       1  LIG1        0.0271
     79 H           5.5754   -1.9321   -1.3246 H       1  LIG1        0.0236
     80 H           5.7187   -0.2418   -1.8259 H       1  LIG1        0.0236
     81 H           6.3131   -1.5123   -2.8675 H       1  LIG1        0.0236
     82 H           3.1098   -3.0153   -3.9324 H       1  LIG1        0.0236
     83 H           4.3794   -3.5602   -2.8275 H       1  LIG1        0.0236
     84 H           4.8144   -2.8342   -4.3690 H       1  LIG1        0.0236
@<TRIPOS>BOND
     1     2     4    1
     2     4     5    1
     3     5     6    1
     4     6     8    1
     5     8     9    1
     6     9    10    1
     7    10    11    1
     8    11    13    1
     9     6    13    1
    10    13    14    1
    11    14    15    1
    12    15    16    1
    13    16    17    1
    14    11    17    1
    15    17    19    1
    16    19    20    1
    17    20    21    1
    18    21    23    1
    19    16    23    1
    20    23    24    1
    21    26    27    1
    22    26    28    1
    23    26    29    1
    24    24    30    1
    25    30    31    1
    26    21    31    1
    27     8    32    1
    28     2    32    1
    29     1     2    1
    30     2     3    1
    31     6     7    1
    32    11    12    1
    33    17    18    1
    34    21    22    1
    35    32    33    1
    36    32    34    1
    37    24    26    1
    38    24    25    1
    39     1    35    1
    40     4    36    1
    41     4    37    1
    42     5    38    1
    43     5    39    1
    44     7    40    1
    45     7    41    1
    46     7    42    1
    47     8    43    1
    48     9    44    1
    49     9    45    1
    50    10    46    1
    51    10    47    1
    52    12    48    1
    53    12    49    1
    54    12    50    1
    55    13    51    1
    56    14    52    1
    57    14    53    1
    58    15    54    1
    59    15    55    1
    60    16    56    1
    61    18    57    1
    62    18    58    1
    63    18    59    1
    64    19    60    1
    65    19    61    1
    66    20    62    1
    67    20    63    1
    68    22    64    1
    69    22    65    1
    70    22    66    1
    71    23    67    1
    72    27    68    1
    73    27    69    1
    74    27    70    1
    75    28    71    1
    76    29    72    1
    77    29    73    1
    78    29    74    1
    79    30    75    1
    80    30    76    1
    81    31    77    1
    82    31    78    1
    83    33    79    1
    84    33    80    1
    85    33    81    1
    86    34    82    1
    87    34    83    1
    88    34    84    1
