REMARK  Name = NuBBE_1505
REMARK  18 active torsions:
REMARK  status: ('A' for Active; 'I' for Inactive)
REMARK    1  A    between atoms: C_1  and  C_2
REMARK    2  A    between atoms: C_1  and  C_18
REMARK    3  A    between atoms: C_2  and  C_3
REMARK    4  A    between atoms: C_3  and  C_5
REMARK    5  A    between atoms: C_5  and  C_6
REMARK    6  A    between atoms: C_6  and  C_8
REMARK    7  A    between atoms: C_6  and  O_17
REMARK    8  A    between atoms: C_8  and  C_9
REMARK    9  A    between atoms: C_9  and  C_10
REMARK   10  A    between atoms: C_10  and  C_11
REMARK   11  A    between atoms: C_11  and  C_12
REMARK   12  A    between atoms: C_12  and  C_13
REMARK   13  A    between atoms: C_13  and  C_14
REMARK   14  A    between atoms: C_14  and  C_15
REMARK   15  A    between atoms: C_15  and  C_16
REMARK   16  A    between atoms: C_20  and  O_21
REMARK   17  A    between atoms: O_21  and  C_22
REMARK   18  A    between atoms: C_23  and  O_26
REMARK                            x       y       z     vdW  Elec       q    Type
REMARK                         _______ _______ _______ _____ _____    ______ ____
ROOT
ATOM      1  C   LIG A   1       2.063   0.364  -2.552  0.00  0.00    +0.136 C 
ATOM      2  O   LIG A   1       3.266   0.262  -2.765  0.00  0.00    -0.297 OA
ENDROOT
BRANCH   1   3
ATOM      3  C   LIG A   1       1.329  -0.634  -1.658  0.00  0.00    +0.105 C 
BRANCH   3   4
ATOM      4  C   LIG A   1       1.325  -0.212  -0.186  0.00  0.00    +0.122 C 
BRANCH   4   5
ATOM      5  O   LIG A   1       0.717   1.072  -0.080  0.00  0.00    -0.391 OA
ATOM      6  H   LIG A   1       1.030   1.470   0.752  0.00  0.00    +0.210 HD
ENDBRANCH   4   5
BRANCH   4   7
ATOM      7  C   LIG A   1       0.542  -1.225   0.676  0.00  0.00    +0.032 C 
BRANCH   7   8
ATOM      8  C   LIG A   1       0.551  -0.911   2.183  0.00  0.00    +0.002 C 
BRANCH   8   9
ATOM      9  C   LIG A   1      -0.262  -1.914   3.020  0.00  0.00    +0.000 C 
BRANCH   9  10
ATOM     10  C   LIG A   1       0.247  -3.357   2.929  0.00  0.00    -0.000 C 
BRANCH  10  11
ATOM     11  C   LIG A   1      -0.576  -4.353   3.753  0.00  0.00    -0.000 C 
BRANCH  11  12
ATOM     12  C   LIG A   1      -2.053  -4.447   3.348  0.00  0.00    -0.000 C 
BRANCH  12  13
ATOM     13  C   LIG A   1      -2.838  -5.464   4.187  0.00  0.00    -0.000 C 
BRANCH  13  14
ATOM     14  C   LIG A   1      -2.853  -5.102   5.675  0.00  0.00    -0.003 C 
ATOM     15  C   LIG A   1      -3.640  -6.099   6.507  0.00  0.00    +0.004 C 
ENDBRANCH  13  14
ENDBRANCH  12  13
ENDBRANCH  11  12
ENDBRANCH  10  11
ENDBRANCH   9  10
ENDBRANCH   8   9
ENDBRANCH   7   8
ENDBRANCH   4   7
ENDBRANCH   3   4
ENDBRANCH   1   3
BRANCH   1  16
ATOM     16  C   LIG A   1       1.232   1.472  -3.188  0.00  0.00    +0.079 C 
BRANCH  16  17
ATOM     17  C   LIG A   1       1.808   2.847  -2.862  0.00  0.00    +0.042 C 
BRANCH  17  18
ATOM     18  C   LIG A   1       1.014   3.992  -3.457  0.00  0.00    -0.043 A 
ATOM     19  C   LIG A   1       1.627   4.873  -4.367  0.00  0.00    +0.053 A 
ATOM     20  C   LIG A   1       0.923   5.957  -4.898  0.00  0.00    +0.162 A 
ATOM     21  C   LIG A   1      -0.405   6.154  -4.506  0.00  0.00    +0.159 A 
ATOM     22  C   LIG A   1      -1.030   5.301  -3.608  0.00  0.00    +0.049 A 
ATOM     23  C   LIG A   1      -0.320   4.220  -3.081  0.00  0.00    +0.007 A 
BRANCH  21  24
ATOM     24  O   LIG A   1      -1.121   7.210  -5.004  0.00  0.00    -0.503 OA
ATOM     25  H   LIG A   1      -0.502   7.671  -5.604  0.00  0.00    +0.292 HD
ENDBRANCH  21  24
BRANCH  20  26
ATOM     26  O   LIG A   1       1.410   6.883  -5.785  0.00  0.00    -0.491 OA
ATOM     27  C   LIG A   1       2.759   6.709  -6.203  0.00  0.00    +0.277 C 
ENDBRANCH  20  26
ENDBRANCH  17  18
ENDBRANCH  16  17
ENDBRANCH   1  16
TORSDOF 16
