@<TRIPOS>MOLECULE
NuBBE_1022
 41 42 0 0 0
SMALL
GASTEIGER

@<TRIPOS>ATOM
      1 C          -3.3791    1.2603   -2.1421 C.3     1  LIG1       -0.0215
      2 C          -2.0526    0.8532   -2.8034 C.3     1  LIG1        0.1237
      3 C          -2.3375    0.4129   -4.2491 C.3     1  LIG1       -0.0215
      4 O          -1.5457   -0.3222   -2.1347 O.3     1  LIG1       -0.4778
      5 C          -0.7735   -0.1080   -1.0147 C.ar    1  LIG1        0.1737
      6 C          -0.0217    1.0800   -0.8170 C.ar    1  LIG1        0.0620
      7 C           0.7471    1.2694    0.3844 C.ar    1  LIG1        0.1341
      8 O           1.3696    2.4932    0.5431 O.3     1  LIG1       -0.4941
      9 C           2.5599    2.5609    1.3302 C.3     1  LIG1        0.0788
     10 C           0.7480    0.2483    1.3519 C.ar    1  LIG1       -0.0009
     11 C           1.4154    0.2404    2.7095 C.3     1  LIG1       -0.0140
     12 C           2.6175   -0.6853    2.8559 C.3     1  LIG1        0.0489
     13 C           2.2032   -2.1109    2.8999 C.2     1  LIG1        0.3050
     14 O           1.7569   -2.4969    4.0898 O.3     1  LIG1       -0.4806
     15 O           2.1488   -2.8974    1.9269 O.2     1  LIG1       -0.2510
     16 C           0.0099   -0.9161    1.0808 C.ar    1  LIG1       -0.0096
     17 H          -0.0040   -1.6789    1.8443 H       1  LIG1        0.0659
     18 C          -0.7086   -1.1400   -0.0837 C.ar    1  LIG1        0.1626
     19 O          -1.3792   -2.3219   -0.2923 O.3     1  LIG1       -0.4914
     20 C          -0.7740   -3.4645    0.3306 C.3     1  LIG1        0.0790
     21 C          -0.0322    2.0371   -1.9378 C.2     1  LIG1       -0.0477
     22 C          -1.0285    1.9661   -2.8342 C.2     1  LIG1       -0.0408
     23 H          -4.0812    0.4159   -2.1415 H       1  LIG1        0.0271
     24 H          -3.8600    2.1003   -2.6552 H       1  LIG1        0.0271
     25 H          -3.2389    1.5359   -1.0909 H       1  LIG1        0.0271
     26 H          -2.9928   -0.4659   -4.2707 H       1  LIG1        0.0271
     27 H          -1.4110    0.1188   -4.7563 H       1  LIG1        0.0271
     28 H          -2.8109    1.2083   -4.8374 H       1  LIG1        0.0271
     29 H           2.3477    2.6896    2.3941 H       1  LIG1        0.0660
     30 H           3.0958    3.4885    1.1261 H       1  LIG1        0.0660
     31 H           3.2261    1.7150    1.1234 H       1  LIG1        0.0660
     32 H           0.6588    0.0836    3.4892 H       1  LIG1        0.0320
     33 H           1.7799    1.2028    2.9920 H       1  LIG1        0.0320
     34 H           3.1282   -0.4647    3.7986 H       1  LIG1        0.0381
     35 H           3.3640   -0.5479    2.0644 H       1  LIG1        0.0381
     36 H           1.4449   -3.4179    3.9529 H       1  LIG1        0.2951
     37 H          -1.3523   -4.3552    0.0744 H       1  LIG1        0.0660
     38 H          -0.7946   -3.4106    1.4260 H       1  LIG1        0.0660
     39 H           0.2527   -3.6008   -0.0280 H       1  LIG1        0.0660
     40 H           0.7787    2.7485   -2.0429 H       1  LIG1        0.0624
     41 H          -1.0746    2.6761   -3.6569 H       1  LIG1        0.0611
@<TRIPOS>BOND
     1     1     2    1
     2     2     3    1
     3     2     4    1
     4     4     5    1
     5     5     6   ar
     6     6     7   ar
     7     7     8    1
     8     8     9    1
     9     7    10   ar
    10    10    11    1
    11    11    12    1
    12    12    13    1
    13    13    14    1
    14    13    15    2
    15    10    16   ar
    16    16    17    1
    17    16    18   ar
    18     5    18   ar
    19    18    19    1
    20    19    20    1
    21     6    21    1
    22    21    22    2
    23     2    22    1
    24     1    23    1
    25     1    24    1
    26     1    25    1
    27     3    26    1
    28     3    27    1
    29     3    28    1
    30     9    29    1
    31     9    30    1
    32     9    31    1
    33    11    32    1
    34    11    33    1
    35    12    34    1
    36    12    35    1
    37    14    36    1
    38    20    37    1
    39    20    38    1
    40    20    39    1
    41    21    40    1
    42    22    41    1
