@<TRIPOS>MOLECULE
NuBBE_375
 39 41 0 0 0
SMALL
GASTEIGER

@<TRIPOS>ATOM
      1 O          -2.9308   -2.2962    1.7058 O.2     1  LIG1       -0.2706
      2 C          -2.6578   -1.1035    1.7429 C.2     1  LIG1        0.2391
      3 N          -3.1550   -0.2413    2.6962 N.am    1  LIG1       -0.2980
      4 C          -4.0533   -0.7144    3.7361 C.3     1  LIG1        0.0150
      5 C          -4.6029    0.5556    4.3735 C.3     1  LIG1       -0.0357
      6 C          -3.4712    1.5557    4.1825 C.3     1  LIG1       -0.0357
      7 C          -2.9282    1.1911    2.8116 C.3     1  LIG1        0.0150
      8 C          -1.7428   -0.4879    0.7415 C.2     1  LIG1       -0.0036
      9 C          -0.9439   -1.2305   -0.0405 C.2     1  LIG1       -0.0788
     10 C          -0.0307   -0.6189   -1.0667 C.3     1  LIG1       -0.0303
     11 C           1.4419   -0.9484   -0.7976 C.3     1  LIG1       -0.0241
     12 C           2.3756   -0.3318   -1.8164 C.ar    1  LIG1       -0.0434
     13 C           2.4409    1.0730   -1.9750 C.ar    1  LIG1       -0.0549
     14 C           3.3105    1.6572   -2.9015 C.ar    1  LIG1       -0.0159
     15 C           4.1127    0.8193   -3.6424 C.ar    1  LIG1        0.1662
     16 C           4.0668   -0.5458   -3.4905 C.ar    1  LIG1        0.1665
     17 O           4.9460   -1.1876   -4.3061 O.3     1  LIG1       -0.4526
     18 C           5.5641   -0.0672   -4.9727 C.3     1  LIG1        0.2332
     19 O           5.0233    1.2092   -4.5737 O.3     1  LIG1       -0.4526
     20 C           3.2120   -1.1510   -2.5920 C.ar    1  LIG1       -0.0130
     21 H          -3.4661   -1.2993    4.4532 H       1  LIG1        0.0465
     22 H          -4.8385   -1.3505    3.3171 H       1  LIG1        0.0465
     23 H          -4.8770    0.4189    5.4229 H       1  LIG1        0.0281
     24 H          -5.4908    0.8948    3.8266 H       1  LIG1        0.0281
     25 H          -2.6990    1.3954    4.9443 H       1  LIG1        0.0281
     26 H          -3.8002    2.5968    4.2388 H       1  LIG1        0.0281
     27 H          -1.8692    1.4434    2.7072 H       1  LIG1        0.0465
     28 H          -3.4992    1.6783    2.0132 H       1  LIG1        0.0465
     29 H          -1.7417    0.5874    0.6434 H       1  LIG1        0.0666
     30 H          -0.9526   -2.3164    0.0455 H       1  LIG1        0.0574
     31 H          -0.1728    0.4690   -1.0853 H       1  LIG1        0.0311
     32 H          -0.3227   -0.9836   -2.0585 H       1  LIG1        0.0311
     33 H           1.5715   -2.0385   -0.7887 H       1  LIG1        0.0316
     34 H           1.7400   -0.5959    0.1984 H       1  LIG1        0.0316
     35 H           1.8130    1.7221   -1.3680 H       1  LIG1        0.0621
     36 H           3.3592    2.7327   -3.0273 H       1  LIG1        0.0655
     37 H           5.4281   -0.1834   -6.0539 H       1  LIG1        0.1166
     38 H           6.6377   -0.0763   -4.7507 H       1  LIG1        0.1166
     39 H           3.2030   -2.2314   -2.4933 H       1  LIG1        0.0658
@<TRIPOS>BOND
     1     1     2    2
     2     2     3   am
     3     3     4    1
     4     4     5    1
     5     5     6    1
     6     6     7    1
     7     3     7    1
     8     2     8    1
     9     8     9    2
    10     9    10    1
    11    10    11    1
    12    11    12    1
    13    12    13   ar
    14    13    14   ar
    15    14    15   ar
    16    15    16   ar
    17    16    17    1
    18    17    18    1
    19    18    19    1
    20    15    19    1
    21    16    20   ar
    22    12    20   ar
    23     4    21    1
    24     4    22    1
    25     5    23    1
    26     5    24    1
    27     6    25    1
    28     6    26    1
    29     7    27    1
    30     7    28    1
    31     8    29    1
    32     9    30    1
    33    10    31    1
    34    10    32    1
    35    11    33    1
    36    11    34    1
    37    13    35    1
    38    14    36    1
    39    18    37    1
    40    18    38    1
    41    20    39    1
