REMARK  Name = NuBBE_1459
REMARK  7 active torsions:
REMARK  status: ('A' for Active; 'I' for Inactive)
REMARK    1  A    between atoms: C_10  and  C_11
REMARK    2  A    between atoms: C_10  and  C_13
REMARK    3  A    between atoms: C_20  and  O_21
REMARK    4  A    between atoms: O_21  and  C_22
REMARK    5  A    between atoms: C_23  and  O_29
REMARK    6  A    between atoms: C_27  and  O_28
REMARK    7  A    between atoms: O_29  and  C_30
REMARK                            x       y       z     vdW  Elec       q    Type
REMARK                         _______ _______ _______ _____ _____    ______ ____
ROOT
ATOM      1  O   LIG A   1       0.143  -2.613   0.533  0.00  0.00    -0.286 OA
ATOM      2  C   LIG A   1      -0.075  -1.490   0.096  0.00  0.00    +0.201 A 
ATOM      3  C   LIG A   1      -1.440  -0.940   0.153  0.00  0.00    +0.065 A 
ATOM      4  C   LIG A   1      -2.457  -1.643   0.807  0.00  0.00    +0.019 A 
ATOM      5  C   LIG A   1      -3.728  -1.081   0.911  0.00  0.00    +0.047 A 
ATOM      6  C   LIG A   1      -3.976   0.182   0.372  0.00  0.00    +0.132 A 
ATOM      7  C   LIG A   1      -2.974   0.876  -0.319  0.00  0.00    +0.059 A 
ATOM      8  C   LIG A   1      -3.299   2.173  -0.907  0.00  0.00    +0.015 C 
ATOM      9  C   LIG A   1      -4.459   2.743  -0.564  0.00  0.00    +0.020 C 
ATOM     10  C   LIG A   1      -5.438   2.089   0.385  0.00  0.00    +0.123 C 
ATOM     11  C   LIG A   1      -6.862   2.256  -0.156  0.00  0.00    +0.060 C 
ATOM     12  O   LIG A   1      -5.244   0.667   0.546  0.00  0.00    -0.481 OA
ATOM     13  C   LIG A   1      -5.337   2.739   1.771  0.00  0.00    +0.060 C 
ATOM     14  C   LIG A   1      -1.696   0.302  -0.422  0.00  0.00    +0.150 A 
ATOM     15  O   LIG A   1      -0.720   1.001  -1.087  0.00  0.00    -0.452 OA
ATOM     16  C   LIG A   1       0.588   0.554  -1.018  0.00  0.00    +0.185 A 
ATOM     17  C   LIG A   1       0.982  -0.608  -0.469  0.00  0.00    +0.077 A 
ATOM     18  C   LIG A   1       2.432  -0.881  -0.444  0.00  0.00    +0.035 A 
ATOM     19  C   LIG A   1       2.982  -2.128  -0.111  0.00  0.00    +0.061 A 
ATOM     20  C   LIG A   1       4.370  -2.306   0.000  0.00  0.00    +0.162 A 
ATOM     21  C   LIG A   1       5.235  -1.230  -0.249  0.00  0.00    +0.165 A 
ATOM     22  C   LIG A   1       4.702   0.002  -0.624  0.00  0.00    +0.095 A 
ATOM     23  C   LIG A   1       3.318   0.168  -0.725  0.00  0.00    +0.136 A 
ATOM     24  O   LIG A   1       2.907   1.426  -1.073  0.00  0.00    -0.456 OA
ATOM     25  C   LIG A   1       1.582   1.526  -1.595  0.00  0.00    +0.373 C 
ENDROOT
BRANCH  20  26
ATOM     26  O   LIG A   1       4.956  -3.503   0.330  0.00  0.00    -0.491 OA
ATOM     27  C   LIG A   1       4.188  -4.366   1.161  0.00  0.00    +0.277 C 
ENDBRANCH  20  26
BRANCH  25  28
ATOM     28  O   LIG A   1       1.602   1.423  -3.014  0.00  0.00    -0.352 OA
ATOM     29  H   LIG A   1       1.697   0.478  -3.217  0.00  0.00    +0.214 HD
ENDBRANCH  25  28
BRANCH  21  30
ATOM     30  O   LIG A   1       6.580  -1.472  -0.132  0.00  0.00    -0.491 OA
ATOM     31  C   LIG A   1       7.374  -0.361   0.268  0.00  0.00    +0.277 C 
ENDBRANCH  21  30
TORSDOF 3
