REMARK  Name = NuBBE_1986
REMARK  4 active torsions:
REMARK  status: ('A' for Active; 'I' for Inactive)
REMARK    1  A    between atoms: C_1  and  C_2
REMARK    2  A    between atoms: C_3  and  C_4
REMARK    3  A    between atoms: C_3  and  C_5
REMARK    4  A    between atoms: C_9  and  O_11
REMARK                            x       y       z     vdW  Elec       q    Type
REMARK                         _______ _______ _______ _____ _____    ______ ____
ROOT
ATOM      1  C   LIG A   1      -2.146   0.131  -0.581  0.00  0.00    +0.014 C 
ATOM      2  C   LIG A   1      -0.629   0.112  -0.537  0.00  0.00    -0.001 C 
ATOM      3  C   LIG A   1       0.027   0.102   0.880  0.00  0.00    -0.024 C 
ATOM      4  C   LIG A   1      -0.285   1.335   1.755  0.00  0.00    +0.012 C 
ATOM      5  C   LIG A   1      -0.273  -1.123   1.765  0.00  0.00    +0.012 C 
ATOM      6  C   LIG A   1       1.451   0.102   0.269  0.00  0.00    -0.002 C 
ATOM      7  C   LIG A   1       1.445  -1.135  -0.661  0.00  0.00    +0.036 C 
ATOM      8  C   LIG A   1       0.024  -1.107  -1.258  0.00  0.00    +0.121 C 
ATOM      9  C   LIG A   1       1.449   1.347  -0.646  0.00  0.00    +0.005 C 
ATOM     10  C   LIG A   1       0.012   1.367  -1.195  0.00  0.00    +0.010 C 
ENDROOT
BRANCH   8  11
ATOM     11  O   LIG A   1      -0.666  -2.320  -1.009  0.00  0.00    -0.391 OA
ATOM     12  H   LIG A   1      -0.142  -3.039  -1.401  0.00  0.00    +0.210 HD
ENDBRANCH   8  11
TORSDOF 1
