@<TRIPOS>MOLECULE
NuBBE_14
 54 57 0 0 0
SMALL
GASTEIGER

@<TRIPOS>ATOM
      1 H          -5.3815    1.6872    1.9646 H       1  LIG1        0.0655
      2 C          -4.4368    2.1240    1.6641 C.ar    1  LIG1       -0.0160
      3 C          -4.3513    3.3984    1.0988 C.ar    1  LIG1        0.1615
      4 C          -3.0881    3.8931    0.7415 C.ar    1  LIG1        0.1618
      5 O          -2.8902    5.1073    0.1283 O.3     1  LIG1       -0.4914
      6 C          -3.2906    6.2101    0.9409 C.3     1  LIG1        0.0790
      7 C          -1.9436    3.0976    0.8948 C.ar    1  LIG1       -0.0107
      8 C          -2.0325    1.8053    1.4389 C.ar    1  LIG1       -0.0149
      9 C          -0.7957    0.9368    1.5857 C.3     1  LIG1        0.0891
     10 H          -0.1220    1.4331    2.2947 H       1  LIG1        0.0650
     11 C          -0.1234    0.6479    0.2370 C.3     1  LIG1        0.0205
     12 H          -0.7336    0.9689   -0.6142 H       1  LIG1        0.0356
     13 C           1.2683    1.2204    0.1608 C.3     1  LIG1        0.0544
     14 O           2.0757    0.3349    0.9404 O.3     1  LIG1       -0.3712
     15 C           1.5378   -1.0021    0.8005 C.3     1  LIG1        0.0891
     16 H           1.5624   -1.4537    1.7996 H       1  LIG1        0.0650
     17 C           0.1148   -0.8430    0.2472 C.3     1  LIG1        0.0205
     18 H           0.0038   -1.2920   -0.7452 H       1  LIG1        0.0356
     19 C          -0.9384   -1.3604    1.1935 C.3     1  LIG1        0.0544
     20 O          -1.1281   -0.3400    2.1734 O.3     1  LIG1       -0.3712
     21 C           2.4126   -1.8408   -0.1163 C.ar    1  LIG1       -0.0149
     22 C           2.1076   -3.1848   -0.4029 C.ar    1  LIG1       -0.0107
     23 C           2.9047   -3.9553   -1.2698 C.ar    1  LIG1        0.1618
     24 O           2.4460   -5.2372   -1.4329 O.3     1  LIG1       -0.4914
     25 C           3.1688   -6.0990   -2.3084 C.3     1  LIG1        0.0790
     26 C           4.0477   -3.3713   -1.8548 C.ar    1  LIG1        0.1615
     27 C           4.3414   -2.0368   -1.5763 C.ar    1  LIG1       -0.0160
     28 C           3.5507   -1.2871   -0.7119 C.ar    1  LIG1       -0.0524
     29 O           4.8277   -4.1324   -2.6781 O.3     1  LIG1       -0.4915
     30 C           6.0716   -3.6039   -3.1082 C.3     1  LIG1        0.0790
     31 C          -3.2912    1.3431    1.8363 C.ar    1  LIG1       -0.0524
     32 O          -5.4382    4.1874    0.8278 O.3     1  LIG1       -0.4915
     33 C          -6.7081    3.7125    1.2531 C.3     1  LIG1        0.0790
     34 H          -2.9824    7.1264    0.4272 H       1  LIG1        0.0660
     35 H          -2.7920    6.1863    1.9158 H       1  LIG1        0.0660
     36 H          -4.3744    6.2680    1.0667 H       1  LIG1        0.0660
     37 H          -0.9852    3.4983    0.5734 H       1  LIG1        0.0659
     38 H           1.3525    2.2375    0.5544 H       1  LIG1        0.0564
     39 H           1.6454    1.2178   -0.8683 H       1  LIG1        0.0564
     40 H          -0.6618   -2.2944    1.6913 H       1  LIG1        0.0564
     41 H          -1.8905   -1.5180    0.6746 H       1  LIG1        0.0564
     42 H           1.2307   -3.6476    0.0496 H       1  LIG1        0.0659
     43 H           2.6998   -7.0869   -2.2911 H       1  LIG1        0.0660
     44 H           4.1984   -6.2413   -1.9631 H       1  LIG1        0.0660
     45 H           3.1246   -5.7383   -3.3424 H       1  LIG1        0.0660
     46 H           5.2024   -1.5273   -2.0098 H       1  LIG1        0.0655
     47 H           3.8368   -0.2572   -0.5128 H       1  LIG1        0.0622
     48 H           6.6519   -4.4291   -3.5309 H       1  LIG1        0.0660
     49 H           6.6536   -3.1892   -2.2787 H       1  LIG1        0.0660
     50 H           5.9091   -2.8614   -3.8949 H       1  LIG1        0.0660
     51 H          -3.4016    0.3518    2.2715 H       1  LIG1        0.0622
     52 H          -7.4532    4.4684    0.9895 H       1  LIG1        0.0660
     53 H          -6.7356    3.5820    2.3403 H       1  LIG1        0.0660
     54 H          -6.9771    2.7859    0.7352 H       1  LIG1        0.0660
@<TRIPOS>BOND
     1     1     2    1
     2     2     3   ar
     3     3     4   ar
     4     4     5    1
     5     5     6    1
     6     4     7   ar
     7     7     8   ar
     8     8     9    1
     9     9    10    1
    10     9    11    1
    11    11    12    1
    12    11    13    1
    13    13    14    1
    14    14    15    1
    15    15    17    1
    16    17    18    1
    17    11    17    1
    18    17    19    1
    19    19    20    1
    20     9    20    1
    21    21    22   ar
    22    22    23   ar
    23    23    24    1
    24    24    25    1
    25    23    26   ar
    26    26    27   ar
    27    27    28   ar
    28    21    28   ar
    29    26    29    1
    30    29    30    1
    31     8    31   ar
    32     2    31   ar
    33     3    32    1
    34    32    33    1
    35    15    21    1
    36    15    16    1
    37     6    34    1
    38     6    35    1
    39     6    36    1
    40     7    37    1
    41    13    38    1
    42    13    39    1
    43    19    40    1
    44    19    41    1
    45    22    42    1
    46    25    43    1
    47    25    44    1
    48    25    45    1
    49    27    46    1
    50    28    47    1
    51    30    48    1
    52    30    49    1
    53    30    50    1
    54    31    51    1
    55    33    52    1
    56    33    53    1
    57    33    54    1
