REMARK  Name = NuBBE_2227
REMARK  2 active torsions:
REMARK  status: ('A' for Active; 'I' for Inactive)
REMARK    1  A    between atoms: O_1  and  C_2
REMARK    2  A    between atoms: O_1  and  C_3
REMARK                            x       y       z     vdW  Elec       q    Type
REMARK                         _______ _______ _______ _____ _____    ______ ____
ROOT
ATOM      1  C   LIG A   1      -0.083   2.151   0.238  0.00  0.00    +0.129 A 
ATOM      2  C   LIG A   1       0.588   0.931  -0.028  0.00  0.00    +0.039 A 
ATOM      3  C   LIG A   1      -0.039  -0.424  -0.035  0.00  0.00    +0.042 A 
ATOM      4  C   LIG A   1       0.795  -1.569   0.110  0.00  0.00    +0.023 A 
ATOM      5  C   LIG A   1       2.188  -1.489   0.071  0.00  0.00    +0.119 A 
ATOM      6  C   LIG A   1       2.824  -0.191  -0.265  0.00  0.00    +0.212 C 
ATOM      7  O   LIG A   1       4.019  -0.106  -0.532  0.00  0.00    -0.285 OA
ATOM      8  C   LIG A   1       1.982   1.030  -0.244  0.00  0.00    +0.035 A 
ATOM      9  C   LIG A   1       2.641   2.267  -0.347  0.00  0.00    +0.012 A 
ATOM     10  C   LIG A   1       1.937   3.446  -0.170  0.00  0.00    +0.004 A 
ATOM     11  C   LIG A   1       0.588   3.386   0.155  0.00  0.00    +0.046 A 
ATOM     12  N   LIG A   1       3.034  -2.543   0.229  0.00  0.00    -0.251 NA
ATOM     13  C   LIG A   1       2.479  -3.752   0.421  0.00  0.00    +0.112 A 
ATOM     14  C   LIG A   1       1.114  -3.970   0.432  0.00  0.00    +0.028 A 
ATOM     15  C   LIG A   1       0.256  -2.880   0.253  0.00  0.00    -0.010 A 
ATOM     16  C   LIG A   1      -1.124  -3.076   0.177  0.00  0.00    +0.058 A 
ATOM     17  C   LIG A   1      -1.910  -1.981  -0.093  0.00  0.00    +0.167 A 
ATOM     18  C   LIG A   1      -1.393  -0.705  -0.215  0.00  0.00    +0.175 A 
ATOM     19  O   LIG A   1      -2.372   0.166  -0.601  0.00  0.00    -0.452 OA
ATOM     20  C   LIG A   1      -3.546  -0.661  -0.575  0.00  0.00    +0.466 C 
ATOM     21  O   LIG A   1      -3.254  -2.040  -0.300  0.00  0.00    -0.453 OA
ENDROOT
BRANCH   1  22
ATOM     22  O   LIG A   1      -1.360   2.104   0.743  0.00  0.00    -0.494 OA
ATOM     23  C   LIG A   1      -2.230   3.147   0.307  0.00  0.00    +0.277 C 
ENDBRANCH   1  22
TORSDOF 1
