REMARK  Name = NuBBE_2163
REMARK  8 active torsions:
REMARK  status: ('A' for Active; 'I' for Inactive)
REMARK    1  A    between atoms: C_1  and  O_2
REMARK    2  A    between atoms: O_2  and  C_3
REMARK    3  A    between atoms: C_4  and  O_5
REMARK    4  A    between atoms: O_5  and  C_6
REMARK    5  A    between atoms: C_10  and  O_11
REMARK    6  A    between atoms: C_10  and  C_12
REMARK    7  A    between atoms: C_23  and  C_25
REMARK    8  A    between atoms: C_26  and  C_28
REMARK                            x       y       z     vdW  Elec       q    Type
REMARK                         _______ _______ _______ _____ _____    ______ ____
ROOT
ATOM      1  C   LIG A   1       0.239  -2.259  -1.785  0.00  0.00    +0.162 A 
ATOM      2  C   LIG A   1       0.846  -3.222  -0.969  0.00  0.00    +0.162 A 
ATOM      3  C   LIG A   1       1.443  -2.819   0.234  0.00  0.00    +0.061 A 
ATOM      4  C   LIG A   1       0.190  -0.926  -1.354  0.00  0.00    +0.057 A 
ATOM      5  C   LIG A   1       0.755  -0.511  -0.133  0.00  0.00    +0.003 A 
ATOM      6  C   LIG A   1       0.700   0.971   0.248  0.00  0.00    +0.120 C 
ATOM      7  C   LIG A   1       1.411  -1.470   0.638  0.00  0.00    +0.028 A 
ATOM      8  C   LIG A   1       2.147  -1.077   1.865  0.00  0.00    +0.167 C 
ATOM      9  C   LIG A   1       2.528   0.398   1.962  0.00  0.00    +0.063 C 
ATOM     10  C   LIG A   1       3.158   0.683   3.330  0.00  0.00    +0.016 C 
ATOM     11  C   LIG A   1       1.271   1.258   1.680  0.00  0.00    +0.037 C 
ATOM     12  C   LIG A   1       1.585   2.755   1.865  0.00  0.00    +0.012 C 
ATOM     13  O   LIG A   1       2.473  -1.921   2.685  0.00  0.00    -0.292 OA
ENDROOT
BRANCH   6  14
ATOM     14  C   LIG A   1      -0.732   1.555   0.110  0.00  0.00    -0.008 A 
ATOM     15  C   LIG A   1      -1.811   1.020   0.848  0.00  0.00    +0.056 A 
ATOM     16  C   LIG A   1      -3.070   1.579   0.692  0.00  0.00    +0.167 A 
ATOM     17  C   LIG A   1      -3.305   2.613  -0.181  0.00  0.00    +0.166 A 
ATOM     18  O   LIG A   1      -4.606   3.008  -0.189  0.00  0.00    -0.453 OA
ATOM     19  C   LIG A   1      -5.151   2.159   0.841  0.00  0.00    +0.466 C 
ATOM     20  O   LIG A   1      -4.197   1.204   1.357  0.00  0.00    -0.453 OA
ATOM     21  C   LIG A   1      -2.293   3.161  -0.932  0.00  0.00    +0.050 A 
ATOM     22  C   LIG A   1      -1.002   2.639  -0.771  0.00  0.00    +0.010 A 
ENDBRANCH   6  14
BRANCH   1  24
ATOM     23  C   LIG A   1      -0.246  -1.708  -4.040  0.00  0.00    +0.277 C 
ATOM     24  O   LIG A   1      -0.330  -2.642  -2.969  0.00  0.00    -0.491 OA
ENDBRANCH   1  24
BRANCH   2  25
ATOM     25  O   LIG A   1       1.011  -4.556  -1.249  0.00  0.00    -0.491 OA
ATOM     26  C   LIG A   1       0.032  -5.168  -2.083  0.00  0.00    +0.277 C 
ENDBRANCH   2  25
BRANCH   6  27
ATOM     27  O   LIG A   1       1.565   1.641  -0.688  0.00  0.00    -0.379 OA
ATOM     28  H   LIG A   1       2.168   0.992  -1.085  0.00  0.00    +0.211 HD
ENDBRANCH   6  27
TORSDOF 4
