REMARK  Name = NuBBE_1478
REMARK  11 active torsions:
REMARK  status: ('A' for Active; 'I' for Inactive)
REMARK    1  A    between atoms: O_1  and  C_2
REMARK    2  A    between atoms: C_3  and  C_4
REMARK    3  A    between atoms: N_12  and  C_13
REMARK    4  A    between atoms: C_14  and  O_15
REMARK    5  A    between atoms: C_19  and  O_27
REMARK    6  A    between atoms: C_23  and  C_25
REMARK    7  A    between atoms: C_23  and  C_26
REMARK    8  A    between atoms: N_36  and  C_37
REMARK    9  A    between atoms: C_38  and  O_39
REMARK   10  A    between atoms: C_45  and  C_47
REMARK   11  A    between atoms: C_45  and  C_48
REMARK                            x       y       z     vdW  Elec       q    Type
REMARK                         _______ _______ _______ _____ _____    ______ ____
ROOT
ATOM      1  C   LIG A   1      -0.936   1.583   0.280  0.00  0.00    +0.137 A 
ATOM      2  C   LIG A   1      -0.768   0.317   0.882  0.00  0.00    +0.045 A 
ATOM      3  C   LIG A   1       0.546  -0.059   1.242  0.00  0.00    +0.138 A 
ATOM      4  C   LIG A   1       1.655   0.763   0.933  0.00  0.00    +0.041 A 
ATOM      5  C   LIG A   1       1.465   2.030   0.341  0.00  0.00    +0.067 A 
ATOM      6  C   LIG A   1       0.163   2.411  -0.019  0.00  0.00    +0.088 A 
ATOM      7  C   LIG A   1      -0.023   3.695  -0.742  0.00  0.00    +0.201 A 
ATOM      8  O   LIG A   1      -1.152   4.114  -0.981  0.00  0.00    -0.286 OA
ATOM      9  C   LIG A   1       1.165   4.436  -1.211  0.00  0.00    +0.050 A 
ATOM     10  C   LIG A   1       2.428   4.013  -0.788  0.00  0.00    +0.095 A 
ATOM     11  N   LIG A   1       2.572   2.932   0.137  0.00  0.00    -0.339 N 
ATOM     12  C   LIG A   1       2.937   3.514   1.461  0.00  0.00    +0.149 C 
ATOM     13  C   LIG A   1       3.553   4.680  -1.298  0.00  0.00    +0.141 A 
ATOM     14  C   LIG A   1       3.429   5.780  -2.140  0.00  0.00    +0.047 A 
ATOM     15  C   LIG A   1       2.160   6.217  -2.516  0.00  0.00    +0.004 A 
ATOM     16  C   LIG A   1       1.025   5.541  -2.062  0.00  0.00    +0.014 A 
ATOM     17  C   LIG A   1       3.003   0.249   1.189  0.00  0.00    +0.013 C 
ATOM     18  C   LIG A   1       3.134  -0.762   2.048  0.00  0.00    +0.020 C 
ATOM     19  C   LIG A   1       1.932  -1.385   2.707  0.00  0.00    +0.123 C 
ATOM     20  O   LIG A   1       0.725  -1.252   1.912  0.00  0.00    -0.481 OA
ATOM     21  C   LIG A   1       2.199  -2.886   2.877  0.00  0.00    +0.060 C 
ATOM     22  C   LIG A   1       1.707  -0.746   4.086  0.00  0.00    +0.060 C 
ENDROOT
BRANCH   2  23
ATOM     23  C   LIG A   1      -1.991  -0.597   1.087  0.00  0.00    +0.066 C 
ATOM     24  C   LIG A   1      -2.034  -1.861   0.235  0.00  0.00    +0.026 A 
ATOM     25  C   LIG A   1      -1.667  -1.917  -1.139  0.00  0.00    +0.064 A 
ATOM     26  C   LIG A   1      -1.565  -3.175  -1.776  0.00  0.00    +0.088 A 
ATOM     27  C   LIG A   1      -1.030  -3.245  -3.152  0.00  0.00    +0.201 A 
ATOM     28  O   LIG A   1      -0.947  -4.332  -3.722  0.00  0.00    -0.286 OA
ATOM     29  C   LIG A   1      -0.593  -2.008  -3.825  0.00  0.00    +0.050 A 
ATOM     30  C   LIG A   1      -0.822  -0.776  -3.197  0.00  0.00    +0.095 A 
ATOM     31  N   LIG A   1      -1.492  -0.728  -1.929  0.00  0.00    -0.340 N 
ATOM     32  C   LIG A   1      -2.834  -0.129  -2.172  0.00  0.00    +0.149 C 
ATOM     33  C   LIG A   1      -0.406   0.388  -3.874  0.00  0.00    +0.141 A 
ATOM     34  C   LIG A   1       0.179   0.323  -5.143  0.00  0.00    +0.047 A 
ATOM     35  C   LIG A   1       0.372  -0.913  -5.756  0.00  0.00    +0.004 A 
ATOM     36  C   LIG A   1      -0.008  -2.081  -5.097  0.00  0.00    +0.014 A 
ATOM     37  C   LIG A   1      -2.006  -4.333  -1.131  0.00  0.00    +0.133 A 
ATOM     38  C   LIG A   1      -2.565  -4.247   0.132  0.00  0.00    +0.092 A 
ATOM     39  C   LIG A   1      -2.574  -3.023   0.801  0.00  0.00    +0.131 A 
ATOM     40  O   LIG A   1      -3.249  -3.011   1.991  0.00  0.00    -0.486 OA
ATOM     41  C   LIG A   1      -2.621  -2.250   3.023  0.00  0.00    +0.106 C 
ATOM     42  C   LIG A   1      -2.259  -0.818   2.594  0.00  0.00    +0.060 C 
ATOM     43  C   LIG A   1      -1.419  -3.049   3.541  0.00  0.00    +0.055 C 
ATOM     44  C   LIG A   1      -3.647  -2.181   4.168  0.00  0.00    +0.055 C 
BRANCH  33  45
ATOM     45  O   LIG A   1      -0.575   1.613  -3.284  0.00  0.00    -0.505 OA
ATOM     46  H   LIG A   1      -0.278   2.308  -3.893  0.00  0.00    +0.292 HD
ENDBRANCH  33  45
BRANCH  37  47
ATOM     47  O   LIG A   1      -1.971  -5.575  -1.706  0.00  0.00    -0.506 OA
ATOM     48  H   LIG A   1      -1.570  -5.476  -2.600  0.00  0.00    +0.292 HD
ENDBRANCH  37  47
ENDBRANCH   2  23
BRANCH   1  49
ATOM     49  O   LIG A   1      -2.219   2.003   0.008  0.00  0.00    -0.506 OA
ATOM     50  H   LIG A   1      -2.162   2.860  -0.474  0.00  0.00    +0.292 HD
ENDBRANCH   1  49
BRANCH  13  51
ATOM     51  O   LIG A   1       4.814   4.234  -1.008  0.00  0.00    -0.505 OA
ATOM     52  H   LIG A   1       4.693   3.341  -0.632  0.00  0.00    +0.292 HD
ENDBRANCH  13  51
TORSDOF 5
