@<TRIPOS>MOLECULE
NuBBE_1428
 43 44 0 0 0
SMALL
GASTEIGER

@<TRIPOS>ATOM
      1 C          -1.1749    3.4209    0.2468 C.3     1  LIG1       -0.0358
      2 C          -1.4760    2.0287   -0.3148 C.3     1  LIG1        0.0664
      3 C          -0.8088    1.8589   -1.6877 C.3     1  LIG1       -0.0237
      4 C          -0.8225    0.4091   -2.1757 C.3     1  LIG1       -0.0471
      5 C          -0.0785   -0.5306   -1.1890 C.3     1  LIG1       -0.0348
      6 H          -0.1678   -1.5406   -1.6100 H       1  LIG1        0.0306
      7 C          -0.9522   -0.5050    0.1115 C.3     1  LIG1       -0.0230
      8 C          -0.5898   -1.3034    1.3796 C.3     1  LIG1        0.0207
      9 H          -1.5509   -1.5177    1.8772 H       1  LIG1        0.0380
     10 C           0.1395   -0.3182    2.3077 C.3     1  LIG1       -0.0429
     11 C           0.0020    1.0641    1.6583 C.3     1  LIG1       -0.0467
     12 C          -1.1802    0.9072    0.7023 C.3     1  LIG1       -0.0086
     13 H          -2.0732    0.8359    1.3462 H       1  LIG1        0.0331
     14 C           0.0049   -2.6943    1.2131 C.2     1  LIG1        0.1336
     15 C           0.4131   -3.4277    2.4654 C.3     1  LIG1       -0.0058
     16 O           0.0121   -3.2794    0.1265 O.2     1  LIG1       -0.2974
     17 H          -1.9359   -0.8860   -0.2058 H       1  LIG1        0.0314
     18 C           1.4593   -0.2000   -1.1704 C.3     1  LIG1       -0.0436
     19 C           2.0630   -0.2486   -2.5924 C.3     1  LIG1       -0.0624
     20 C           2.3313   -1.1233   -0.3207 C.3     1  LIG1       -0.0624
     21 O          -2.8999    2.0121   -0.5432 O.3     1  LIG1       -0.3886
     22 H          -0.1031    3.5729    0.4094 H       1  LIG1        0.0257
     23 H          -1.6988    3.5814    1.1961 H       1  LIG1        0.0257
     24 H          -1.5297    4.2018   -0.4359 H       1  LIG1        0.0257
     25 H           0.2198    2.2332   -1.6625 H       1  LIG1        0.0293
     26 H          -1.3395    2.4683   -2.4313 H       1  LIG1        0.0293
     27 H          -0.4029    0.3517   -3.1840 H       1  LIG1        0.0269
     28 H          -1.8596    0.0689   -2.2941 H       1  LIG1        0.0269
     29 H           1.1848   -0.5641    2.5065 H       1  LIG1        0.0272
     30 H          -0.3599   -0.3123    3.2852 H       1  LIG1        0.0272
     31 H           0.9222    1.3362    1.1371 H       1  LIG1        0.0269
     32 H          -0.1805    1.8317    2.4175 H       1  LIG1        0.0269
     33 H           0.8966   -4.3711    2.1955 H       1  LIG1        0.0306
     34 H          -0.4773   -3.6430    3.0615 H       1  LIG1        0.0306
     35 H           1.1223   -2.8358    3.0465 H       1  LIG1        0.0306
     36 H           1.6140    0.8175   -0.8015 H       1  LIG1        0.0298
     37 H           1.8617   -1.2139   -3.0705 H       1  LIG1        0.0232
     38 H           3.1500   -0.1103   -2.5652 H       1  LIG1        0.0232
     39 H           1.6747    0.5464   -3.2340 H       1  LIG1        0.0232
     40 H           2.2391   -2.1670   -0.6325 H       1  LIG1        0.0232
     41 H           2.1083   -1.0451    0.7369 H       1  LIG1        0.0232
     42 H           3.3888   -0.8473   -0.4166 H       1  LIG1        0.0232
     43 H          -3.1455    1.1376   -0.8890 H       1  LIG1        0.2102
@<TRIPOS>BOND
     1     2     3    1
     2     3     4    1
     3     4     5    1
     4     5     7    1
     5     7     8    1
     6     8    10    1
     7    10    11    1
     8    11    12    1
     9     7    12    1
    10     2    12    1
    11    12    13    1
    12    14    15    1
    13    14    16    2
    14     7    17    1
    15    18    19    1
    16    18    20    1
    17     2    21    1
    18     2     1    1
    19     8    14    1
    20     8     9    1
    21     5    18    1
    22     5     6    1
    23     1    22    1
    24     1    23    1
    25     1    24    1
    26     3    25    1
    27     3    26    1
    28     4    27    1
    29     4    28    1
    30    10    29    1
    31    10    30    1
    32    11    31    1
    33    11    32    1
    34    15    33    1
    35    15    34    1
    36    15    35    1
    37    18    36    1
    38    19    37    1
    39    19    38    1
    40    19    39    1
    41    20    40    1
    42    20    41    1
    43    20    42    1
    44    21    43    1
