REMARK  Name = NuBBE_648
REMARK  2 active torsions:
REMARK  status: ('A' for Active; 'I' for Inactive)
REMARK    1  A    between atoms: C_1  and  C_2
REMARK    2  A    between atoms: C_2  and  C_3
REMARK                            x       y       z     vdW  Elec       q    Type
REMARK                         _______ _______ _______ _____ _____    ______ ____
ROOT
ATOM      1  C   LIG A   1      -0.218   0.070  -2.185  0.00  0.00    +0.203 C 
ATOM      2  C   LIG A   1      -0.972  -0.883  -1.235  0.00  0.00    +0.087 C 
ATOM      3  C   LIG A   1      -0.178  -0.672  -0.001  0.00  0.00    -0.001 A 
ATOM      4  C   LIG A   1       0.624   0.450  -0.157  0.00  0.00    +0.128 A 
ATOM      5  O   LIG A   1       0.516   1.040  -1.388  0.00  0.00    -0.484 OA
ATOM      6  C   LIG A   1       1.431   0.918   0.857  0.00  0.00    +0.092 A 
ATOM      7  C   LIG A   1       1.419   0.203   2.053  0.00  0.00    +0.142 A 
ATOM      8  O   LIG A   1       2.251   0.673   3.091  0.00  0.00    -0.422 OA
ATOM      9  C   LIG A   1       2.308   0.028   4.318  0.00  0.00    +0.337 A 
ATOM     10  C   LIG A   1       1.458  -1.164   4.486  0.00  0.00    +0.092 A 
ATOM     11  C   LIG A   1       0.662  -1.624   3.517  0.00  0.00    +0.018 A 
ATOM     12  C   LIG A   1       0.619  -0.937   2.236  0.00  0.00    +0.018 A 
ATOM     13  C   LIG A   1      -0.201  -1.379   1.192  0.00  0.00    +0.018 A 
ATOM     14  O   LIG A   1       3.026   0.416   5.232  0.00  0.00    -0.245 OA
ENDROOT
BRANCH   1  16
ATOM     15  C   LIG A   1      -1.983   1.900  -2.623  0.00  0.00    +0.042 C 
ATOM     16  C   LIG A   1      -1.115   0.797  -3.167  0.00  0.00    -0.040 C 
ATOM     17  C   LIG A   1      -1.125   0.488  -4.475  0.00  0.00    +0.011 C 
ENDBRANCH   1  16
TORSDOF 1
