@<TRIPOS>MOLECULE
NuBBE_65
 52 55 0 0 0
SMALL
GASTEIGER

@<TRIPOS>ATOM
      1 O          -3.7166   -2.8660    0.0268 O.3     1  LIG1       -0.5062
      2 C          -2.3567   -3.0113   -0.0331 C.ar    1  LIG1        0.1296
      3 C          -1.5041   -1.8920   -0.0822 C.ar    1  LIG1        0.0682
      4 C          -0.1173   -2.1276   -0.0046 C.ar    1  LIG1        0.1520
      5 C           0.3774   -3.4383    0.0252 C.ar    1  LIG1        0.1058
      6 C          -0.4979   -4.5274    0.0106 C.ar    1  LIG1        0.1347
      7 C          -1.8673   -4.3165   -0.0104 C.ar    1  LIG1        0.0226
      8 O          -0.0704   -5.8298    0.0395 O.3     1  LIG1       -0.5058
      9 C           1.8287   -3.6414    0.0676 C.ar    1  LIG1        0.1966
     10 O           2.3150   -4.7603    0.0893 O.2     1  LIG1       -0.2869
     11 C           2.6729   -2.4428    0.0676 C.ar    1  LIG1        0.0288
     12 C           2.0913   -1.2303    0.0541 C.ar    1  LIG1        0.1394
     13 O           0.7227   -1.0388    0.0652 O.2     1  LIG1       -0.4540
     14 C           2.8923    0.0156    0.0313 C.ar    1  LIG1        0.0211
     15 C           2.4105    1.1976    0.6274 C.ar    1  LIG1       -0.0059
     16 C           3.1759    2.3625    0.5777 C.ar    1  LIG1        0.1589
     17 O           2.7576    3.5327    1.1502 O.3     1  LIG1       -0.5033
     18 C           4.4099    2.3712   -0.0655 C.ar    1  LIG1        0.1583
     19 C           4.9005    1.2260   -0.6654 C.ar    1  LIG1       -0.0159
     20 C           4.1421    0.0552   -0.6180 C.ar    1  LIG1       -0.0474
     21 O           5.1546    3.5134   -0.1138 O.3     1  LIG1       -0.5033
     22 C          -2.0985   -0.4950   -0.2081 C.3     1  LIG1        0.1193
     23 H          -3.0187   -0.5796   -0.8019 H       1  LIG1        0.0676
     24 O          -1.2131    0.3650   -0.9441 O.3     1  LIG1       -0.3609
     25 C          -1.7441    1.6791   -1.1636 C.3     1  LIG1        0.1108
     26 H          -2.6679    1.5831   -1.7489 H       1  LIG1        0.0646
     27 C          -0.7307    2.4709   -1.9995 C.3     1  LIG1        0.0729
     28 O          -0.5298    1.8242   -3.2544 O.3     1  LIG1       -0.3924
     29 C          -2.0063    2.3769    0.1740 C.3     1  LIG1        0.1117
     30 H          -1.0636    2.5276    0.7148 H       1  LIG1        0.0647
     31 C          -2.9357    1.5248    1.0377 C.3     1  LIG1        0.1121
     32 H          -3.9503    1.5278    0.6200 H       1  LIG1        0.0647
     33 C          -2.4298    0.0872    1.1790 C.3     1  LIG1        0.1139
     34 H          -1.5491    0.0663    1.8343 H       1  LIG1        0.0649
     35 O          -3.4620   -0.6849    1.8235 O.3     1  LIG1       -0.3862
     36 O          -3.0582    2.1049    2.3459 O.3     1  LIG1       -0.3865
     37 O          -2.5966    3.6702    0.0112 O.3     1  LIG1       -0.3865
     38 H          -3.9036   -2.1609    0.6839 H       1  LIG1        0.2922
     39 H          -2.5512   -5.1609    0.0075 H       1  LIG1        0.0691
     40 H           0.9126   -5.8343    0.0574 H       1  LIG1        0.2922
     41 H           3.7400   -2.6105    0.0698 H       1  LIG1        0.0693
     42 H           1.4483    1.1999    1.1301 H       1  LIG1        0.0662
     43 H           1.9078    3.3750    1.5947 H       1  LIG1        0.2923
     44 H           5.8611    1.2392   -1.1710 H       1  LIG1        0.0655
     45 H           4.5450   -0.8263   -1.1115 H       1  LIG1        0.0626
     46 H           4.6222    4.1786    0.3650 H       1  LIG1        0.2923
     47 H           0.2406    2.5325   -1.4977 H       1  LIG1        0.0584
     48 H          -1.0885    3.4853   -2.1992 H       1  LIG1        0.0584
     49 H          -0.2479    0.9131   -3.0448 H       1  LIG1        0.2095
     50 H          -3.6520   -0.1988    2.6549 H       1  LIG1        0.2100
     51 H          -3.1512    3.0697    2.2061 H       1  LIG1        0.2100
     52 H          -3.3499    3.5982   -0.6045 H       1  LIG1        0.2100
@<TRIPOS>BOND
     1     1     2    1
     2     2     3   ar
     3     3     4   ar
     4     4     5   ar
     5     5     6   ar
     6     6     7   ar
     7     2     7   ar
     8     6     8    1
     9     5     9   ar
    10     9    10    2
    11     9    11   ar
    12    11    12   ar
    13    12    13   ar
    14     4    13   ar
    15    12    14    1
    16    14    15   ar
    17    15    16   ar
    18    16    17    1
    19    16    18   ar
    20    18    19   ar
    21    19    20   ar
    22    14    20   ar
    23    18    21    1
    24     3    22    1
    25    22    23    1
    26    22    24    1
    27    24    25    1
    28    25    26    1
    29    25    27    1
    30    27    28    1
    31    25    29    1
    32    29    31    1
    33    31    32    1
    34    31    33    1
    35    22    33    1
    36    31    36    1
    37    33    35    1
    38    33    34    1
    39    29    37    1
    40    29    30    1
    41     1    38    1
    42     7    39    1
    43     8    40    1
    44    11    41    1
    45    15    42    1
    46    17    43    1
    47    19    44    1
    48    20    45    1
    49    21    46    1
    50    27    47    1
    51    27    48    1
    52    28    49    1
    53    35    50    1
    54    36    51    1
    55    37    52    1
