@<TRIPOS>MOLECULE
NuBBE_1523
 80 85 0 0 0
SMALL
GASTEIGER

@<TRIPOS>ATOM
      1 C           2.8763    2.1077    0.8026 C.3     1  LIG1       -0.0553
      2 C           1.4610    1.4878    0.7197 C.3     1  LIG1       -0.0051
      3 C           0.9899    1.6162   -0.7565 C.2     1  LIG1       -0.0634
      4 C           0.7292    2.8126   -1.3248 C.2     1  LIG1       -0.0836
      5 C           0.2974    3.0252   -2.7461 C.3     1  LIG1       -0.0302
      6 C          -0.1242    1.7249   -3.4564 C.3     1  LIG1       -0.0198
      7 C           0.9073    0.5800   -3.1575 C.3     1  LIG1       -0.0212
      8 C           2.3440    0.9045   -3.6315 C.3     1  LIG1       -0.0587
      9 C           0.4130   -0.7142   -3.8577 C.3     1  LIG1       -0.0401
     10 C           0.1464   -0.5421   -5.3431 C.3     1  LIG1        0.0069
     11 C          -0.8563    0.5615   -5.5822 C.2     1  LIG1        0.1392
     12 C          -0.5633    1.9313   -4.9501 C.3     1  LIG1        0.0270
     13 C          -1.8688    2.7657   -4.9808 C.3     1  LIG1       -0.0528
     14 C           0.4435    2.6534   -5.8606 C.3     1  LIG1       -0.0528
     15 O          -1.8050    0.3758   -6.3436 O.2     1  LIG1       -0.2968
     16 C           0.9017    0.3447   -1.5877 C.3     1  LIG1       -0.0136
     17 C           1.9928   -0.6196   -1.1158 C.3     1  LIG1       -0.0455
     18 C           1.6859   -1.1031    0.2920 C.3     1  LIG1       -0.0460
     19 C           1.3588    0.0074    1.3243 C.3     1  LIG1       -0.0197
     20 C          -0.0882   -0.0695    2.0095 C.3     1  LIG1       -0.0273
     21 H           0.0576   -0.1919    3.0927 H       1  LIG1        0.0311
     22 C          -1.1266   -1.1502    1.5978 C.3     1  LIG1        0.0157
     23 H          -1.3351   -1.0034    0.5294 H       1  LIG1        0.0353
     24 C          -2.4689   -1.0194    2.3335 C.3     1  LIG1       -0.0163
     25 C          -2.5380   -2.2147    3.2670 C.3     1  LIG1        0.0909
     26 C          -1.9642   -1.9467    4.6364 C.3     1  LIG1        0.1139
     27 C          -1.9059   -3.0102    5.7302 C.3     1  LIG1        0.0930
     28 C          -1.8439   -2.5784    7.1630 C.3     1  LIG1       -0.0335
     29 C          -2.3847   -4.4079    5.4817 C.3     1  LIG1       -0.0335
     30 O          -0.7473   -2.6327    4.9744 O.3     1  LIG1       -0.3627
     31 O          -1.8245   -3.2440    2.5794 O.3     1  LIG1       -0.3454
     32 C          -0.7843   -2.6354    1.8184 C.3     1  LIG1        0.1598
     33 O           0.4378   -2.8518    2.4822 O.3     1  LIG1       -0.3667
     34 C          -0.6756    1.3473    1.8239 C.3     1  LIG1       -0.0485
     35 C           0.5206    2.2646    1.6680 C.3     1  LIG1       -0.0431
     36 C           2.3806   -0.1769    2.4915 C.3     1  LIG1       -0.0585
     37 H           2.9036    3.1195    0.3812 H       1  LIG1        0.0238
     38 H           3.6141    1.5082    0.2606 H       1  LIG1        0.0238
     39 H           3.2231    2.2098    1.8364 H       1  LIG1        0.0238
     40 H           0.8495    3.7286   -0.7504 H       1  LIG1        0.0572
     41 H           1.1204    3.5172   -3.2747 H       1  LIG1        0.0311
     42 H          -0.5408    3.7299   -2.7335 H       1  LIG1        0.0311
     43 H          -1.0474    1.3982   -2.9465 H       1  LIG1        0.0318
     44 H           2.4052    1.1041   -4.6988 H       1  LIG1        0.0235
     45 H           3.0185    0.0585   -3.4583 H       1  LIG1        0.0235
     46 H           2.7696    1.7676   -3.1114 H       1  LIG1        0.0235
     47 H          -0.5168   -1.0511   -3.3791 H       1  LIG1        0.0275
     48 H           1.1366   -1.5272   -3.7319 H       1  LIG1        0.0275
     49 H          -0.2662   -1.4757   -5.7428 H       1  LIG1        0.0342
     50 H           1.0597   -0.3259   -5.9041 H       1  LIG1        0.0342
     51 H          -2.6514    2.3032   -4.3689 H       1  LIG1        0.0239
     52 H          -2.2682    2.8513   -5.9987 H       1  LIG1        0.0239
     53 H          -1.7076    3.7857   -4.6181 H       1  LIG1        0.0239
     54 H           0.7597    3.6156   -5.4485 H       1  LIG1        0.0239
     55 H          -0.0064    2.8596   -6.8406 H       1  LIG1        0.0239
     56 H           1.3319    2.0599   -6.0768 H       1  LIG1        0.0239
     57 H          -0.0716   -0.1039   -1.3395 H       1  LIG1        0.0351
     58 H           2.9836   -0.1522   -1.1389 H       1  LIG1        0.0271
     59 H           2.0538   -1.5005   -1.7628 H       1  LIG1        0.0271
     60 H           2.5312   -1.7185    0.6253 H       1  LIG1        0.0271
     61 H           0.8600   -1.8010    0.1821 H       1  LIG1        0.0271
     62 H          -3.2696   -1.1152    1.5880 H       1  LIG1        0.0295
     63 H          -2.6329   -0.0718    2.8507 H       1  LIG1        0.0295
     64 H          -3.5782   -2.5363    3.3914 H       1  LIG1        0.0624
     65 H          -2.0803   -0.9174    4.9532 H       1  LIG1        0.0651
     66 H          -2.8491   -2.5568    7.5961 H       1  LIG1        0.0258
     67 H          -1.4062   -1.5808    7.2708 H       1  LIG1        0.0258
     68 H          -1.2328   -3.2746    7.7474 H       1  LIG1        0.0258
     69 H          -1.9978   -5.0918    6.2449 H       1  LIG1        0.0258
     70 H          -2.0677   -4.8013    4.5124 H       1  LIG1        0.0258
     71 H          -3.4782   -4.4404    5.5236 H       1  LIG1        0.0258
     72 H          -0.7396   -3.1641    0.8610 H       1  LIG1        0.0910
     73 H           0.2049   -2.8434    3.4304 H       1  LIG1        0.2125
     74 H          -1.2811    1.6570    2.6818 H       1  LIG1        0.0268
     75 H          -1.3118    1.3971    0.9320 H       1  LIG1        0.0268
     76 H           0.9887    2.4264    2.6470 H       1  LIG1        0.0274
     77 H           0.2164    3.2504    1.3047 H       1  LIG1        0.0274
     78 H           2.2528   -1.1471    2.9825 H       1  LIG1        0.0235
     79 H           2.2644    0.5897    3.2651 H       1  LIG1        0.0235
     80 H           3.4149   -0.1390    2.1324 H       1  LIG1        0.0235
@<TRIPOS>BOND
     1     2     3    1
     2     3     4    2
     3     4     5    1
     4     5     6    1
     5     6     7    1
     6     7     9    1
     7     9    10    1
     8    10    11    1
     9    11    12    1
    10     6    12    1
    11     7    16    1
    12     3    16    1
    13    16    17    1
    14    17    18    1
    15    18    19    1
    16    19    20    1
    17    22    24    1
    18    24    25    1
    19    25    26    1
    20    26    27    1
    21    27    28    1
    22    27    29    1
    23    27    30    1
    24    26    30    1
    25    25    31    1
    26    31    32    1
    27    22    32    1
    28    32    33    1
    29    20    34    1
    30    34    35    1
    31     2    35    1
    32     2    19    1
    33     1     2    1
    34     7     8    1
    35    11    15    2
    36    12    13    1
    37    12    14    1
    38    19    36    1
    39    20    21    1
    40    22    20    1
    41    22    23    1
    42     1    37    1
    43     1    38    1
    44     1    39    1
    45     4    40    1
    46     5    41    1
    47     5    42    1
    48     6    43    1
    49     8    44    1
    50     8    45    1
    51     8    46    1
    52     9    47    1
    53     9    48    1
    54    10    49    1
    55    10    50    1
    56    13    51    1
    57    13    52    1
    58    13    53    1
    59    14    54    1
    60    14    55    1
    61    14    56    1
    62    16    57    1
    63    17    58    1
    64    17    59    1
    65    18    60    1
    66    18    61    1
    67    24    62    1
    68    24    63    1
    69    25    64    1
    70    26    65    1
    71    28    66    1
    72    28    67    1
    73    28    68    1
    74    29    69    1
    75    29    70    1
    76    29    71    1
    77    32    72    1
    78    33    73    1
    79    34    74    1
    80    34    75    1
    81    35    76    1
    82    35    77    1
    83    36    78    1
    84    36    79    1
    85    36    80    1
