@<TRIPOS>MOLECULE
NuBBE_1216
 47 49 0 0 0
SMALL
GASTEIGER

@<TRIPOS>ATOM
      1 O           0.0760    0.2343   -3.9678 O.2     1  LIG1       -0.2869
      2 C          -0.0396   -0.0167   -2.7185 C.ar    1  LIG1        0.1969
      3 C          -0.4284   -1.3456   -2.2747 C.ar    1  LIG1        0.0288
      4 C           0.0046   -1.7104   -1.0552 C.ar    1  LIG1        0.1394
      5 O           0.8573   -0.9012   -0.3032 O.2     1  LIG1       -0.4507
      6 C           0.8214    0.4652   -0.5120 C.ar    1  LIG1        0.1881
      7 C           0.2412    0.9776   -1.6862 C.ar    1  LIG1        0.1130
      8 C          -0.0597    2.3463   -1.8267 C.ar    1  LIG1        0.1798
      9 O          -1.0174    2.5902   -2.7915 O.3     1  LIG1       -0.4905
     10 C          -0.8554    3.5035   -3.8829 C.3     1  LIG1        0.0790
     11 C           0.3688    3.2081   -0.7742 C.ar    1  LIG1        0.2082
     12 O           0.1215    4.5644   -0.6408 O.3     1  LIG1       -0.4884
     13 C          -1.0195    5.0529   -1.2983 C.3     1  LIG1        0.0791
     14 C           1.1298    2.7092    0.3561 C.ar    1  LIG1        0.2110
     15 O           1.7326    3.7093    1.1093 O.3     1  LIG1       -0.4883
     16 C           1.4713    3.8853    2.5066 C.3     1  LIG1        0.0791
     17 C           1.3524    1.3165    0.4847 C.ar    1  LIG1        0.2088
     18 O           2.0890    0.6228    1.4274 O.3     1  LIG1       -0.4884
     19 C           2.6864    1.3950    2.4403 C.3     1  LIG1        0.0791
     20 C          -0.3599   -3.0013   -0.3848 C.ar    1  LIG1        0.0176
     21 C          -1.2234   -3.9616   -0.9393 C.ar    1  LIG1       -0.0476
     22 C          -1.5650   -5.1274   -0.2321 C.ar    1  LIG1       -0.0193
     23 C          -1.0781   -5.3473    1.0556 C.ar    1  LIG1        0.1201
     24 C          -0.2025   -4.4223    1.6101 C.ar    1  LIG1       -0.0193
     25 C           0.1522   -3.2711    0.8977 C.ar    1  LIG1       -0.0476
     26 O          -1.4775   -6.5022    1.6709 O.3     1  LIG1       -0.4951
     27 C          -1.5453   -6.4323    3.0942 C.3     1  LIG1        0.0788
     28 H          -1.0312   -1.9419   -2.9426 H       1  LIG1        0.0693
     29 H          -1.1537    3.0430   -4.8294 H       1  LIG1        0.0660
     30 H           0.1461    3.9372   -3.9700 H       1  LIG1        0.0660
     31 H          -1.6177    4.2916   -3.7786 H       1  LIG1        0.0660
     32 H          -1.1352    6.1350   -1.1945 H       1  LIG1        0.0660
     33 H          -1.9326    4.5343   -0.9879 H       1  LIG1        0.0660
     34 H          -0.8063    4.9816   -2.3375 H       1  LIG1        0.0660
     35 H           2.4083    3.7188    3.0635 H       1  LIG1        0.0660
     36 H           0.6659    3.2553    2.8975 H       1  LIG1        0.0660
     37 H           1.2367    4.9265    2.7338 H       1  LIG1        0.0660
     38 H           3.3250    2.1633    1.9907 H       1  LIG1        0.0660
     39 H           3.3189    0.8427    3.1408 H       1  LIG1        0.0660
     40 H           1.8743    1.7315    3.0785 H       1  LIG1        0.0660
     41 H          -1.6581   -3.8316   -1.9271 H       1  LIG1        0.0626
     42 H          -2.2303   -5.8591   -0.6866 H       1  LIG1        0.0654
     43 H           0.2403   -4.5668    2.5891 H       1  LIG1        0.0654
     44 H           0.8433   -2.5824    1.3776 H       1  LIG1        0.0626
     45 H          -1.9405   -7.3840    3.4615 H       1  LIG1        0.0660
     46 H          -2.2290   -5.6365    3.4102 H       1  LIG1        0.0660
     47 H          -0.5573   -6.2999    3.5465 H       1  LIG1        0.0660
@<TRIPOS>BOND
     1     1     2    2
     2     2     3   ar
     3     3     4   ar
     4     4     5   ar
     5     5     6   ar
     6     6     7   ar
     7     2     7   ar
     8     7     8   ar
     9     8     9    1
    10     9    10    1
    11     8    11   ar
    12    11    12    1
    13    12    13    1
    14    11    14   ar
    15    14    15    1
    16    15    16    1
    17    14    17   ar
    18     6    17   ar
    19    17    18    1
    20    18    19    1
    21     4    20    1
    22    20    21   ar
    23    21    22   ar
    24    22    23   ar
    25    23    24   ar
    26    24    25   ar
    27    20    25   ar
    28    23    26    1
    29    26    27    1
    30     3    28    1
    31    10    29    1
    32    10    30    1
    33    10    31    1
    34    13    32    1
    35    13    33    1
    36    13    34    1
    37    16    35    1
    38    16    36    1
    39    16    37    1
    40    19    38    1
    41    19    39    1
    42    19    40    1
    43    21    41    1
    44    22    42    1
    45    24    43    1
    46    25    44    1
    47    27    45    1
    48    27    46    1
    49    27    47    1
