REMARK  Name = NuBBE_935
REMARK  7 active torsions:
REMARK  status: ('A' for Active; 'I' for Inactive)
REMARK    1  A    between atoms: O_1  and  C_2
REMARK    2  A    between atoms: O_1  and  C_3
REMARK    3  A    between atoms: C_14  and  C_19
REMARK    4  A    between atoms: C_16  and  O_18
REMARK    5  A    between atoms: C_19  and  C_20
REMARK    6  A    between atoms: C_19  and  C_21
REMARK    7  A    between atoms: C_19  and  O_22
REMARK                            x       y       z     vdW  Elec       q    Type
REMARK                         _______ _______ _______ _____ _____    ______ ____
ROOT
ATOM      1  C   LIG A   1      -0.586   1.201   0.950  0.00  0.00    +0.140 A 
ATOM      2  C   LIG A   1      -0.104  -0.080   0.767  0.00  0.00    +0.088 A 
ATOM      3  C   LIG A   1       1.203  -0.223   0.350  0.00  0.00    +0.225 A 
ATOM      4  N   LIG A   1       2.072   0.763   0.106  0.00  0.00    -0.212 NA
ATOM      5  C   LIG A   1       1.617   2.008   0.291  0.00  0.00    +0.078 A 
ATOM      6  C   LIG A   1       0.287   2.292   0.704  0.00  0.00    +0.043 A 
ATOM      7  C   LIG A   1      -0.105   3.642   0.848  0.00  0.00    +0.013 A 
ATOM      8  C   LIG A   1       0.784   4.685   0.596  0.00  0.00    +0.001 A 
ATOM      9  C   LIG A   1       2.081   4.397   0.192  0.00  0.00    +0.002 A 
ATOM     10  C   LIG A   1       2.480   3.067   0.045  0.00  0.00    +0.028 A 
ATOM     11  O   LIG A   1       1.567  -1.523   0.044  0.00  0.00    -0.467 OA
ATOM     12  C   LIG A   1       0.313  -2.246   0.052  0.00  0.00    +0.239 C 
ATOM     13  C   LIG A   1      -0.717  -1.421   0.854  0.00  0.00    +0.197 C 
ENDROOT
BRANCH  12  14
ATOM     14  C   LIG A   1      -0.151  -2.585  -1.395  0.00  0.00    +0.100 C 
ATOM     15  C   LIG A   1      -0.393  -1.356  -2.281  0.00  0.00    +0.045 C 
ATOM     16  C   LIG A   1       0.867  -3.506  -2.078  0.00  0.00    +0.045 C 
BRANCH  14  17
ATOM     17  O   LIG A   1      -1.390  -3.307  -1.298  0.00  0.00    -0.385 OA
ATOM     18  H   LIG A   1      -1.674  -3.536  -2.202  0.00  0.00    +0.210 HD
ENDBRANCH  14  17
ENDBRANCH  12  14
BRANCH   1  19
ATOM     19  O   LIG A   1      -1.889   1.521   1.237  0.00  0.00    -0.494 OA
ATOM     20  C   LIG A   1      -2.560   0.694   2.179  0.00  0.00    +0.277 C 
ENDBRANCH   1  19
BRANCH  13  21
ATOM     21  O   LIG A   1      -0.747  -1.812   2.226  0.00  0.00    -0.383 OA
ATOM     22  H   LIG A   1      -0.987  -2.755   2.250  0.00  0.00    +0.210 HD
ENDBRANCH  13  21
TORSDOF 4
