REMARK  Name = NuBBE_1860
REMARK  6 active torsions:
REMARK  status: ('A' for Active; 'I' for Inactive)
REMARK    1  A    between atoms: O_1  and  C_2
REMARK    2  A    between atoms: C_7  and  C_8
REMARK    3  A    between atoms: C_8  and  C_9
REMARK    4  A    between atoms: C_9  and  C_10
REMARK    5  A    between atoms: C_13  and  C_18
REMARK    6  A    between atoms: C_21  and  O_22
REMARK                            x       y       z     vdW  Elec       q    Type
REMARK                         _______ _______ _______ _____ _____    ______ ____
ROOT
ATOM      1  C   LIG A   1      -0.408   1.614   0.424  0.00  0.00    +0.119 C 
ATOM      2  O   LIG A   1       0.278   0.856  -0.576  0.00  0.00    -0.369 OA
ATOM      3  C   LIG A   1      -0.619   0.201  -1.483  0.00  0.00    +0.149 C 
ATOM      4  C   LIG A   1      -1.458   1.240  -2.238  0.00  0.00    +0.036 C 
ATOM      5  C   LIG A   1      -2.175   2.173  -1.265  0.00  0.00    +0.005 C 
ATOM      6  C   LIG A   1      -1.195   2.744  -0.245  0.00  0.00    +0.032 C 
ENDROOT
BRANCH   3   7
ATOM      7  C   LIG A   1       0.182  -0.660  -2.442  0.00  0.00    -0.019 A 
ATOM      8  C   LIG A   1       1.494  -0.318  -2.811  0.00  0.00    +0.010 A 
ATOM      9  C   LIG A   1       2.223  -1.113  -3.698  0.00  0.00    +0.046 A 
ATOM     10  C   LIG A   1       1.636  -2.254  -4.230  0.00  0.00    +0.117 A 
ATOM     11  C   LIG A   1       0.337  -2.610  -3.889  0.00  0.00    +0.046 A 
ATOM     12  C   LIG A   1      -0.390  -1.815  -2.999  0.00  0.00    +0.010 A 
BRANCH  10  13
ATOM     13  O   LIG A   1       2.308  -3.058  -5.102  0.00  0.00    -0.507 OA
ATOM     14  H   LIG A   1       3.190  -2.677  -5.251  0.00  0.00    +0.292 HD
ENDBRANCH  10  13
ENDBRANCH   3   7
BRANCH   1  15
ATOM     15  C   LIG A   1       0.630   2.178   1.404  0.00  0.00    +0.036 C 
BRANCH  15  16
ATOM     16  C   LIG A   1       1.471   1.096   2.097  0.00  0.00    +0.037 C 
BRANCH  16  22
ATOM     17  C   LIG A   1      -0.808  -1.695   4.455  0.00  0.00    +0.117 A 
ATOM     18  C   LIG A   1      -0.036  -2.158   3.395  0.00  0.00    +0.045 A 
ATOM     19  C   LIG A   1       0.702  -1.247   2.636  0.00  0.00    +0.007 A 
ATOM     20  C   LIG A   1      -0.840  -0.344   4.774  0.00  0.00    +0.045 A 
ATOM     21  C   LIG A   1      -0.097   0.565   4.019  0.00  0.00    +0.007 A 
ATOM     22  C   LIG A   1       0.674   0.124   2.934  0.00  0.00    -0.047 A 
BRANCH  17  23
ATOM     23  O   LIG A   1      -1.556  -2.547   5.213  0.00  0.00    -0.507 OA
ATOM     24  H   LIG A   1      -1.446  -3.446   4.863  0.00  0.00    +0.292 HD
ENDBRANCH  17  23
ENDBRANCH  16  22
ENDBRANCH  15  16
ENDBRANCH   1  15
TORSDOF 6
