@<TRIPOS>MOLECULE
NuBBE_1152
 42 42 0 0 0
SMALL
GASTEIGER

@<TRIPOS>ATOM
      1 O           0.0214    5.0047   -5.6677 O.2     1  LIG1       -0.2509
      2 C          -0.3545    4.5991   -4.5761 C.2     1  LIG1        0.3068
      3 C           0.4811    3.7043   -3.6787 C.3     1  LIG1        0.0449
      4 C          -0.3715    2.7873   -2.7958 C.3     1  LIG1       -0.0430
      5 C           0.4678    1.8636   -1.9123 C.3     1  LIG1       -0.0526
      6 C          -0.4253    0.9698   -1.0408 C.3     1  LIG1       -0.0530
      7 C           0.4018    0.0461   -0.1423 C.3     1  LIG1       -0.0530
      8 C          -0.4864   -0.8607    0.7172 C.3     1  LIG1       -0.0528
      9 C           0.3541   -1.7771    1.6122 C.3     1  LIG1       -0.0491
     10 C          -0.5272   -2.6775    2.4876 C.3     1  LIG1       -0.0277
     11 C           0.2744   -3.5966    3.3807 C.ar    1  LIG1       -0.0474
     12 C           0.1509   -4.9888    3.2708 C.ar    1  LIG1       -0.0586
     13 C           0.8897   -5.8357    4.1013 C.ar    1  LIG1       -0.0615
     14 C           1.7542   -5.3011    5.0542 C.ar    1  LIG1       -0.0617
     15 C           1.8765   -3.9197    5.1817 C.ar    1  LIG1       -0.0615
     16 C           1.1383   -3.0727    4.3531 C.ar    1  LIG1       -0.0586
     17 O          -1.5317    4.9301   -3.9716 O.3     1  LIG1       -0.4679
     18 C          -2.3860    5.7766   -4.7353 C.3     1  LIG1        0.0817
     19 H           1.1204    4.3486   -3.0652 H       1  LIG1        0.0377
     20 H           1.1244    3.0952   -4.3249 H       1  LIG1        0.0377
     21 H          -1.0344    2.1894   -3.4337 H       1  LIG1        0.0270
     22 H          -1.0174    3.3956   -2.1512 H       1  LIG1        0.0270
     23 H           1.1218    2.4663   -1.2707 H       1  LIG1        0.0265
     24 H           1.1122    1.2394   -2.5418 H       1  LIG1        0.0265
     25 H          -1.0780    0.3671   -1.6841 H       1  LIG1        0.0265
     26 H          -1.0769    1.5957   -0.4183 H       1  LIG1        0.0265
     27 H           1.0437    0.6518    0.5090 H       1  LIG1        0.0265
     28 H           1.0616   -0.5723   -0.7624 H       1  LIG1        0.0265
     29 H          -1.1266   -1.4718    0.0698 H       1  LIG1        0.0265
     30 H          -1.1477   -0.2455    1.3396 H       1  LIG1        0.0265
     31 H           1.0072   -1.1603    2.2414 H       1  LIG1        0.0268
     32 H           1.0104   -2.3978    0.9893 H       1  LIG1        0.0268
     33 H          -1.1877   -3.2716    1.8432 H       1  LIG1        0.0313
     34 H          -1.1827   -2.0656    3.1198 H       1  LIG1        0.0313
     35 H          -0.5224   -5.4275    2.5379 H       1  LIG1        0.0620
     36 H           0.7898   -6.9138    4.0050 H       1  LIG1        0.0618
     37 H           2.3296   -5.9599    5.6991 H       1  LIG1        0.0618
     38 H           2.5458   -3.4993    5.9275 H       1  LIG1        0.0618
     39 H           1.2425   -1.9970    4.4727 H       1  LIG1        0.0620
     40 H          -3.2662    5.9948   -4.1244 H       1  LIG1        0.0661
     41 H          -2.7138    5.2675   -5.6465 H       1  LIG1        0.0661
     42 H          -1.8834    6.7192   -4.9695 H       1  LIG1        0.0661
@<TRIPOS>BOND
     1     1     2    2
     2     2     3    1
     3     3     4    1
     4     4     5    1
     5     5     6    1
     6     6     7    1
     7     7     8    1
     8     8     9    1
     9     9    10    1
    10    10    11    1
    11    11    12   ar
    12    12    13   ar
    13    13    14   ar
    14    14    15   ar
    15    15    16   ar
    16    11    16   ar
    17     2    17    1
    18    17    18    1
    19     3    19    1
    20     3    20    1
    21     4    21    1
    22     4    22    1
    23     5    23    1
    24     5    24    1
    25     6    25    1
    26     6    26    1
    27     7    27    1
    28     7    28    1
    29     8    29    1
    30     8    30    1
    31     9    31    1
    32     9    32    1
    33    10    33    1
    34    10    34    1
    35    12    35    1
    36    13    36    1
    37    14    37    1
    38    15    38    1
    39    16    39    1
    40    18    40    1
    41    18    41    1
    42    18    42    1
