@<TRIPOS>MOLECULE
NuBBE_1837
 52 54 0 0 0
SMALL
GASTEIGER

@<TRIPOS>ATOM
      1 C          -2.4420    3.0269   -0.0490 C.3     1  LIG1       -0.0026
      2 C          -2.9497    3.0913    1.3607 C.2     1  LIG1       -0.0866
      3 C          -3.4001    4.2250    1.9562 C.2     1  LIG1       -0.1023
      4 C          -0.9482    3.1770   -0.1594 C.ar    1  LIG1        0.0442
      5 C          -0.0623    2.0996   -0.0491 C.ar    1  LIG1        0.1431
      6 C           1.3169    2.1806   -0.1378 C.ar    1  LIG1        0.0276
      7 C           1.8239    0.8457   -0.0540 C.ar    1  LIG1        0.0032
      8 C           0.7099    0.0311    0.0732 C.ar    1  LIG1        0.1394
      9 O          -0.4220    0.8007    0.1109 O.2     1  LIG1       -0.4541
     10 C           0.4568   -1.4055    0.1459 C.ar    1  LIG1        0.0247
     11 C           1.3944   -2.3165    0.6426 C.ar    1  LIG1       -0.0054
     12 C           1.0789   -3.6818    0.7758 C.ar    1  LIG1        0.1658
     13 O           2.1102   -4.4296    1.3033 O.3     1  LIG1       -0.4913
     14 C           1.9116   -5.8363    1.4201 C.3     1  LIG1        0.0790
     15 C          -0.2009   -4.1447    0.4027 C.ar    1  LIG1        0.2035
     16 C          -1.1236   -3.2457   -0.1528 C.ar    1  LIG1        0.1658
     17 C          -0.7896   -1.8947   -0.2697 C.ar    1  LIG1       -0.0054
     18 O          -2.3780   -3.7049   -0.4554 O.3     1  LIG1       -0.4913
     19 C          -3.0213   -3.0778   -1.5568 C.3     1  LIG1        0.0790
     20 O          -0.5158   -5.4366    0.7237 O.3     1  LIG1       -0.4885
     21 C          -1.3973   -6.1691   -0.1077 C.3     1  LIG1        0.0791
     22 C           3.2492    0.4461   -0.1673 C.3     1  LIG1       -0.0355
     23 C           1.9033    3.4402   -0.3242 C.ar    1  LIG1       -0.0053
     24 C           1.0816    4.5530   -0.5316 C.ar    1  LIG1        0.1624
     25 C          -0.3188    4.4027   -0.4579 C.ar    1  LIG1        0.1656
     26 O          -1.1374    5.4641   -0.7667 O.3     1  LIG1       -0.5030
     27 O           1.5708    5.8003   -0.8489 O.3     1  LIG1       -0.4914
     28 C           2.9961    5.8950   -0.9458 C.3     1  LIG1        0.0790
     29 H          -2.9542    3.7629   -0.6803 H       1  LIG1        0.0358
     30 H          -2.7345    2.0533   -0.4668 H       1  LIG1        0.0358
     31 H          -2.9928    2.1616    1.9140 H       1  LIG1        0.0570
     32 H          -3.3692    5.1731    1.4393 H       1  LIG1        0.0532
     33 H          -3.7775    4.2004    2.9684 H       1  LIG1        0.0532
     34 H           2.3697   -1.9747    0.9807 H       1  LIG1        0.0662
     35 H           1.7424   -6.2928    0.4371 H       1  LIG1        0.0660
     36 H           1.1076   -6.0629    2.1285 H       1  LIG1        0.0660
     37 H           2.8139   -6.2897    1.8372 H       1  LIG1        0.0660
     38 H          -1.5258   -1.1854   -0.6376 H       1  LIG1        0.0662
     39 H          -3.8503   -3.7237   -1.8595 H       1  LIG1        0.0660
     40 H          -2.3478   -2.9709   -2.4144 H       1  LIG1        0.0660
     41 H          -3.4405   -2.1136   -1.2574 H       1  LIG1        0.0660
     42 H          -1.1669   -7.2281    0.0445 H       1  LIG1        0.0660
     43 H          -1.2552   -5.9481   -1.1699 H       1  LIG1        0.0660
     44 H          -2.4313   -6.0170    0.2117 H       1  LIG1        0.0660
     45 H           3.8717    1.2714   -0.5296 H       1  LIG1        0.0279
     46 H           3.3673   -0.3803   -0.8747 H       1  LIG1        0.0279
     47 H           3.6376    0.1404    0.8082 H       1  LIG1        0.0279
     48 H           2.9825    3.4936   -0.3622 H       1  LIG1        0.0662
     49 H          -0.6655    5.9700   -1.4526 H       1  LIG1        0.2923
     50 H           3.2594    6.8866   -1.3223 H       1  LIG1        0.0660
     51 H           3.3980    5.1674   -1.6616 H       1  LIG1        0.0660
     52 H           3.4645    5.7705    0.0384 H       1  LIG1        0.0660
@<TRIPOS>BOND
     1     1     2    1
     2     2     3    2
     3     1     4    1
     4     4     5   ar
     5     5     6   ar
     6     6     7   ar
     7     7     8   ar
     8     8     9   ar
     9     5     9   ar
    10     8    10    1
    11    10    11   ar
    12    11    12   ar
    13    12    13    1
    14    13    14    1
    15    12    15   ar
    16    15    16   ar
    17    16    17   ar
    18    10    17   ar
    19    16    18    1
    20    18    19    1
    21    15    20    1
    22    20    21    1
    23     7    22    1
    24     6    23   ar
    25    23    24   ar
    26    24    25   ar
    27     4    25   ar
    28    25    26    1
    29    24    27    1
    30    27    28    1
    31     1    29    1
    32     1    30    1
    33     2    31    1
    34     3    32    1
    35     3    33    1
    36    11    34    1
    37    14    35    1
    38    14    36    1
    39    14    37    1
    40    17    38    1
    41    19    39    1
    42    19    40    1
    43    19    41    1
    44    21    42    1
    45    21    43    1
    46    21    44    1
    47    22    45    1
    48    22    46    1
    49    22    47    1
    50    23    48    1
    51    26    49    1
    52    28    50    1
    53    28    51    1
    54    28    52    1
