@<TRIPOS>MOLECULE
NuBBE_351
 69 72 0 0 0
SMALL
GASTEIGER

@<TRIPOS>ATOM
      1 O          -1.5125   -0.3298    2.9369 O.2     1  LIG1       -0.2965
      2 C          -1.9587   -0.1938    1.7954 C.2     1  LIG1        0.1468
      3 C          -3.3384    0.4051    1.5670 C.3     1  LIG1        0.0106
      4 C          -3.4064    1.8425    2.0780 C.3     1  LIG1       -0.0210
      5 C          -4.7633    2.4773    1.8637 C.ar    1  LIG1       -0.0470
      6 C          -5.5033    2.9592    2.9530 C.ar    1  LIG1       -0.0586
      7 C          -6.7496    3.5609    2.7576 C.ar    1  LIG1       -0.0615
      8 C          -7.2716    3.6878    1.4723 C.ar    1  LIG1       -0.0617
      9 C          -6.5462    3.2164    0.3812 C.ar    1  LIG1       -0.0615
     10 C          -5.2970    2.6219    0.5743 C.ar    1  LIG1       -0.0586
     11 C          -1.2082   -0.6798    0.5565 C.3     1  LIG1        0.1046
     12 C          -1.5196   -2.1745    0.2366 C.3     1  LIG1        0.0934
     13 C          -0.3475   -3.1284    0.2307 C.2     1  LIG1       -0.0126
     14 C           0.9324   -2.7219    0.3194 C.2     1  LIG1        0.1257
     15 C           1.2052   -1.3167    0.4298 C.2     1  LIG1        0.0433
     16 C           0.2629   -0.3962    0.6318 C.2     1  LIG1        0.1186
     17 O           0.7208    0.9166    0.7311 O.2     1  LIG1       -0.4881
     18 C           2.1866    0.7757    0.7545 C.3     1  LIG1        0.1388
     19 H           2.5623    1.5644    0.0873 H       1  LIG1        0.0771
     20 C           2.5211   -0.6396    0.2144 C.3     1  LIG1        0.0589
     21 H           3.3018   -1.1263    0.8043 H       1  LIG1        0.0438
     22 C           2.9121   -0.6027   -1.2655 C.ar    1  LIG1        0.0060
     23 C           2.0016   -0.1339   -2.2325 C.ar    1  LIG1       -0.0404
     24 C           2.3128   -0.1621   -3.5950 C.ar    1  LIG1        0.0595
     25 C           1.3299    0.3607   -4.5909 C.2     1  LIG1        0.3389
     26 O           1.5309   -0.3406   -5.7307 O.3     1  LIG1       -0.4645
     27 C           0.9984    0.2552   -6.9139 C.3     1  LIG1        0.0820
     28 O           0.5205    1.2573   -4.3754 O.2     1  LIG1       -0.2450
     29 C           3.5722   -0.6243   -4.0045 C.ar    1  LIG1       -0.0443
     30 C           4.4990   -1.0580   -3.0625 C.ar    1  LIG1       -0.0191
     31 C           4.1696   -1.0437   -1.7057 C.ar    1  LIG1        0.1208
     32 O           5.0967   -1.4561   -0.7921 O.3     1  LIG1       -0.5065
     33 C           2.7307    1.0689    2.1872 C.3     1  LIG1        0.0980
     34 O           2.3977    2.4270    2.5304 O.3     1  LIG1       -0.3854
     35 C           2.1293    0.1666    3.2689 C.3     1  LIG1       -0.0328
     36 C           4.2611    0.9838    2.2351 C.3     1  LIG1       -0.0328
     37 O           2.0578   -3.5034    0.3137 O.2     1  LIG1       -0.4949
     38 C           1.8965   -4.9048    0.1383 C.3     1  LIG1        0.0788
     39 O          -2.5049   -2.7307    1.1051 O.3     1  LIG1       -0.3865
     40 H          -4.0720   -0.2319    2.0740 H       1  LIG1        0.0345
     41 H          -3.5770    0.3615    0.4989 H       1  LIG1        0.0345
     42 H          -2.6487    2.4609    1.5796 H       1  LIG1        0.0317
     43 H          -3.1518    1.8621    3.1455 H       1  LIG1        0.0317
     44 H          -5.1152    2.8723    3.9658 H       1  LIG1        0.0620
     45 H          -7.3136    3.9314    3.6099 H       1  LIG1        0.0618
     46 H          -8.2410    4.1554    1.3210 H       1  LIG1        0.0618
     47 H          -6.9513    3.3139   -0.6227 H       1  LIG1        0.0618
     48 H          -4.7445    2.2751   -0.2954 H       1  LIG1        0.0620
     49 H          -1.5721   -0.0815   -0.2905 H       1  LIG1        0.0486
     50 H          -1.9535   -2.2130   -0.7710 H       1  LIG1        0.0650
     51 H          -0.5994   -4.1783    0.1303 H       1  LIG1        0.0634
     52 H           1.0249    0.2498   -1.9405 H       1  LIG1        0.0630
     53 H           1.7301    0.9797   -7.2823 H       1  LIG1        0.0661
     54 H           0.0305    0.7383   -6.7491 H       1  LIG1        0.0661
     55 H           0.8816   -0.5284   -7.6659 H       1  LIG1        0.0661
     56 H           3.8377   -0.6280   -5.0580 H       1  LIG1        0.0627
     57 H           5.4693   -1.3998   -3.4101 H       1  LIG1        0.0654
     58 H           5.8897   -1.7588   -1.2664 H       1  LIG1        0.2921
     59 H           1.4273    2.5010    2.4664 H       1  LIG1        0.2103
     60 H           1.0484    0.3143    3.3510 H       1  LIG1        0.0258
     61 H           2.5400    0.4086    4.2553 H       1  LIG1        0.0258
     62 H           2.3282   -0.8913    3.0735 H       1  LIG1        0.0258
     63 H           4.7111    1.6163    1.4617 H       1  LIG1        0.0258
     64 H           4.6282   -0.0379    2.1029 H       1  LIG1        0.0258
     65 H           4.6416    1.3508    3.1957 H       1  LIG1        0.0258
     66 H           2.8894   -5.3424   -0.0026 H       1  LIG1        0.0660
     67 H           1.3070   -5.1281   -0.7566 H       1  LIG1        0.0660
     68 H           1.4464   -5.3587    1.0273 H       1  LIG1        0.0660
     69 H          -2.0743   -2.8934    1.9663 H       1  LIG1        0.2103
@<TRIPOS>BOND
     1     1     2    2
     2     2     3    1
     3     3     4    1
     4     4     5    1
     5     5     6   ar
     6     6     7   ar
     7     7     8   ar
     8     8     9   ar
     9     9    10   ar
    10     5    10   ar
    11     2    11    1
    12    11    12    1
    13    12    13    1
    14    13    14    2
    15    14    15    1
    16    15    16    2
    17    11    16    1
    18    16    17    1
    19    17    18    1
    20    18    19    1
    21    18    20    1
    22    20    21    1
    23    15    20    1
    24    20    22    1
    25    22    23   ar
    26    23    24   ar
    27    24    25    1
    28    25    26    1
    29    26    27    1
    30    25    28    2
    31    24    29   ar
    32    29    30   ar
    33    30    31   ar
    34    22    31   ar
    35    31    32    1
    36    18    33    1
    37    33    34    1
    38    33    35    1
    39    33    36    1
    40    14    37    1
    41    37    38    1
    42    12    39    1
    43     3    40    1
    44     3    41    1
    45     4    42    1
    46     4    43    1
    47     6    44    1
    48     7    45    1
    49     8    46    1
    50     9    47    1
    51    10    48    1
    52    11    49    1
    53    12    50    1
    54    13    51    1
    55    23    52    1
    56    27    53    1
    57    27    54    1
    58    27    55    1
    59    29    56    1
    60    30    57    1
    61    32    58    1
    62    34    59    1
    63    35    60    1
    64    35    61    1
    65    35    62    1
    66    36    63    1
    67    36    64    1
    68    36    65    1
    69    38    66    1
    70    38    67    1
    71    38    68    1
    72    39    69    1
