REMARK  Name = NuBBE_666
REMARK  0 active torsions:
REMARK  status: ('A' for Active; 'I' for Inactive)
REMARK                            x       y       z     vdW  Elec       q    Type
REMARK                         _______ _______ _______ _____ _____    ______ ____
ROOT
ATOM      1  O   LIG A   1      -3.822  -0.382   0.165  0.00  0.00    -0.245 OA
ATOM      2  C   LIG A   1      -2.598  -0.409   0.159  0.00  0.00    +0.337 A 
ATOM      3  O   LIG A   1      -1.828   0.745   0.191  0.00  0.00    -0.422 OA
ATOM      4  C   LIG A   1      -0.425   0.683   0.088  0.00  0.00    +0.139 A 
ATOM      5  C   LIG A   1       0.265   1.892   0.027  0.00  0.00    +0.047 A 
ATOM      6  C   LIG A   1       1.650   1.874  -0.127  0.00  0.00    +0.004 A 
ATOM      7  C   LIG A   1       2.329   0.656  -0.202  0.00  0.00    +0.001 A 
ATOM      8  C   LIG A   1       1.626  -0.551  -0.119  0.00  0.00    +0.011 A 
ATOM      9  C   LIG A   1       0.237  -0.541   0.021  0.00  0.00    +0.018 A 
ATOM     10  C   LIG A   1      -0.542  -1.767   0.077  0.00  0.00    +0.018 A 
ATOM     11  C   LIG A   1      -1.875  -1.694   0.131  0.00  0.00    +0.092 A 
ENDROOT
TORSDOF 0
