@<TRIPOS>MOLECULE
NuBBE_50
 80 82 0 0 0
SMALL
GASTEIGER

@<TRIPOS>ATOM
      1 C          -1.8121    0.7928    4.2146 C.3     1  LIG1       -0.0594
      2 C          -1.1043    0.3103    2.9338 C.3     1  LIG1       -0.0083
      3 H          -1.3747   -0.7514    2.8653 H       1  LIG1        0.0330
      4 C           0.4157    0.3822    3.1007 C.3     1  LIG1        0.0962
      5 H           0.7329    1.4115    3.2984 H       1  LIG1        0.0633
      6 O           0.7665   -0.3496    4.2903 O.3     1  LIG1       -0.3878
      7 C           1.2003   -0.2196    1.9243 C.3     1  LIG1        0.1444
      8 H           1.4312   -1.2429    2.2480 H       1  LIG1        0.0771
      9 O           2.4662    0.5126    1.8492 O.3     1  LIG1       -0.4578
     10 C           3.6290   -0.2045    1.9353 C.2     1  LIG1        0.3043
     11 C           4.8059    0.6273    1.5106 C.3     1  LIG1        0.0332
     12 O           3.7043   -1.3781    2.2419 O.2     1  LIG1       -0.2512
     13 C           0.5001   -0.3042    0.5016 C.3     1  LIG1        0.1026
     14 C           0.7267   -1.7512    0.0942 C.2     1  LIG1        0.0125
     15 C           2.1003   -1.8986   -0.4822 C.3     1  LIG1        0.2315
     16 H           2.7745   -2.3874    0.2329 H       1  LIG1        0.1111
     17 O           1.9876   -2.7096   -1.6420 O.3     1  LIG1       -0.4309
     18 C           2.7243   -2.3747   -2.7213 C.2     1  LIG1        0.3095
     19 C           2.1178   -3.0420   -3.9226 C.3     1  LIG1        0.0448
     20 C           2.4170   -4.5300   -3.9137 C.3     1  LIG1       -0.0458
     21 C           1.8248   -5.2111   -5.1338 C.3     1  LIG1       -0.0648
     22 O           3.6910   -1.6335   -2.7745 O.2     1  LIG1       -0.2508
     23 O           2.5268   -0.5579   -0.7221 O.3     1  LIG1       -0.2971
     24 C           1.4005    0.3129   -0.6092 C.3     1  LIG1        0.2215
     25 H           1.7621    1.2986   -0.2957 H       1  LIG1        0.1068
     26 O           0.7076    0.4972   -1.8556 O.3     1  LIG1       -0.4341
     27 C           1.3625    1.3238   -2.7195 C.2     1  LIG1        0.3061
     28 C           0.3832    2.0830   -3.5621 C.3     1  LIG1        0.0333
     29 O           2.5584    1.5796   -2.7058 O.2     1  LIG1       -0.2511
     30 C          -0.1959   -2.7310    0.1817 C.2     1  LIG1       -0.0497
     31 C          -1.6168   -2.4553    0.5164 C.3     1  LIG1        0.0772
     32 H          -1.8089   -2.5376    1.5906 H       1  LIG1        0.0640
     33 O          -2.4706   -3.3783   -0.1760 O.3     1  LIG1       -0.3757
     34 C          -2.3182   -4.7336    0.2376 C.3     1  LIG1        0.0372
     35 C          -1.9756   -1.0516    0.0021 C.3     1  LIG1       -0.0185
     36 C          -1.0271    0.1301    0.4124 C.3     1  LIG1       -0.0136
     37 H          -1.1143    0.7977   -0.4512 H       1  LIG1        0.0319
     38 C          -1.5640    1.0160    1.6126 C.3     1  LIG1       -0.0196
     39 C          -3.1129    1.1258    1.6120 C.3     1  LIG1       -0.0587
     40 C          -1.0178    2.5043    1.5073 C.3     1  LIG1       -0.0282
     41 C          -1.4985    3.3597    0.3353 C.2     1  LIG1       -0.0806
     42 C          -2.1217    4.5615    0.3606 C.2     1  LIG1       -0.0549
     43 C          -2.4162    5.2716    1.5966 C.2     1  LIG1       -0.0662
     44 C          -3.4019    6.1618    1.7736 C.2     1  LIG1       -0.0985
     45 C          -2.4782    5.2954   -0.9183 C.3     1  LIG1       -0.0400
     46 H          -1.6630    1.8606    4.3907 H       1  LIG1        0.0233
     47 H          -1.4461    0.2532    5.0955 H       1  LIG1        0.0233
     48 H          -2.8872    0.5919    4.1755 H       1  LIG1        0.0233
     49 H           1.7293   -0.2771    4.4190 H       1  LIG1        0.2099
     50 H           5.6987    0.2586    2.0226 H       1  LIG1        0.0342
     51 H           4.6605    1.6722    1.7951 H       1  LIG1        0.0342
     52 H           4.9493    0.5512    0.4303 H       1  LIG1        0.0342
     53 H           2.5277   -2.5602   -4.8137 H       1  LIG1        0.0377
     54 H           1.0393   -2.8400   -3.9166 H       1  LIG1        0.0377
     55 H           2.0187   -5.0017   -3.0076 H       1  LIG1        0.0268
     56 H           3.5026   -4.6851   -3.8965 H       1  LIG1        0.0268
     57 H           0.7337   -5.1184   -5.1427 H       1  LIG1        0.0230
     58 H           2.0779   -6.2743   -5.1298 H       1  LIG1        0.0230
     59 H           2.2154   -4.7688   -6.0561 H       1  LIG1        0.0230
     60 H           0.9026    2.5192   -4.4202 H       1  LIG1        0.0342
     61 H          -0.0311    2.8916   -2.9541 H       1  LIG1        0.0342
     62 H          -0.4179    1.4388   -3.9326 H       1  LIG1        0.0342
     63 H           0.1058   -3.7416   -0.0748 H       1  LIG1        0.0599
     64 H          -3.1713   -5.3098   -0.1288 H       1  LIG1        0.0524
     65 H          -2.2713   -4.8161    1.3273 H       1  LIG1        0.0524
     66 H          -1.4212   -5.1714   -0.2111 H       1  LIG1        0.0524
     67 H          -3.0261   -0.8575    0.2301 H       1  LIG1        0.0296
     68 H          -1.9786   -1.0880   -1.1000 H       1  LIG1        0.0296
     69 H          -3.5814    0.2180    2.0100 H       1  LIG1        0.0235
     70 H          -3.5095    1.2997    0.6065 H       1  LIG1        0.0235
     71 H          -3.4565    1.9562    2.2407 H       1  LIG1        0.0235
     72 H          -1.2568    3.0087    2.4484 H       1  LIG1        0.0313
     73 H           0.0756    2.4947    1.4430 H       1  LIG1        0.0313
     74 H          -1.2857    2.9431   -0.6477 H       1  LIG1        0.0575
     75 H          -1.7698    5.0705    2.4464 H       1  LIG1        0.0614
     76 H          -4.1152    6.4204    0.9980 H       1  LIG1        0.0535
     77 H          -3.5307    6.6464    2.7365 H       1  LIG1        0.0535
     78 H          -3.5639    5.3566   -1.0527 H       1  LIG1        0.0277
     79 H          -2.0611    4.8180   -1.8111 H       1  LIG1        0.0277
     80 H          -2.0801    6.3186   -0.8940 H       1  LIG1        0.0277
@<TRIPOS>BOND
     1     2     4    1
     2     4     7    1
     3     9    10    1
     4    10    11    1
     5    10    12    2
     6     7    13    1
     7    13    14    1
     8    14    15    1
     9    17    18    1
    10    18    19    1
    11    19    20    1
    12    20    21    1
    13    18    22    2
    14    15    23    1
    15    23    24    1
    16    13    24    1
    17    26    27    1
    18    27    28    1
    19    27    29    2
    20    14    30    2
    21    30    31    1
    22    33    34    1
    23    31    35    1
    24    35    36    1
    25    13    36    1
    26    36    38    1
    27     2    38    1
    28    40    41    1
    29    41    42    2
    30    42    43    1
    31    43    44    2
    32    42    45    1
    33     7     8    1
    34     7     9    1
    35    15    16    1
    36    15    17    1
    37    24    25    1
    38    24    26    1
    39    36    37    1
    40    38    39    1
    41    38    40    1
    42     4     6    1
    43     4     5    1
    44     2     3    1
    45     2     1    1
    46    31    33    1
    47    31    32    1
    48     1    46    1
    49     1    47    1
    50     1    48    1
    51     6    49    1
    52    11    50    1
    53    11    51    1
    54    11    52    1
    55    19    53    1
    56    19    54    1
    57    20    55    1
    58    20    56    1
    59    21    57    1
    60    21    58    1
    61    21    59    1
    62    28    60    1
    63    28    61    1
    64    28    62    1
    65    30    63    1
    66    34    64    1
    67    34    65    1
    68    34    66    1
    69    35    67    1
    70    35    68    1
    71    39    69    1
    72    39    70    1
    73    39    71    1
    74    40    72    1
    75    40    73    1
    76    41    74    1
    77    43    75    1
    78    44    76    1
    79    44    77    1
    80    45    78    1
    81    45    79    1
    82    45    80    1
