REMARK  Name = NuBBE_2518
REMARK  7 active torsions:
REMARK  status: ('A' for Active; 'I' for Inactive)
REMARK    1  A    between atoms: C_1  and  C_2
REMARK    2  A    between atoms: C_1  and  C_4
REMARK    3  A    between atoms: C_5  and  O_6
REMARK    4  A    between atoms: C_9  and  C_14
REMARK    5  A    between atoms: C_11  and  C_13
REMARK    6  A    between atoms: C_23  and  O_28
REMARK    7  A    between atoms: O_28  and  C_29
REMARK                            x       y       z     vdW  Elec       q    Type
REMARK                         _______ _______ _______ _____ _____    ______ ____
ROOT
ATOM      1  C   LIG A   1      -1.180  -1.030  -0.765  0.00  0.00    +0.010 C 
ATOM      2  C   LIG A   1       0.102  -1.671  -0.197  0.00  0.00    +0.128 C 
ATOM      3  C   LIG A   1       1.154  -0.697  -0.712  0.00  0.00    +0.062 C 
ATOM      4  C   LIG A   1       0.586   0.662  -0.226  0.00  0.00    +0.031 C 
ATOM      5  C   LIG A   1      -0.957   0.496  -0.446  0.00  0.00    +0.003 C 
ATOM      6  C   LIG A   1      -1.472   1.485  -1.497  0.00  0.00    +0.009 C 
ATOM      7  C   LIG A   1       1.326  -0.794  -2.257  0.00  0.00    +0.190 C 
ATOM      8  C   LIG A   1      -0.001  -0.970  -3.015  0.00  0.00    +0.163 C 
ATOM      9  O   LIG A   1      -0.058  -0.887  -4.245  0.00  0.00    -0.295 OA
ATOM     10  C   LIG A   1      -1.245  -1.359  -2.268  0.00  0.00    +0.087 C 
ENDROOT
BRANCH   4  11
ATOM     11  C   LIG A   1       0.914   1.019   1.237  0.00  0.00    -0.040 A 
ATOM     12  C   LIG A   1       1.725   0.214   2.060  0.00  0.00    +0.053 A 
ATOM     13  C   LIG A   1       1.967   0.605   3.360  0.00  0.00    +0.167 A 
ATOM     14  C   LIG A   1       1.454   1.765   3.877  0.00  0.00    +0.166 A 
ATOM     15  C   LIG A   1       0.669   2.600   3.115  0.00  0.00    +0.050 A 
ATOM     16  C   LIG A   1       0.404   2.224   1.788  0.00  0.00    +0.008 A 
ATOM     17  O   LIG A   1       1.815   1.956   5.174  0.00  0.00    -0.453 OA
ATOM     18  C   LIG A   1       2.598   0.767   5.416  0.00  0.00    +0.466 C 
ATOM     19  O   LIG A   1       2.715  -0.087   4.261  0.00  0.00    -0.453 OA
ENDBRANCH   4  11
BRANCH   2  20
ATOM     20  O   LIG A   1       0.332  -2.987  -0.658  0.00  0.00    -0.391 OA
ATOM     21  H   LIG A   1       1.062  -3.360  -0.130  0.00  0.00    +0.210 HD
ENDBRANCH   2  20
BRANCH   7  22
ATOM     22  O   LIG A   1       2.167   0.293  -2.631  0.00  0.00    -0.372 OA
ATOM     23  C   LIG A   1       2.470   0.350  -4.019  0.00  0.00    +0.195 C 
ENDBRANCH   7  22
BRANCH   1  24
ATOM     24  C   LIG A   1      -2.426  -1.603  -0.039  0.00  0.00    +0.036 C 
BRANCH  24  25
ATOM     25  C   LIG A   1      -3.744  -1.054  -0.516  0.00  0.00    -0.034 C 
ATOM     26  C   LIG A   1      -4.601  -0.367   0.250  0.00  0.00    +0.004 C 
ENDBRANCH  24  25
ENDBRANCH   1  24
TORSDOF 5
