@<TRIPOS>MOLECULE
NuBBE_617
 39 41 0 0 0
SMALL
GASTEIGER

@<TRIPOS>ATOM
      1 O          -3.5298    0.4745   -1.2113 O.2     1  LIG1       -0.2891
      2 C          -2.3919    0.3353   -0.7809 C.2     1  LIG1        0.1944
      3 C          -1.5398   -0.8399   -1.1128 C.3     1  LIG1        0.1809
      4 C          -1.7085   -1.3801   -2.4858 C.2     1  LIG1       -0.0101
      5 C          -1.3291   -0.4532   -3.6118 C.3     1  LIG1        0.0682
      6 O           0.0716   -0.5660   -3.8288 O.3     1  LIG1       -0.3906
      7 C          -2.1852   -2.6122   -2.7472 C.2     1  LIG1       -0.0941
      8 O          -1.2760   -1.6733    0.0407 O.3     1  LIG1       -0.3507
      9 C          -0.1575   -0.9755   -0.5167 C.3     1  LIG1        0.1099
     10 H           0.5772   -1.5773   -1.0385 H       1  LIG1        0.0642
     11 C           0.4385    0.1484    0.3217 C.3     1  LIG1        0.0239
     12 C           1.6134    0.7293   -0.5093 C.3     1  LIG1       -0.0530
     13 C           0.9274   -0.4306    1.7013 C.3     1  LIG1       -0.0062
     14 H           0.0681   -0.9127    2.1922 H       1  LIG1        0.0332
     15 C           1.9893   -1.5353    1.5581 C.3     1  LIG1       -0.0592
     16 C           1.4309    0.6781    2.6575 C.3     1  LIG1        0.0590
     17 H           2.3575    1.1241    2.2779 H       1  LIG1        0.0596
     18 O           1.7197    0.1446    3.9497 O.3     1  LIG1       -0.3915
     19 C           0.3877    1.7759    2.8555 C.3     1  LIG1       -0.0229
     20 C          -0.0632    2.3792    1.5356 C.3     1  LIG1       -0.0284
     21 C          -0.5486    1.2977    0.5983 C.2     1  LIG1       -0.0573
     22 C          -1.7959    1.3659    0.1001 C.2     1  LIG1       -0.0160
     23 H          -1.5544    0.5908   -3.3732 H       1  LIG1        0.0605
     24 H          -1.8562   -0.7060   -4.5382 H       1  LIG1        0.0605
     25 H           0.2660   -0.0585   -4.6351 H       1  LIG1        0.2098
     26 H          -2.4630   -3.2840   -1.9404 H       1  LIG1        0.0536
     27 H          -2.2884   -2.9813   -3.7621 H       1  LIG1        0.0536
     28 H           2.3236   -0.0514   -0.8045 H       1  LIG1        0.0239
     29 H           2.1801    1.4953    0.0276 H       1  LIG1        0.0239
     30 H           1.2449    1.1825   -1.4384 H       1  LIG1        0.0239
     31 H           2.9384   -1.1367    1.1873 H       1  LIG1        0.0233
     32 H           1.6604   -2.3289    0.8811 H       1  LIG1        0.0233
     33 H           2.1852   -2.0158    2.5224 H       1  LIG1        0.0233
     34 H           2.5404   -0.3722    3.8865 H       1  LIG1        0.2098
     35 H           0.7978    2.5609    3.5032 H       1  LIG1        0.0293
     36 H          -0.4766    1.3704    3.3990 H       1  LIG1        0.0293
     37 H           0.7607    2.9322    1.0705 H       1  LIG1        0.0311
     38 H          -0.8492    3.1180    1.7350 H       1  LIG1        0.0311
     39 H          -2.4654    2.1878    0.3335 H       1  LIG1        0.0653
@<TRIPOS>BOND
     1     1     2    2
     2     2     3    1
     3     3     4    1
     4     4     5    1
     5     5     6    1
     6     4     7    2
     7     3     8    1
     8     3     9    1
     9     9    10    1
    10     8     9    1
    11     9    11    1
    12    11    12    1
    13    11    13    1
    14    13    16    1
    15    16    17    1
    16    16    18    1
    17    16    19    1
    18    19    20    1
    19    20    21    1
    20    11    21    1
    21    21    22    2
    22     2    22    1
    23    13    15    1
    24    13    14    1
    25     5    23    1
    26     5    24    1
    27     6    25    1
    28     7    26    1
    29     7    27    1
    30    12    28    1
    31    12    29    1
    32    12    30    1
    33    15    31    1
    34    15    32    1
    35    15    33    1
    36    18    34    1
    37    19    35    1
    38    19    36    1
    39    20    37    1
    40    20    38    1
    41    22    39    1
