REMARK  Name = NuBBE_1183
REMARK  7 active torsions:
REMARK  status: ('A' for Active; 'I' for Inactive)
REMARK    1  A    between atoms: C_1  and  C_2
REMARK    2  A    between atoms: C_7  and  C_9
REMARK    3  A    between atoms: C_11  and  O_15
REMARK    4  A    between atoms: C_20  and  C_33
REMARK    5  A    between atoms: C_22  and  C_23
REMARK    6  A    between atoms: C_22  and  C_28
REMARK    7  A    between atoms: C_29  and  O_30
REMARK                            x       y       z     vdW  Elec       q    Type
REMARK                         _______ _______ _______ _____ _____    ______ ____
ROOT
ATOM      1  C   LIG A   1      -1.309  -0.646   0.907  0.00  0.00    +0.014 C 
ATOM      2  C   LIG A   1      -1.441  -0.440  -0.608  0.00  0.00    +0.007 C 
ATOM      3  C   LIG A   1      -1.419   1.041  -0.953  0.00  0.00    +0.112 C 
ATOM      4  C   LIG A   1      -2.489   1.286  -1.974  0.00  0.00    +0.153 C 
ATOM      5  C   LIG A   1      -3.194   0.004  -2.282  0.00  0.00    +0.043 C 
ATOM      6  C   LIG A   1      -2.902  -0.902  -1.059  0.00  0.00    +0.037 C 
ATOM      7  O   LIG A   1      -2.612   1.774  -0.636  0.00  0.00    -0.363 OA
ATOM      8  C   LIG A   1      -0.142   1.837  -1.032  0.00  0.00    +0.102 C 
ATOM      9  C   LIG A   1       1.127   0.990  -1.169  0.00  0.00    +0.016 C 
ATOM     10  C   LIG A   1       2.095   0.814   0.092  0.00  0.00    +0.016 C 
ATOM     11  C   LIG A   1       1.782   1.766   1.287  0.00  0.00    -0.002 C 
ATOM     12  C   LIG A   1       2.549   1.481   2.635  0.00  0.00    +0.053 C 
ATOM     13  C   LIG A   1       4.057   1.794   2.542  0.00  0.00    +0.024 C 
ATOM     14  C   LIG A   1       2.388  -0.018   2.971  0.00  0.00    +0.166 C 
ATOM     15  C   LIG A   1       2.301  -1.000   1.869  0.00  0.00    +0.044 C 
ATOM     16  C   LIG A   1       2.198  -0.618   0.591  0.00  0.00    -0.012 C 
ATOM     17  O   LIG A   1       2.424  -0.470   4.117  0.00  0.00    -0.292 OA
ATOM     18  C   LIG A   1       2.039   2.242   3.889  0.00  0.00    +0.024 C 
ATOM     19  C   LIG A   1       0.856   2.742   1.176  0.00  0.00    +0.161 C 
ATOM     20  C   LIG A   1      -0.009   2.929  -0.017  0.00  0.00    +0.203 C 
ATOM     21  O   LIG A   1      -0.641   3.987  -0.084  0.00  0.00    -0.288 OA
ATOM     22  C   LIG A   1       3.514   1.127  -0.480  0.00  0.00    +0.020 C 
ATOM     23  C   LIG A   1       0.789  -0.273  -1.983  0.00  0.00    +0.006 C 
ATOM     24  C   LIG A   1      -0.317  -1.164  -1.399  0.00  0.00    +0.010 C 
ENDROOT
BRANCH   6  25
ATOM     25  C   LIG A   1      -3.201  -2.355  -1.278  0.00  0.00    +0.042 C 
ATOM     26  C   LIG A   1      -2.534  -3.472  -0.987  0.00  0.00    +0.057 C 
ATOM     27  C   LIG A   1      -3.267  -4.671  -1.419  0.00  0.00    +0.334 C 
ATOM     28  O   LIG A   1      -4.454  -4.175  -1.999  0.00  0.00    -0.428 OA
ATOM     29  C   LIG A   1      -4.456  -2.818  -1.901  0.00  0.00    +0.338 C 
ATOM     30  O   LIG A   1      -5.368  -2.102  -2.268  0.00  0.00    -0.245 OA
BRANCH  27  31
ATOM     31  O   LIG A   1      -2.486  -5.344  -2.379  0.00  0.00    -0.354 OA
ATOM     32  H   LIG A   1      -2.989  -6.147  -2.598  0.00  0.00    +0.214 HD
ENDBRANCH  27  31
ENDBRANCH   6  25
BRANCH  19  33
ATOM     33  O   LIG A   1       0.636   3.685   2.161  0.00  0.00    -0.503 OA
ATOM     34  H   LIG A   1      -0.043   4.295   1.793  0.00  0.00    +0.292 HD
ENDBRANCH  19  33
TORSDOF 3
