REMARK  Name = NuBBE_142
REMARK  18 active torsions:
REMARK  status: ('A' for Active; 'I' for Inactive)
REMARK    1  A    between atoms: O_1  and  C_2
REMARK    2  A    between atoms: C_4  and  O_5
REMARK    3  A    between atoms: C_8  and  O_9
REMARK    4  A    between atoms: O_9  and  C_10
REMARK    5  A    between atoms: C_12  and  O_25
REMARK    6  A    between atoms: C_14  and  O_24
REMARK    7  A    between atoms: C_16  and  O_23
REMARK    8  A    between atoms: C_18  and  C_21
REMARK    9  A    between atoms: C_21  and  O_22
REMARK   10  A    between atoms: O_25  and  C_26
REMARK   11  A    between atoms: C_29  and  C_40
REMARK   12  A    between atoms: C_31  and  O_39
REMARK   13  A    between atoms: C_33  and  O_38
REMARK   14  A    between atoms: C_35  and  O_37
REMARK   15  A    between atoms: C_40  and  O_41
REMARK   16  A    between atoms: C_42  and  C_46
REMARK   17  A    between atoms: C_48  and  O_49
REMARK   18  A    between atoms: C_50  and  O_53
REMARK                            x       y       z     vdW  Elec       q    Type
REMARK                         _______ _______ _______ _____ _____    ______ ____
ROOT
ATOM      1  C   LIG A   1      -1.531   1.331  -0.662  0.00  0.00    +0.340 C 
ATOM      2  C   LIG A   1      -1.902   0.069   0.217  0.00  0.00    +0.221 C 
ATOM      3  C   LIG A   1      -3.413  -0.114   0.247  0.00  0.00    +0.180 C 
ATOM      4  C   LIG A   1      -4.007  -0.210  -1.152  0.00  0.00    +0.177 C 
ATOM      5  C   LIG A   1      -3.309   0.640  -2.230  0.00  0.00    +0.179 C 
ATOM      6  O   LIG A   1      -2.502   1.683  -1.688  0.00  0.00    -0.331 OA
ENDROOT
BRANCH   3   7
ATOM      7  O   LIG A   1      -4.051   0.897   1.023  0.00  0.00    -0.386 OA
ATOM      8  H   LIG A   1      -4.145   0.525   1.921  0.00  0.00    +0.210 HD
ENDBRANCH   3   7
BRANCH   4   9
ATOM      9  O   LIG A   1      -3.998  -1.587  -1.570  0.00  0.00    -0.387 OA
ATOM     10  H   LIG A   1      -3.067  -1.813  -1.763  0.00  0.00    +0.210 HD
ENDBRANCH   4   9
BRANCH   2  11
ATOM     11  O   LIG A   1      -1.249  -1.163  -0.189  0.00  0.00    -0.337 OA
BRANCH  11  12
ATOM     12  C   LIG A   1      -1.396  -2.279   0.741  0.00  0.00    +0.282 C 
ATOM     13  O   LIG A   1      -0.965  -1.965   2.068  0.00  0.00    -0.341 OA
ATOM     14  C   LIG A   1      -1.095  -3.075   2.974  0.00  0.00    +0.178 C 
ATOM     15  C   LIG A   1      -0.157  -4.223   2.567  0.00  0.00    +0.177 C 
ATOM     16  C   LIG A   1      -0.454  -4.656   1.134  0.00  0.00    +0.179 C 
ATOM     17  C   LIG A   1      -0.635  -3.492   0.149  0.00  0.00    +0.201 C 
BRANCH  15  18
ATOM     18  O   LIG A   1      -0.317  -5.397   3.386  0.00  0.00    -0.387 OA
ATOM     19  H   LIG A   1      -0.464  -5.090   4.308  0.00  0.00    +0.210 HD
ENDBRANCH  15  18
BRANCH  16  20
ATOM     20  O   LIG A   1       0.624  -5.497   0.679  0.00  0.00    -0.386 OA
ATOM     21  H   LIG A   1       0.644  -6.262   1.285  0.00  0.00    +0.210 HD
ENDBRANCH  16  20
BRANCH  17  22
ATOM     22  O   LIG A   1      -1.318  -3.983  -1.030  0.00  0.00    -0.384 OA
ATOM     23  H   LIG A   1      -2.280  -3.969  -0.872  0.00  0.00    +0.210 HD
ENDBRANCH  17  22
BRANCH  14  24
ATOM     24  C   LIG A   1      -0.774  -2.614   4.407  0.00  0.00    +0.190 C 
BRANCH  24  25
ATOM     25  O   LIG A   1      -0.888  -3.712   5.316  0.00  0.00    -0.392 OA
ATOM     26  H   LIG A   1      -0.809  -3.349   6.218  0.00  0.00    +0.209 HD
ENDBRANCH  24  25
ENDBRANCH  14  24
ENDBRANCH  11  12
ENDBRANCH   2  11
BRANCH   5  27
ATOM     27  C   LIG A   1      -4.471   1.207  -3.098  0.00  0.00    +0.190 C 
BRANCH  27  28
ATOM     28  O   LIG A   1      -4.040   1.994  -4.200  0.00  0.00    -0.392 OA
ATOM     29  H   LIG A   1      -4.848   2.358  -4.605  0.00  0.00    +0.209 HD
ENDBRANCH  27  28
ENDBRANCH   5  27
BRANCH   1  30
ATOM     30  O   LIG A   1      -0.186   1.248  -1.197  0.00  0.00    -0.453 OA
BRANCH  30  36
ATOM     31  C   LIG A   1       4.446   3.577   2.739  0.00  0.00    +0.124 A 
ATOM     32  C   LIG A   1       3.480   3.041   3.585  0.00  0.00    +0.091 A 
ATOM     33  C   LIG A   1       2.312   2.512   3.032  0.00  0.00    +0.135 A 
ATOM     34  C   LIG A   1       2.103   2.516   1.639  0.00  0.00    +0.109 A 
ATOM     35  C   LIG A   1       0.840   2.049   1.002  0.00  0.00    +0.238 A 
ATOM     36  C   LIG A   1       0.884   1.832  -0.514  0.00  0.00    +0.214 A 
ATOM     37  C   LIG A   1       2.025   2.218  -1.149  0.00  0.00    +0.181 A 
ATOM     38  O   LIG A   1       3.051   2.927  -0.544  0.00  0.00    -0.451 OA
ATOM     39  C   LIG A   1       3.114   3.000   0.815  0.00  0.00    +0.146 A 
ATOM     40  C   LIG A   1       4.273   3.553   1.362  0.00  0.00    +0.092 A 
ATOM     41  O   LIG A   1      -0.132   1.868   1.655  0.00  0.00    -0.283 OA
BRANCH  37  42
ATOM     42  C   LIG A   1       2.324   1.928  -2.578  0.00  0.00    +0.025 A 
ATOM     43  C   LIG A   1       3.142   2.794  -3.338  0.00  0.00    +0.060 A 
ATOM     44  C   LIG A   1       3.416   2.503  -4.674  0.00  0.00    +0.159 A 
ATOM     45  C   LIG A   1       2.868   1.382  -5.283  0.00  0.00    +0.158 A 
ATOM     46  C   LIG A   1       2.139   0.474  -4.539  0.00  0.00    +0.050 A 
ATOM     47  C   LIG A   1       1.899   0.733  -3.186  0.00  0.00    +0.015 A 
BRANCH  45  48
ATOM     48  O   LIG A   1       3.064   1.158  -6.614  0.00  0.00    -0.503 OA
ATOM     49  H   LIG A   1       3.483   1.977  -6.944  0.00  0.00    +0.292 HD
ENDBRANCH  45  48
BRANCH  44  50
ATOM     50  O   LIG A   1       4.251   3.286  -5.423  0.00  0.00    -0.503 OA
ATOM     51  H   LIG A   1       5.035   3.454  -4.869  0.00  0.00    +0.292 HD
ENDBRANCH  44  50
ENDBRANCH  37  42
BRANCH  31  52
ATOM     52  O   LIG A   1       5.598   4.118   3.223  0.00  0.00    -0.506 OA
ATOM     53  H   LIG A   1       5.550   4.172   4.192  0.00  0.00    +0.292 HD
ENDBRANCH  31  52
BRANCH  33  54
ATOM     54  O   LIG A   1       1.392   1.950   3.878  0.00  0.00    -0.506 OA
ATOM     55  H   LIG A   1       1.760   1.871   4.772  0.00  0.00    +0.292 HD
ENDBRANCH  33  54
ENDBRANCH  30  36
ENDBRANCH   1  30
TORSDOF 18
