@<TRIPOS>MOLECULE
NuBBE_328
 51 55 0 0 0
SMALL
GASTEIGER

@<TRIPOS>ATOM
      1 H           3.3267    3.2630    1.5592 H       1  LIG1        0.1548
      2 N           2.9050    2.3479    1.5111 N.am    1  LIG1       -0.2845
      3 C           3.5730    1.1665    1.2287 C.ar    1  LIG1        0.0376
      4 C           4.9234    0.9994    1.0044 C.ar    1  LIG1       -0.0402
      5 C           5.3739   -0.2945    0.7308 C.ar    1  LIG1       -0.0600
      6 C           4.4740   -1.3733    0.6830 C.ar    1  LIG1       -0.0614
      7 C           3.1105   -1.1786    0.9229 C.ar    1  LIG1       -0.0558
      8 C           2.6697    0.1053    1.1999 C.ar    1  LIG1       -0.0097
      9 C           1.2916    0.6180    1.5666 C.3     1  LIG1        0.0904
     10 C           0.1017    0.2738    0.6601 C.3     1  LIG1        0.0290
     11 H          -0.7139    0.9897    0.8448 H       1  LIG1        0.0476
     12 C           0.3306    0.2064   -0.8464 C.3     1  LIG1       -0.0285
     13 C          -0.8860   -0.4033   -1.5885 C.3     1  LIG1        0.0026
     14 H          -0.5588   -0.5669   -2.6245 H       1  LIG1        0.0357
     15 C          -1.2125   -1.7739   -0.9382 C.3     1  LIG1        0.0157
     16 C          -1.4622   -1.6080    0.5824 C.3     1  LIG1        0.0060
     17 N          -0.2690   -1.0465    1.1980 N.3     1  LIG1       -0.2976
     18 C          -0.3673   -0.8258    2.6383 C.3     1  LIG1        0.0005
     19 C           0.8535    0.0498    2.9386 C.3     1  LIG1       -0.0206
     20 H          -0.3472   -2.4409   -1.0642 H       1  LIG1        0.0355
     21 C          -2.1717    0.3937   -1.6702 C.2     1  LIG1        0.0742
     22 C          -2.1539    1.8800   -1.6876 C.2     1  LIG1        0.3381
     23 O          -3.3056    2.3669   -1.1539 O.3     1  LIG1       -0.4646
     24 C          -3.3499    3.7845   -0.9950 C.3     1  LIG1        0.0820
     25 O          -1.2071    2.5466   -2.0648 O.2     1  LIG1       -0.2452
     26 C          -3.3622   -0.2314   -1.7255 C.2     1  LIG1        0.0951
     27 O          -3.5827   -1.5809   -1.6733 O.2     1  LIG1       -0.4957
     28 C          -2.4294   -2.4301   -1.6131 C.3     1  LIG1        0.1011
     29 H          -2.7282   -3.3016   -1.0170 H       1  LIG1        0.0733
     30 C          -2.1255   -2.9462   -3.0194 C.3     1  LIG1       -0.0275
     31 C           1.5387    2.1371    1.6675 C.2     1  LIG1        0.2293
     32 O           0.7123    3.0064    1.8929 O.2     1  LIG1       -0.2744
     33 H           5.6173    1.8313    1.0446 H       1  LIG1        0.0636
     34 H           6.4333   -0.4729    0.5543 H       1  LIG1        0.0618
     35 H           4.8441   -2.3735    0.4657 H       1  LIG1        0.0618
     36 H           2.4190   -2.0162    0.8998 H       1  LIG1        0.0621
     37 H           1.1960   -0.4297   -1.0713 H       1  LIG1        0.0287
     38 H           0.5897    1.1955   -1.2350 H       1  LIG1        0.0287
     39 H          -1.6622   -2.5933    1.0199 H       1  LIG1        0.0431
     40 H          -2.3408   -0.9840    0.7864 H       1  LIG1        0.0431
     41 H          -0.3387   -1.7627    3.2023 H       1  LIG1        0.0427
     42 H          -1.2848   -0.2852    2.9045 H       1  LIG1        0.0427
     43 H           1.6398   -0.5559    3.4059 H       1  LIG1        0.0291
     44 H           0.5833    0.8376    3.6513 H       1  LIG1        0.0291
     45 H          -4.3795    4.0624   -0.7547 H       1  LIG1        0.0661
     46 H          -3.0597    4.3008   -1.9151 H       1  LIG1        0.0661
     47 H          -2.7067    4.0804   -0.1605 H       1  LIG1        0.0661
     48 H          -4.3186    0.2762   -1.7958 H       1  LIG1        0.1028
     49 H          -2.9972   -3.4733   -3.4228 H       1  LIG1        0.0265
     50 H          -1.2784   -3.6393   -3.0108 H       1  LIG1        0.0265
     51 H          -1.9076   -2.1313   -3.7163 H       1  LIG1        0.0265
@<TRIPOS>BOND
     1     1     2    1
     2     2     3    1
     3     3     4   ar
     4     4     5   ar
     5     5     6   ar
     6     6     7   ar
     7     7     8   ar
     8     3     8   ar
     9     8     9    1
    10     9    10    1
    11    10    12    1
    12    12    13    1
    13    13    15    1
    14    15    16    1
    15    16    17    1
    16    10    17    1
    17    17    18    1
    18    18    19    1
    19     9    19    1
    20    13    21    1
    21    22    23    1
    22    23    24    1
    23    22    25    2
    24    21    26    2
    25    26    27    1
    26    27    28    1
    27    15    28    1
    28     2    31   am
    29     9    31    1
    30    31    32    2
    31    10    11    1
    32    13    14    1
    33    15    20    1
    34    21    22    1
    35    28    30    1
    36    28    29    1
    37     4    33    1
    38     5    34    1
    39     6    35    1
    40     7    36    1
    41    12    37    1
    42    12    38    1
    43    16    39    1
    44    16    40    1
    45    18    41    1
    46    18    42    1
    47    19    43    1
    48    19    44    1
    49    24    45    1
    50    24    46    1
    51    24    47    1
    52    26    48    1
    53    30    49    1
    54    30    50    1
    55    30    51    1
