REMARK  Name = NuBBE_1597
REMARK  5 active torsions:
REMARK  status: ('A' for Active; 'I' for Inactive)
REMARK    1  A    between atoms: C_1  and  C_2
REMARK    2  A    between atoms: C_1  and  C_6
REMARK    3  A    between atoms: C_2  and  C_3
REMARK    4  A    between atoms: C_3  and  C_4
REMARK    5  A    between atoms: C_4  and  C_5
REMARK                            x       y       z     vdW  Elec       q    Type
REMARK                         _______ _______ _______ _____ _____    ______ ____
ROOT
ATOM      1  C   LIG A   1       0.487   0.910   0.350  0.00  0.00    +0.042 A 
ATOM      2  N   LIG A   1       1.118   0.874  -0.849  0.00  0.00    -0.252 NA
ATOM      3  C   LIG A   1       2.458   0.760  -0.872  0.00  0.00    +0.071 A 
ATOM      4  C   LIG A   1       3.229   0.673   0.305  0.00  0.00    +0.000 A 
ATOM      5  C   LIG A   1       2.556   0.709   1.531  0.00  0.00    +0.012 A 
ATOM      6  C   LIG A   1       1.171   0.827   1.557  0.00  0.00    +0.024 A 
ATOM      7  C   LIG A   1       4.628   0.552   0.231  0.00  0.00    +0.010 A 
ATOM      8  C   LIG A   1       5.267   0.517  -1.007  0.00  0.00    +0.001 A 
ATOM      9  C   LIG A   1       4.512   0.602  -2.171  0.00  0.00    +0.002 A 
ATOM     10  C   LIG A   1       3.122   0.722  -2.092  0.00  0.00    +0.028 A 
ENDROOT
BRANCH   1  11
ATOM     11  C   LIG A   1      -1.018   0.999   0.325  0.00  0.00    +0.055 C 
BRANCH  11  12
ATOM     12  C   LIG A   1      -1.653  -0.393   0.301  0.00  0.00    +0.006 C 
BRANCH  12  13
ATOM     13  C   LIG A   1      -3.181  -0.319   0.253  0.00  0.00    +0.000 C 
BRANCH  13  14
ATOM     14  C   LIG A   1      -3.803  -1.717   0.249  0.00  0.00    -0.003 C 
ATOM     15  C   LIG A   1      -5.321  -1.662   0.193  0.00  0.00    +0.004 C 
ENDBRANCH  13  14
ENDBRANCH  12  13
ENDBRANCH  11  12
ENDBRANCH   1  11
TORSDOF 4
