REMARK  Name = NuBBE_1452
REMARK  13 active torsions:
REMARK  status: ('A' for Active; 'I' for Inactive)
REMARK    1  A    between atoms: C_1  and  C_2
REMARK    2  A    between atoms: C_3  and  C_5
REMARK    3  A    between atoms: C_5  and  C_6
REMARK    4  A    between atoms: C_6  and  O_8
REMARK    5  A    between atoms: O_8  and  C_9
REMARK    6  A    between atoms: C_10  and  C_11
REMARK    7  A    between atoms: C_14  and  O_32
REMARK    8  A    between atoms: C_22  and  C_23
REMARK    9  A    between atoms: C_24  and  C_27
REMARK   10  A    between atoms: C_33  and  C_34
REMARK   11  A    between atoms: C_33  and  C_38
REMARK   12  A    between atoms: C_34  and  O_36
REMARK   13  A    between atoms: O_36  and  C_37
REMARK                            x       y       z     vdW  Elec       q    Type
REMARK                         _______ _______ _______ _____ _____    ______ ____
ROOT
ATOM      1  C   LIG A   1      -1.843   0.659  -1.367  0.00  0.00    +0.019 C 
ATOM      2  C   LIG A   1      -0.470   0.538  -0.647  0.00  0.00    +0.024 C 
ATOM      3  C   LIG A   1      -0.628   0.317   0.915  0.00  0.00    +0.026 C 
ATOM      4  C   LIG A   1      -1.000  -1.196   1.251  0.00  0.00    +0.041 C 
ATOM      5  C   LIG A   1      -2.374  -1.596   0.605  0.00  0.00    +0.020 C 
ATOM      6  C   LIG A   1       0.067  -2.203   0.699  0.00  0.00    +0.054 C 
ATOM      7  C   LIG A   1       1.035  -1.586  -0.335  0.00  0.00    +0.149 C 
ATOM      8  C   LIG A   1       0.342  -0.617  -1.312  0.00  0.00    +0.158 C 
ATOM      9  O   LIG A   1       1.374  -0.036  -2.162  0.00  0.00    -0.366 OA
ATOM     10  C   LIG A   1       1.634   1.276  -1.682  0.00  0.00    +0.146 C 
ATOM     11  C   LIG A   1       0.343   1.721  -1.113  0.00  0.00    -0.033 C 
ATOM     12  C   LIG A   1       0.042   2.987  -1.449  0.00  0.00    -0.063 C 
ATOM     13  C   LIG A   1      -1.176   3.769  -1.083  0.00  0.00    +0.040 C 
ATOM     14  C   LIG A   1       1.083   3.541  -2.411  0.00  0.00    +0.051 C 
ATOM     15  C   LIG A   1       1.907   2.285  -2.784  0.00  0.00    +0.048 C 
ATOM     16  C   LIG A   1       0.765  -3.176   1.731  0.00  0.00    +0.089 C 
ATOM     17  C   LIG A   1       2.214  -2.795   2.082  0.00  0.00    +0.027 C 
ATOM     18  C   LIG A   1       0.036  -3.314   3.049  0.00  0.00    -0.005 C 
ATOM     19  C   LIG A   1      -0.921  -2.507   3.504  0.00  0.00    +0.044 C 
ATOM     20  C   LIG A   1      -1.391  -1.353   2.726  0.00  0.00    +0.162 C 
ATOM     21  O   LIG A   1      -2.195  -0.590   3.263  0.00  0.00    -0.292 OA
ENDROOT
BRANCH  14  22
ATOM     22  C   LIG A   1       0.520   4.193  -3.646  0.00  0.00    -0.003 A 
ATOM     23  C   LIG A   1      -0.656   3.851  -4.384  0.00  0.00    +0.045 A 
ATOM     24  C   LIG A   1      -0.744   4.739  -5.429  0.00  0.00    +0.195 A 
ATOM     25  O   LIG A   1       0.315   5.586  -5.415  0.00  0.00    -0.471 OA
ATOM     26  C   LIG A   1       1.078   5.247  -4.345  0.00  0.00    +0.199 A 
ENDBRANCH  14  22
BRANCH   7  27
ATOM     27  O   LIG A   1       1.607  -2.655  -1.102  0.00  0.00    -0.389 OA
ATOM     28  H   LIG A   1       2.095  -2.232  -1.837  0.00  0.00    +0.210 HD
ENDBRANCH   7  27
BRANCH  16  29
ATOM     29  C   LIG A   1       0.762  -4.600   1.110  0.00  0.00    +0.317 C 
ATOM     30  O   LIG A   1       1.742  -5.300   0.910  0.00  0.00    -0.250 OA
BRANCH  29  31
ATOM     31  O   LIG A   1      -0.526  -4.969   0.821  0.00  0.00    -0.467 OA
ATOM     32  C   LIG A   1      -0.642  -6.028  -0.123  0.00  0.00    +0.280 C 
ENDBRANCH  29  31
ENDBRANCH  16  29
BRANCH   3  33
ATOM     33  C   LIG A   1       0.605   0.873   1.700  0.00  0.00    +0.126 C 
BRANCH  33  34
ATOM     34  C   LIG A   1       0.599   0.728   3.212  0.00  0.00    +0.307 C 
ATOM     35  O   LIG A   1       1.310  -0.059   3.809  0.00  0.00    -0.251 OA
BRANCH  34  36
ATOM     36  O   LIG A   1      -0.296   1.582   3.768  0.00  0.00    -0.468 OA
ATOM     37  C   LIG A   1      -0.409   1.494   5.192  0.00  0.00    +0.280 C 
ENDBRANCH  34  36
ENDBRANCH  33  34
ENDBRANCH   3  33
TORSDOF 7
