REMARK  Name = NuBBE_1605
REMARK  16 active torsions:
REMARK  status: ('A' for Active; 'I' for Inactive)
REMARK    1  A    between atoms: O_1  and  C_2
REMARK    2  A    between atoms: C_7  and  C_8
REMARK    3  A    between atoms: C_7  and  C_24
REMARK    4  A    between atoms: C_8  and  C_9
REMARK    5  A    between atoms: C_9  and  C_10
REMARK    6  A    between atoms: C_11  and  C_12
REMARK    7  A    between atoms: C_11  and  C_13
REMARK    8  A    between atoms: C_13  and  C_14
REMARK    9  A    between atoms: C_14  and  C_15
REMARK   10  A    between atoms: C_16  and  C_17
REMARK   11  A    between atoms: C_16  and  C_18
REMARK   12  A    between atoms: C_18  and  C_19
REMARK   13  A    between atoms: C_19  and  C_20
REMARK   14  A    between atoms: C_21  and  C_22
REMARK   15  A    between atoms: C_21  and  C_23
REMARK   16  A    between atoms: C_27  and  C_28
REMARK                            x       y       z     vdW  Elec       q    Type
REMARK                         _______ _______ _______ _____ _____    ______ ____
ROOT
ATOM      1  C   LIG A   1      -1.692  -0.974   2.313  0.00  0.00    +0.051 C 
ENDROOT
BRANCH   1   7
ATOM      2  C   LIG A   1      -1.612   1.195   7.722  0.00  0.00    +0.118 A 
ATOM      3  C   LIG A   1      -0.936   0.138   7.122  0.00  0.00    +0.052 A 
ATOM      4  C   LIG A   1      -1.450  -0.449   5.954  0.00  0.00    -0.002 A 
ATOM      5  C   LIG A   1      -2.611   0.072   5.372  0.00  0.00    +0.128 A 
ATOM      6  O   LIG A   1      -3.144  -0.387   4.200  0.00  0.00    -0.485 OA
ATOM      7  C   LIG A   1      -2.531  -1.495   3.520  0.00  0.00    +0.108 C 
ATOM      8  C   LIG A   1      -3.712  -2.345   3.013  0.00  0.00    +0.056 C 
ATOM      9  C   LIG A   1      -1.706  -2.399   4.462  0.00  0.00    +0.052 C 
ATOM     10  C   LIG A   1      -0.750  -1.625   5.351  0.00  0.00    +0.043 C 
ATOM     11  C   LIG A   1      -3.309   1.118   6.003  0.00  0.00    -0.005 A 
ATOM     12  C   LIG A   1      -4.590   1.648   5.423  0.00  0.00    +0.048 C 
ATOM     13  C   LIG A   1      -2.800   1.673   7.185  0.00  0.00    +0.052 A 
BRANCH   2  14
ATOM     14  O   LIG A   1      -1.139   1.791   8.853  0.00  0.00    -0.507 OA
ATOM     15  H   LIG A   1      -0.262   1.424   9.053  0.00  0.00    +0.292 HD
ENDBRANCH   2  14
ENDBRANCH   1   7
BRANCH   1  16
ATOM     16  C   LIG A   1      -2.508  -0.204   1.248  0.00  0.00    +0.031 C 
BRANCH  16  17
ATOM     17  C   LIG A   1      -1.668   0.232   0.070  0.00  0.00    -0.028 C 
ATOM     18  C   LIG A   1      -1.864  -0.044  -1.240  0.00  0.00    -0.076 C 
ATOM     19  C   LIG A   1      -3.014  -0.842  -1.798  0.00  0.00    +0.038 C 
BRANCH  18  20
ATOM     20  C   LIG A   1      -0.893   0.480  -2.286  0.00  0.00    +0.034 C 
BRANCH  20  21
ATOM     21  C   LIG A   1       0.217  -0.532  -2.596  0.00  0.00    +0.031 C 
BRANCH  21  22
ATOM     22  C   LIG A   1       1.176  -0.034  -3.644  0.00  0.00    -0.027 C 
ATOM     23  C   LIG A   1       2.307   0.669  -3.433  0.00  0.00    -0.076 C 
ATOM     24  C   LIG A   1       2.724   1.140  -2.060  0.00  0.00    +0.038 C 
BRANCH  23  25
ATOM     25  C   LIG A   1       3.283   1.051  -4.542  0.00  0.00    +0.034 C 
BRANCH  25  26
ATOM     26  C   LIG A   1       2.958   0.535  -5.956  0.00  0.00    +0.031 C 
BRANCH  26  27
ATOM     27  C   LIG A   1       3.937   0.943  -7.028  0.00  0.00    -0.028 C 
ATOM     28  C   LIG A   1       5.226   0.603  -7.136  0.00  0.00    -0.080 C 
ATOM     29  C   LIG A   1       6.001  -0.235  -6.152  0.00  0.00    +0.038 C 
ATOM     30  C   LIG A   1       6.052   1.039  -8.323  0.00  0.00    +0.038 C 
ENDBRANCH  26  27
ENDBRANCH  25  26
ENDBRANCH  23  25
ENDBRANCH  21  22
ENDBRANCH  20  21
ENDBRANCH  18  20
ENDBRANCH  16  17
ENDBRANCH   1  16
TORSDOF 10
