@<TRIPOS>MOLECULE
NuBBE_352
 32 32 0 0 0
SMALL
GASTEIGER

@<TRIPOS>ATOM
      1 O          -2.5882    2.6655   -2.5687 O.2     1  LIG1       -0.2450
      2 C          -2.1660    1.7103   -1.9280 C.2     1  LIG1        0.3389
      3 O          -2.4190    0.4035   -2.1702 O.3     1  LIG1       -0.4645
      4 C          -3.3355    0.1325   -3.2275 C.3     1  LIG1        0.0820
      5 C          -1.3055    1.8202   -0.7176 C.ar    1  LIG1        0.0595
      6 C          -0.9480    3.0857   -0.2374 C.ar    1  LIG1       -0.0443
      7 C          -0.1644    3.2003    0.9135 C.ar    1  LIG1       -0.0191
      8 C           0.2612    2.0512    1.5839 C.ar    1  LIG1        0.1204
      9 O           1.0242    2.1605    2.7108 O.3     1  LIG1       -0.5065
     10 C          -0.0807    0.7770    1.1229 C.ar    1  LIG1       -0.0015
     11 C           0.3881   -0.4877    1.8028 C.3     1  LIG1       -0.0058
     12 C           1.7071   -0.9752    1.2609 C.2     1  LIG1       -0.0809
     13 C           1.9776   -2.1698    0.6966 C.2     1  LIG1       -0.0793
     14 C           0.9707   -3.2623    0.4649 C.3     1  LIG1       -0.0440
     15 C           3.3746   -2.5170    0.2519 C.3     1  LIG1       -0.0440
     16 C          -0.8627    0.6754   -0.0359 C.ar    1  LIG1       -0.0408
     17 H          -2.8772    0.3598   -4.1935 H       1  LIG1        0.0661
     18 H          -4.2656    0.6909   -3.0875 H       1  LIG1        0.0661
     19 H          -3.5677   -0.9357   -3.1924 H       1  LIG1        0.0661
     20 H          -1.2806    3.9847   -0.7534 H       1  LIG1        0.0627
     21 H           0.1025    4.1894    1.2748 H       1  LIG1        0.0654
     22 H           1.2270    3.0980    2.8620 H       1  LIG1        0.2921
     23 H          -0.3964   -1.2452    1.7062 H       1  LIG1        0.0357
     24 H           0.4786   -0.3228    2.8825 H       1  LIG1        0.0357
     25 H           2.5224   -0.2609    1.3831 H       1  LIG1        0.0575
     26 H          -0.0644   -2.9232    0.5399 H       1  LIG1        0.0274
     27 H           1.1210   -4.0670    1.1916 H       1  LIG1        0.0274
     28 H           1.0871   -3.6796   -0.5409 H       1  LIG1        0.0274
     29 H           4.0874   -1.7074    0.4391 H       1  LIG1        0.0274
     30 H           3.3893   -2.7317   -0.8219 H       1  LIG1        0.0274
     31 H           3.7290   -3.4040    0.7876 H       1  LIG1        0.0274
     32 H          -1.1258   -0.3155   -0.4002 H       1  LIG1        0.0630
@<TRIPOS>BOND
     1     1     2    2
     2     2     3    1
     3     3     4    1
     4     2     5    1
     5     5     6   ar
     6     6     7   ar
     7     7     8   ar
     8     8     9    1
     9     8    10   ar
    10    10    11    1
    11    11    12    1
    12    12    13    2
    13    13    14    1
    14    13    15    1
    15    10    16   ar
    16     5    16   ar
    17     4    17    1
    18     4    18    1
    19     4    19    1
    20     6    20    1
    21     7    21    1
    22     9    22    1
    23    11    23    1
    24    11    24    1
    25    12    25    1
    26    14    26    1
    27    14    27    1
    28    14    28    1
    29    15    29    1
    30    15    30    1
    31    15    31    1
    32    16    32    1
