REMARK  Name = NuBBE_947
REMARK  5 active torsions:
REMARK  status: ('A' for Active; 'I' for Inactive)
REMARK    1  A    between atoms: C_5  and  O_6
REMARK    2  A    between atoms: C_10  and  C_11
REMARK    3  A    between atoms: C_14  and  O_15
REMARK    4  A    between atoms: C_16  and  O_17
REMARK    5  A    between atoms: O_17  and  C_18
REMARK                            x       y       z     vdW  Elec       q    Type
REMARK                         _______ _______ _______ _____ _____    ______ ____
ROOT
ATOM      1  O   LIG A   1      -2.593   2.047   0.203  0.00  0.00    -0.283 OA
ATOM      2  C   LIG A   1      -1.368   2.076   0.166  0.00  0.00    +0.232 C 
ATOM      3  C   LIG A   1      -0.558   0.832   0.077  0.00  0.00    +0.082 A 
ATOM      4  C   LIG A   1       0.784   0.911  -0.298  0.00  0.00    +0.078 A 
ATOM      5  C   LIG A   1       1.537  -0.262  -0.484  0.00  0.00    +0.136 A 
ATOM      6  C   LIG A   1       0.959  -1.520  -0.290  0.00  0.00    +0.043 A 
ATOM      7  C   LIG A   1      -0.369  -1.608   0.142  0.00  0.00    +0.030 A 
ATOM      8  C   LIG A   1      -0.893  -2.944   0.431  0.00  0.00    +0.052 C 
ATOM      9  C   LIG A   1      -0.228  -4.035   0.018  0.00  0.00    +0.096 C 
ATOM     10  C   LIG A   1      -0.738  -5.426   0.228  0.00  0.00    +0.085 C 
ATOM     11  O   LIG A   1       0.976  -3.978  -0.652  0.00  0.00    -0.492 OA
ATOM     12  C   LIG A   1       1.758  -2.791  -0.434  0.00  0.00    +0.268 C 
ATOM     13  C   LIG A   1      -1.122  -0.434   0.316  0.00  0.00    +0.136 A 
ATOM     14  C   LIG A   1      -0.653   3.396   0.151  0.00  0.00    +0.171 C 
ATOM     15  C   LIG A   1       0.649   3.435  -0.163  0.00  0.00    +0.101 C 
ATOM     16  C   LIG A   1       1.418   2.225  -0.476  0.00  0.00    +0.194 C 
ATOM     17  O   LIG A   1       2.584   2.314  -0.851  0.00  0.00    -0.287 OA
ENDROOT
BRANCH   5  18
ATOM     18  O   LIG A   1       2.860  -0.235  -0.845  0.00  0.00    -0.506 OA
ATOM     19  H   LIG A   1       3.143   0.700  -0.969  0.00  0.00    +0.292 HD
ENDBRANCH   5  18
BRANCH  13  20
ATOM     20  O   LIG A   1      -2.411  -0.536   0.764  0.00  0.00    -0.505 OA
ATOM     21  H   LIG A   1      -2.885  -1.152   0.180  0.00  0.00    +0.292 HD
ENDBRANCH  13  20
BRANCH  14  22
ATOM     22  O   LIG A   1      -1.440   4.495   0.437  0.00  0.00    -0.491 OA
ATOM     23  C   LIG A   1      -0.849   5.787   0.400  0.00  0.00    +0.277 C 
ENDBRANCH  14  22
TORSDOF 3
