@<TRIPOS>MOLECULE
NuBBE_189
 57 60 0 0 0
SMALL
GASTEIGER

@<TRIPOS>ATOM
      1 O          -2.3260   -4.4853   -1.3168 O.3     1  LIG1       -0.3892
      2 C          -1.2509   -3.6702   -0.8831 C.3     1  LIG1        0.0821
      3 H          -1.6487   -3.7340    0.1014 H       1  LIG1        0.0619
      4 C           0.1573   -3.8249   -0.1884 C.3     1  LIG1        0.0864
      5 H           0.1845   -4.5456    0.6415 H       1  LIG1        0.0624
      6 C           0.2877   -2.3576    0.3953 C.3     1  LIG1       -0.0032
      7 C          -1.2050   -1.9405    1.0750 C.3     1  LIG1       -0.0571
      8 C           0.7707   -1.5468   -0.9674 C.3     1  LIG1       -0.0277
      9 H           0.9646   -2.2220   -1.8030 H       1  LIG1        0.0312
     10 C          -0.4767   -0.8165   -1.4023 C.3     1  LIG1       -0.0229
     11 C          -1.4140   -2.2585   -1.6559 C.3     1  LIG1       -0.0184
     12 C          -0.6731   -0.1756   -2.7864 C.3     1  LIG1       -0.0589
     13 C           2.0582   -0.7563   -1.0235 C.3     1  LIG1       -0.0486
     14 C           2.0453    0.3096    0.0058 C.3     1  LIG1       -0.0467
     15 C           0.6902    1.0168    0.0270 C.3     1  LIG1       -0.0230
     16 C           0.7443    1.8165    1.8197 C.3     1  LIG1       -0.0181
     17 C          -0.0771    3.5247    1.6211 C.3     1  LIG1        0.0667
     18 C          -1.3751    3.6652    2.4324 C.3     1  LIG1       -0.0358
     19 O           0.7499    4.5701    2.2303 O.3     1  LIG1       -0.3886
     20 C          -0.6190    0.2841   -0.1525 C.3     1  LIG1       -0.0295
     21 C          -0.7465    1.7935    0.2599 C.3     1  LIG1       -0.0489
     22 C           1.0080    3.0026    0.1217 C.3     1  LIG1       -0.0473
     23 C          -0.0490    3.8261   -0.2110 C.3     1  LIG1       -0.0118
     24 H           0.3718    4.7866   -0.5289 H       1  LIG1        0.0329
     25 C           0.3480    2.4189   -1.3489 C.3     1  LIG1       -0.0416
     26 H          -1.6905    0.4120   -0.3443 H       1  LIG1        0.0311
     27 C           1.0929   -2.2829    1.6880 C.3     1  LIG1       -0.0571
     28 O           1.2872   -4.1840   -0.9864 O.3     1  LIG1       -0.3887
     29 H          -2.4636   -5.2688   -0.7700 H       1  LIG1        0.2099
     30 H          -2.0079   -1.6553    0.3807 H       1  LIG1        0.0236
     31 H          -1.1474   -1.1242    1.7911 H       1  LIG1        0.0236
     32 H          -1.6303   -2.7875    1.6337 H       1  LIG1        0.0236
     33 H          -1.1443   -2.5862   -2.6774 H       1  LIG1        0.0296
     34 H          -2.4744   -2.0097   -1.7224 H       1  LIG1        0.0296
     35 H          -0.6051   -0.8995   -3.6083 H       1  LIG1        0.0235
     36 H           0.0256    0.6097   -3.0463 H       1  LIG1        0.0235
     37 H          -1.7023    0.2158   -2.8351 H       1  LIG1        0.0235
     38 H           2.1737   -0.2888   -2.0091 H       1  LIG1        0.0268
     39 H           2.9250   -1.4125   -0.8875 H       1  LIG1        0.0268
     40 H           2.8892    0.9933   -0.1423 H       1  LIG1        0.0271
     41 H           2.2448   -0.1367    0.9675 H       1  LIG1        0.0271
     42 H           1.8082    1.9477    2.1306 H       1  LIG1        0.0298
     43 H           0.2332    1.1887    2.5590 H       1  LIG1        0.0298
     44 H          -1.9468    2.7447    2.5668 H       1  LIG1        0.0257
     45 H          -2.0309    4.4221    1.9939 H       1  LIG1        0.0257
     46 H          -1.1402    3.9944    3.4532 H       1  LIG1        0.0257
     47 H           0.5095    5.3988    1.7872 H       1  LIG1        0.2102
     48 H          -1.1901    1.7093    1.2321 H       1  LIG1        0.0268
     49 H          -1.5744    2.3271   -0.2527 H       1  LIG1        0.0268
     50 H           1.9182    2.7821   -0.4935 H       1  LIG1        0.0269
     51 H           1.6814    3.3838    0.8863 H       1  LIG1        0.0269
     52 H           1.1842    2.5357   -2.0554 H       1  LIG1        0.0274
     53 H          -0.5558    2.2166   -1.9464 H       1  LIG1        0.0274
     54 H           2.1257   -2.5941    1.6009 H       1  LIG1        0.0236
     55 H           0.6007   -2.9198    2.4404 H       1  LIG1        0.0236
     56 H           1.0312   -1.2780    2.1306 H       1  LIG1        0.0236
     57 H           1.0540   -4.1349   -1.9276 H       1  LIG1        0.2099
@<TRIPOS>BOND
     1     2     4    1
     2     4     6    1
     3     6     8    1
     4     8    10    1
     5    10    11    1
     6     2    11    1
     7     8    13    1
     8    13    14    1
     9    14    15    1
    10    15    16    1
    11    16    17    1
    12    15    20    1
    13    20    21    1
    14    21    22    1
    15    22    23    1
    16    17    23    1
    17    23    25    1
    18    15    25    1
    19    10    20    1
    20     1     2    1
    21     2     3    1
    22     6     7    1
    23     6    27    1
    24     8     9    1
    25    10    12    1
    26    20    26    1
    27    23    24    1
    28     4    28    1
    29     4     5    1
    30    17    19    1
    31    17    18    1
    32     1    29    1
    33     7    30    1
    34     7    31    1
    35     7    32    1
    36    11    33    1
    37    11    34    1
    38    12    35    1
    39    12    36    1
    40    12    37    1
    41    13    38    1
    42    13    39    1
    43    14    40    1
    44    14    41    1
    45    16    42    1
    46    16    43    1
    47    18    44    1
    48    18    45    1
    49    18    46    1
    50    19    47    1
    51    21    48    1
    52    21    49    1
    53    22    50    1
    54    22    51    1
    55    25    52    1
    56    25    53    1
    57    27    54    1
    58    27    55    1
    59    27    56    1
    60    28    57    1
