@<TRIPOS>MOLECULE
NuBBE_1074
 43 45 0 0 0
SMALL
GASTEIGER

@<TRIPOS>ATOM
      1 C          -0.2523    0.6950   -2.0180 C.3     1  LIG1        0.0125
      2 N           0.1991    0.5072   -0.6117 N.ar    1  LIG1       -0.3395
      3 C           0.8345   -0.7766   -0.5112 C.ar    1  LIG1        0.0636
      4 C           2.2451   -0.8594   -0.5192 C.ar    1  LIG1        0.0876
      5 C           3.0388    0.3920   -0.4945 C.ar    1  LIG1        0.2007
      6 O           4.2558    0.3507   -0.6425 O.2     1  LIG1       -0.2864
      7 C           2.8850   -2.1020   -0.5085 C.ar    1  LIG1        0.1331
      8 O           4.2463   -2.2450   -0.5510 O.3     1  LIG1       -0.5059
      9 C           2.1399   -3.2708   -0.4441 C.ar    1  LIG1        0.0224
     10 C           0.7490   -3.1961   -0.3602 C.ar    1  LIG1        0.1258
     11 O           0.0293   -4.3559   -0.2612 O.3     1  LIG1       -0.5063
     12 C           0.0679   -1.9634   -0.3732 C.ar    1  LIG1        0.0221
     13 C          -1.4454   -1.9274   -0.2007 C.3     1  LIG1       -0.0038
     14 C          -1.8981   -1.1869    1.0359 C.2     1  LIG1       -0.0808
     15 C          -3.0462   -0.4982    1.2004 C.2     1  LIG1       -0.0793
     16 C          -4.1379   -0.3783    0.1729 C.3     1  LIG1       -0.0440
     17 C          -3.3393    0.2105    2.4977 C.3     1  LIG1       -0.0440
     18 C           0.9429    1.6756   -0.2490 C.ar    1  LIG1        0.0949
     19 C           2.3421    1.6646   -0.2235 C.ar    1  LIG1        0.0495
     20 C           3.0653    2.8261    0.0706 C.ar    1  LIG1       -0.0487
     21 C           2.3848    4.0076    0.3719 C.ar    1  LIG1       -0.0575
     22 C           0.9890    4.0245    0.3948 C.ar    1  LIG1       -0.0181
     23 C           0.2837    2.8629    0.0979 C.ar    1  LIG1        0.1409
     24 O          -1.0815    2.8882    0.1930 O.3     1  LIG1       -0.5047
     25 H          -0.8161   -0.1652   -2.3923 H       1  LIG1        0.0456
     26 H           0.5959    0.8491   -2.6988 H       1  LIG1        0.0456
     27 H          -0.9239    1.5566   -2.1064 H       1  LIG1        0.0456
     28 H           4.6414   -1.3444   -0.6092 H       1  LIG1        0.2922
     29 H           2.6586   -4.2247   -0.4381 H       1  LIG1        0.0691
     30 H           0.6426   -5.1095   -0.2235 H       1  LIG1        0.2921
     31 H          -1.8484   -2.9436   -0.1299 H       1  LIG1        0.0357
     32 H          -1.8822   -1.5019   -1.1072 H       1  LIG1        0.0357
     33 H          -1.1998   -1.2304    1.8721 H       1  LIG1        0.0575
     34 H          -3.9056   -0.8793   -0.7693 H       1  LIG1        0.0274
     35 H          -4.3295    0.6759   -0.0522 H       1  LIG1        0.0274
     36 H          -5.0633   -0.8220    0.5564 H       1  LIG1        0.0274
     37 H          -2.5195    0.1177    3.2175 H       1  LIG1        0.0274
     38 H          -4.2408   -0.2022    2.9626 H       1  LIG1        0.0274
     39 H          -3.4997    1.2783    2.3152 H       1  LIG1        0.0274
     40 H           4.1535    2.8086    0.0776 H       1  LIG1        0.0625
     41 H           2.9426    4.9105    0.6093 H       1  LIG1        0.0619
     42 H           0.4546    4.9328    0.6587 H       1  LIG1        0.0655
     43 H          -1.3582    1.9490    0.1909 H       1  LIG1        0.2922
@<TRIPOS>BOND
     1     1     2    1
     2     2     3   ar
     3     3     4   ar
     4     4     5   ar
     5     5     6    2
     6     4     7   ar
     7     7     8    1
     8     7     9   ar
     9     9    10   ar
    10    10    11    1
    11    10    12   ar
    12     3    12   ar
    13    12    13    1
    14    13    14    1
    15    14    15    2
    16    15    16    1
    17    15    17    1
    18     2    18   ar
    19    18    19   ar
    20     5    19   ar
    21    19    20   ar
    22    20    21   ar
    23    21    22   ar
    24    18    23   ar
    25    22    23   ar
    26    23    24    1
    27     1    25    1
    28     1    26    1
    29     1    27    1
    30     8    28    1
    31     9    29    1
    32    11    30    1
    33    13    31    1
    34    13    32    1
    35    14    33    1
    36    16    34    1
    37    16    35    1
    38    16    36    1
    39    17    37    1
    40    17    38    1
    41    17    39    1
    42    20    40    1
    43    21    41    1
    44    22    42    1
    45    24    43    1
