REMARK  Name = NuBBE_1051
REMARK  13 active torsions:
REMARK  status: ('A' for Active; 'I' for Inactive)
REMARK    1  A    between atoms: C_1  and  C_2
REMARK    2  A    between atoms: C_8  and  C_9
REMARK    3  A    between atoms: C_8  and  C_10
REMARK    4  A    between atoms: C_14  and  C_15
REMARK    5  A    between atoms: C_20  and  C_21
REMARK    6  A    between atoms: C_22  and  C_24
REMARK    7  A    between atoms: C_24  and  C_26
REMARK    8  A    between atoms: C_24  and  C_27
REMARK    9  A    between atoms: C_27  and  O_28
REMARK   10  A    between atoms: C_27  and  C_29
REMARK   11  A    between atoms: C_29  and  C_30
REMARK   12  A    between atoms: C_31  and  C_32
REMARK   13  A    between atoms: C_31  and  C_33
REMARK                            x       y       z     vdW  Elec       q    Type
REMARK                         _______ _______ _______ _____ _____    ______ ____
ROOT
ATOM      1  C   LIG A   1      -2.912  -0.229   1.395  0.00  0.00    +0.016 C 
ATOM      2  C   LIG A   1      -1.567   0.407   0.969  0.00  0.00    -0.005 C 
ATOM      3  C   LIG A   1      -1.022  -0.403  -0.235  0.00  0.00    -0.063 C 
ATOM      4  C   LIG A   1      -1.020   0.025  -1.509  0.00  0.00    -0.026 C 
ATOM      5  C   LIG A   1      -0.559  -0.812  -2.649  0.00  0.00    +0.032 C 
ATOM      6  C   LIG A   1      -0.824  -2.313  -2.445  0.00  0.00    +0.012 C 
ATOM      7  C   LIG A   1      -2.285  -2.817  -2.734  0.00  0.00    +0.027 C 
ATOM      8  C   LIG A   1      -3.366  -2.473  -1.699  0.00  0.00    +0.019 C 
ATOM      9  C   LIG A   1      -2.772  -2.282  -4.099  0.00  0.00    +0.019 C 
ATOM     10  C   LIG A   1      -2.197  -4.353  -2.806  0.00  0.00    +0.139 C 
ATOM     11  C   LIG A   1      -1.176  -5.047  -1.920  0.00  0.00    +0.075 C 
ATOM     12  C   LIG A   1      -0.794  -4.203  -0.709  0.00  0.00    +0.015 C 
ATOM     13  C   LIG A   1      -0.208  -2.802  -1.085  0.00  0.00    -0.021 C 
ATOM     14  C   LIG A   1       1.314  -3.017  -1.335  0.00  0.00    +0.012 C 
ATOM     15  C   LIG A   1      -0.477  -1.784   0.119  0.00  0.00    +0.021 C 
ATOM     16  C   LIG A   1       0.743  -1.519   1.016  0.00  0.00    +0.009 C 
ATOM     17  C   LIG A   1       0.395  -0.740   2.285  0.00  0.00    +0.008 C 
ATOM     18  C   LIG A   1      -0.495   0.530   2.132  0.00  0.00    -0.020 C 
ATOM     19  C   LIG A   1      -1.188   0.669   3.505  0.00  0.00    +0.012 C 
ATOM     20  C   LIG A   1       0.368   1.822   1.724  0.00  0.00    +0.002 C 
ATOM     21  C   LIG A   1      -0.482   2.568   0.672  0.00  0.00    +0.005 C 
ATOM     22  C   LIG A   1      -1.844   1.897   0.669  0.00  0.00    +0.012 C 
ATOM     23  O   LIG A   1      -2.905  -5.018  -3.564  0.00  0.00    -0.297 OA
ENDROOT
BRANCH  20  24
ATOM     24  C   LIG A   1       0.945   2.797   2.827  0.00  0.00    +0.026 C 
ATOM     25  C   LIG A   1      -0.139   3.468   3.708  0.00  0.00    +0.011 C 
BRANCH  24  26
ATOM     26  C   LIG A   1       1.858   3.937   2.255  0.00  0.00    +0.188 C 
BRANCH  26  27
ATOM     27  O   LIG A   1       2.305   4.757   3.354  0.00  0.00    -0.384 OA
ATOM     28  H   LIG A   1       3.180   5.119   3.119  0.00  0.00    +0.210 HD
ENDBRANCH  26  27
BRANCH  26  29
ATOM     29  C   LIG A   1       3.115   3.457   1.500  0.00  0.00    +0.184 C 
ATOM     30  O   LIG A   1       4.199   3.317   2.079  0.00  0.00    -0.290 OA
BRANCH  29  31
ATOM     31  C   LIG A   1       3.006   3.343   0.014  0.00  0.00    +0.047 C 
ATOM     32  C   LIG A   1       3.835   2.704  -0.835  0.00  0.00    -0.072 C 
ATOM     33  C   LIG A   1       5.074   1.929  -0.483  0.00  0.00    +0.038 C 
ATOM     34  C   LIG A   1       3.514   2.728  -2.308  0.00  0.00    +0.038 C 
ENDBRANCH  29  31
ENDBRANCH  26  29
ENDBRANCH  24  26
ENDBRANCH  20  24
TORSDOF 5
