@<TRIPOS>MOLECULE
NuBBE_1004
 69 72 0 0 0
SMALL
GASTEIGER

@<TRIPOS>ATOM
      1 C           5.0321   -4.3309   -1.7330 C.3     1  LIG1       -0.0621
      2 C           3.5913   -3.8604   -1.9842 C.3     1  LIG1       -0.0407
      3 C           2.5705   -4.4518   -0.9648 C.3     1  LIG1       -0.0234
      4 H           2.8584   -4.1093    0.0379 H       1  LIG1        0.0343
      5 C           1.1507   -3.9828   -1.2487 C.2     1  LIG1       -0.0846
      6 C           0.3860   -3.3242   -0.3571 C.2     1  LIG1       -0.0845
      7 C          -1.0197   -2.8273   -0.6332 C.3     1  LIG1       -0.0221
      8 H          -1.2826   -3.1826   -1.6422 H       1  LIG1        0.0343
      9 C          -1.0981   -1.2699   -0.7266 C.3     1  LIG1       -0.0256
     10 C          -2.4791   -0.8118   -1.2564 C.3     1  LIG1       -0.0452
     11 C          -3.2117   -0.2464   -0.0534 C.3     1  LIG1       -0.0304
     12 C          -2.0952    0.5000    0.6134 C.2     1  LIG1       -0.0599
     13 C          -2.1229    1.7707    1.0586 C.2     1  LIG1       -0.0437
     14 C          -3.3573    2.5257    1.1409 C.2     1  LIG1       -0.0580
     15 C          -3.3927    3.8619    1.1639 C.2     1  LIG1       -0.0577
     16 C          -2.2067    4.6909    1.0633 C.2     1  LIG1       -0.0376
     17 C          -2.3327    6.0263    1.1441 C.2     1  LIG1       -0.0155
     18 C          -1.1520    6.9191    1.0734 C.2     1  LIG1        0.1564
     19 C           0.2293    6.3088    1.1336 C.3     1  LIG1        0.0107
     20 C           0.2099    4.8581    1.6050 C.3     1  LIG1       -0.0361
     21 C          -0.8507    3.9909    0.8706 C.3     1  LIG1        0.0002
     22 C          -0.8685    2.5379    1.4907 C.3     1  LIG1       -0.0065
     23 C           0.4549    1.7541    1.2522 C.3     1  LIG1       -0.0446
     24 C           0.3445    0.6454    0.1983 C.3     1  LIG1       -0.0431
     25 C          -0.8199   -0.3233    0.5034 C.3     1  LIG1       -0.0071
     26 C          -0.5723   -0.9853    1.8678 C.3     1  LIG1       -0.0556
     27 H          -0.9522    2.6616    2.5827 H       1  LIG1        0.0357
     28 C          -0.5394    3.9304   -0.6452 C.3     1  LIG1       -0.0550
     29 O          -1.3210    8.1229    0.9442 O.2     1  LIG1       -0.2927
     30 H          -0.3790   -1.0111   -1.5202 H       1  LIG1        0.0315
     31 C          -2.0407   -3.5188    0.2788 C.3     1  LIG1       -0.0587
     32 C           2.5921   -5.9862   -0.9370 C.3     1  LIG1       -0.0587
     33 C           3.5759   -2.3246   -1.9770 C.3     1  LIG1       -0.0621
     34 H           5.1332   -5.4130   -1.8576 H       1  LIG1        0.0233
     35 H           5.3712   -4.0667   -0.7254 H       1  LIG1        0.0233
     36 H           5.7202   -3.8650   -2.4484 H       1  LIG1        0.0233
     37 H           3.3124   -4.1899   -2.9942 H       1  LIG1        0.0301
     38 H           0.7581   -4.1921   -2.2433 H       1  LIG1        0.0572
     39 H           0.7916   -3.1391    0.6324 H       1  LIG1        0.0572
     40 H          -3.0489   -1.6013   -1.7559 H       1  LIG1        0.0271
     41 H          -2.3329   -0.0132   -1.9990 H       1  LIG1        0.0271
     42 H          -3.5883   -1.0350    0.6044 H       1  LIG1        0.0310
     43 H          -4.0524    0.3730   -0.3753 H       1  LIG1        0.0310
     44 H          -4.2949    1.9779    1.1913 H       1  LIG1        0.0620
     45 H          -4.3605    4.3525    1.2480 H       1  LIG1        0.0621
     46 H          -3.2870    6.5306    1.2504 H       1  LIG1        0.0655
     47 H           0.8309    6.9015    1.8313 H       1  LIG1        0.0345
     48 H           0.6826    6.3866    0.1402 H       1  LIG1        0.0345
     49 H          -0.0005    4.8456    2.6846 H       1  LIG1        0.0278
     50 H           1.2189    4.4506    1.4879 H       1  LIG1        0.0278
     51 H           0.7703    1.3112    2.2055 H       1  LIG1        0.0272
     52 H           1.2845    2.4109    0.9780 H       1  LIG1        0.0272
     53 H           1.2904    0.0910    0.1527 H       1  LIG1        0.0274
     54 H           0.2125    1.1068   -0.7893 H       1  LIG1        0.0274
     55 H          -0.6235   -0.2594    2.6885 H       1  LIG1        0.0238
     56 H           0.4177   -1.4450    1.9220 H       1  LIG1        0.0238
     57 H          -1.3299   -1.7160    2.1315 H       1  LIG1        0.0238
     58 H          -0.6724    4.9014   -1.1346 H       1  LIG1        0.0238
     59 H          -1.1939    3.2240   -1.1674 H       1  LIG1        0.0238
     60 H           0.4957    3.6226   -0.8280 H       1  LIG1        0.0238
     61 H          -3.0647   -3.2202    0.0366 H       1  LIG1        0.0235
     62 H          -1.8797   -3.3406    1.3398 H       1  LIG1        0.0235
     63 H          -1.9888   -4.6062    0.1558 H       1  LIG1        0.0235
     64 H           3.5390   -6.3567   -0.5304 H       1  LIG1        0.0235
     65 H           2.4616   -6.4156   -1.9367 H       1  LIG1        0.0235
     66 H           1.7972   -6.3823   -0.2944 H       1  LIG1        0.0235
     67 H           3.8861   -1.9290   -1.0037 H       1  LIG1        0.0233
     68 H           2.5821   -1.9288   -2.2058 H       1  LIG1        0.0233
     69 H           4.2609   -1.9290   -2.7351 H       1  LIG1        0.0233
@<TRIPOS>BOND
     1     1     2    1
     2     2     3    1
     3     3     4    1
     4     3     5    1
     5     5     6    2
     6     9    10    1
     7    10    11    1
     8    11    12    1
     9    12    13    2
    10    13    14    1
    11    14    15    2
    12    15    16    1
    13    16    17    2
    14    17    18    1
    15    18    19    1
    16    19    20    1
    17    20    21    1
    18    16    21    1
    19    21    22    1
    20    13    22    1
    21    22    23    1
    22    23    24    1
    23    24    25    1
    24    12    25    1
    25     9    25    1
    26     7    31    1
    27     3    32    1
    28     2    33    1
    29    18    29    2
    30    21    28    1
    31    22    27    1
    32    25    26    1
    33     9    30    1
    34     9     7    1
    35     7     8    1
    36     7     6    1
    37     1    34    1
    38     1    35    1
    39     1    36    1
    40     2    37    1
    41     5    38    1
    42     6    39    1
    43    10    40    1
    44    10    41    1
    45    11    42    1
    46    11    43    1
    47    14    44    1
    48    15    45    1
    49    17    46    1
    50    19    47    1
    51    19    48    1
    52    20    49    1
    53    20    50    1
    54    23    51    1
    55    23    52    1
    56    24    53    1
    57    24    54    1
    58    26    55    1
    59    26    56    1
    60    26    57    1
    61    28    58    1
    62    28    59    1
    63    28    60    1
    64    31    61    1
    65    31    62    1
    66    31    63    1
    67    32    64    1
    68    32    65    1
    69    32    66    1
    70    33    67    1
    71    33    68    1
    72    33    69    1
