@<TRIPOS>MOLECULE
NuBBE_1774
 30 29 0 0 0
SMALL
GASTEIGER

@<TRIPOS>ATOM
      1 C          -0.1467   -0.1322    1.9607 C.3     1  LIG1       -0.0245
      2 C          -0.0006    0.8224    0.7643 C.3     1  LIG1        0.0555
      3 H           1.0511    1.0858    0.6105 H       1  LIG1        0.0593
      4 C          -0.5852    0.2603   -0.5376 C.3     1  LIG1       -0.0269
      5 C          -0.4353    1.2425   -1.7065 C.3     1  LIG1       -0.0510
      6 C          -1.0099    0.6624   -2.9992 C.3     1  LIG1       -0.0558
      7 C          -0.8653    1.6340   -4.1602 C.3     1  LIG1       -0.0653
      8 O          -0.6966    2.0297    1.0779 O.3     1  LIG1       -0.3918
      9 C           0.5482   -1.5003    1.8232 C.3     1  LIG1       -0.0444
     10 C           2.0588   -1.3731    1.6244 C.3     1  LIG1       -0.0626
     11 C           0.2637   -2.3579    3.0603 C.3     1  LIG1       -0.0626
     12 H          -1.2169   -0.2894    2.1541 H       1  LIG1        0.0293
     13 H           0.2287    0.3790    2.8582 H       1  LIG1        0.0293
     14 H          -1.6519    0.0426   -0.3966 H       1  LIG1        0.0290
     15 H          -0.0871   -0.6784   -0.8018 H       1  LIG1        0.0290
     16 H           0.6273    1.4737   -1.8503 H       1  LIG1        0.0266
     17 H          -0.9432    2.1862   -1.4756 H       1  LIG1        0.0266
     18 H          -2.0705    0.4213   -2.8627 H       1  LIG1        0.0263
     19 H          -0.4934   -0.2722   -3.2463 H       1  LIG1        0.0263
     20 H          -1.4914    2.5191   -4.0083 H       1  LIG1        0.0230
     21 H          -1.1757    1.1560   -5.0946 H       1  LIG1        0.0230
     22 H           0.1724    1.9628   -4.2750 H       1  LIG1        0.0230
     23 H          -0.1275    2.5442    1.6819 H       1  LIG1        0.2098
     24 H           0.1319   -2.0313    0.9596 H       1  LIG1        0.0296
     25 H           2.5346   -0.8974    2.4885 H       1  LIG1        0.0232
     26 H           2.3014   -0.7872    0.7334 H       1  LIG1        0.0232
     27 H           2.5123   -2.3617    1.4922 H       1  LIG1        0.0232
     28 H           0.6015   -1.8614    3.9765 H       1  LIG1        0.0232
     29 H           0.7745   -3.3246    2.9920 H       1  LIG1        0.0232
     30 H          -0.8092   -2.5549    3.1570 H       1  LIG1        0.0232
@<TRIPOS>BOND
     1     1     2    1
     2     2     3    1
     3     2     4    1
     4     4     5    1
     5     5     6    1
     6     6     7    1
     7     2     8    1
     8     1     9    1
     9     9    10    1
    10     9    11    1
    11     1    12    1
    12     1    13    1
    13     4    14    1
    14     4    15    1
    15     5    16    1
    16     5    17    1
    17     6    18    1
    18     6    19    1
    19     7    20    1
    20     7    21    1
    21     7    22    1
    22     8    23    1
    23     9    24    1
    24    10    25    1
    25    10    26    1
    26    10    27    1
    27    11    28    1
    28    11    29    1
    29    11    30    1
