@<TRIPOS>MOLECULE
NuBBE_317
 102 107 0 0 0
SMALL
GASTEIGER

@<TRIPOS>ATOM
      1 O          -4.3015   -2.0539    3.9349 O.3     1  LIG1       -0.3912
      2 C          -3.4493   -2.1214    5.0841 C.3     1  LIG1        0.0606
      3 H          -4.1060   -2.2017    5.9589 H       1  LIG1        0.0599
      4 C          -2.6382   -3.4139    4.9578 C.3     1  LIG1       -0.0258
      5 C          -1.6287   -3.3644    3.8010 C.3     1  LIG1       -0.0447
      6 C          -0.6483   -2.1398    3.8384 C.3     1  LIG1       -0.0249
      7 C          -1.5374   -0.8485    3.9890 C.3     1  LIG1       -0.0278
      8 C          -2.5589   -0.8478    5.1885 C.3     1  LIG1       -0.0056
      9 C          -3.4669    0.4101    5.1022 C.3     1  LIG1       -0.0572
     10 C          -1.8984   -0.7881    6.5805 C.3     1  LIG1       -0.0572
     11 H          -2.1870   -0.8307    3.1021 H       1  LIG1        0.0312
     12 C          -0.7160    0.4374    3.8585 C.3     1  LIG1       -0.0486
     13 C           0.0659    0.4926    2.5420 C.3     1  LIG1       -0.0457
     14 C           1.0526   -0.6873    2.2962 C.3     1  LIG1       -0.0090
     15 C           0.2293   -2.0343    2.4888 C.3     1  LIG1       -0.0252
     16 H           0.9638   -2.8538    2.5062 H       1  LIG1        0.0315
     17 C          -0.6851   -2.3208    1.2781 C.3     1  LIG1       -0.0306
     18 C          -0.1693   -1.9778   -0.0625 C.2     1  LIG1       -0.0831
     19 C           0.9182   -1.2441   -0.3286 C.2     1  LIG1       -0.0519
     20 C           1.7465   -0.6029    0.8002 C.3     1  LIG1        0.0944
     21 C           1.9697    0.8936    0.3968 C.3     1  LIG1       -0.0319
     22 C           2.4138    1.1731   -1.0433 C.3     1  LIG1       -0.0354
     23 C           1.6049    0.4451   -2.1527 C.3     1  LIG1        0.0746
     24 C           1.4467   -1.0551   -1.7647 C.3     1  LIG1       -0.0003
     25 H           2.4735   -1.4507   -1.7267 H       1  LIG1        0.0359
     26 C           0.7557   -1.9141   -2.8893 C.3     1  LIG1       -0.0337
     27 H          -0.3344   -1.8501   -2.7835 H       1  LIG1        0.0307
     28 C           1.0598   -1.3672   -4.3100 C.3     1  LIG1       -0.0407
     29 H           0.3168   -0.5898   -4.5254 H       1  LIG1        0.0301
     30 C           2.4352   -0.7091   -4.3418 C.3     1  LIG1       -0.0492
     31 C           2.4694    0.5434   -3.4592 C.3     1  LIG1       -0.0364
     32 C           0.9016   -2.3944   -5.4303 C.3     1  LIG1       -0.0622
     33 C           1.1475   -3.4015   -2.7355 C.3     1  LIG1       -0.0616
     34 C           0.2091    1.1330   -2.3002 C.2     1  LIG1        0.3161
     35 O           0.0343    1.7361   -3.5040 O.3     1  LIG1       -0.4318
     36 C          -1.2462    2.3040   -3.8508 C.3     1  LIG1        0.2337
     37 H          -1.9563    1.4824   -4.0000 H       1  LIG1        0.1085
     38 C          -1.8527    3.3541   -2.8953 C.3     1  LIG1        0.1455
     39 H          -2.1197    2.9106   -1.9345 H       1  LIG1        0.0683
     40 C          -0.8985    4.5421   -2.6998 C.3     1  LIG1        0.1152
     41 H          -1.4633    5.4826   -2.6702 H       1  LIG1        0.0648
     42 C           0.1740    4.6123   -3.7992 C.3     1  LIG1        0.1120
     43 H           1.0166    3.9660   -3.5286 H       1  LIG1        0.0647
     44 C          -0.3941    4.1826   -5.1595 C.3     1  LIG1        0.1140
     45 H          -1.0907    4.9468   -5.5298 H       1  LIG1        0.0647
     46 O          -1.1299    2.9353   -5.1479 O.3     1  LIG1       -0.3312
     47 C           0.7198    4.0252   -6.2000 C.3     1  LIG1        0.0731
     48 O           0.1561    3.6407   -7.4560 O.3     1  LIG1       -0.3924
     49 O           0.7168    5.9341   -3.8621 O.3     1  LIG1       -0.3865
     50 O          -0.2086    4.4557   -1.4415 O.3     1  LIG1       -0.3864
     51 O          -3.0934    3.8546   -3.4449 O.3     1  LIG1       -0.3829
     52 O          -0.6505    1.1573   -1.4199 O.2     1  LIG1       -0.2501
     53 C           3.1015   -1.3712    0.7932 C.2     1  LIG1        0.3156
     54 O           4.1762   -0.6225    1.1173 O.3     1  LIG1       -0.4800
     55 O           3.2876   -2.5597    0.5216 O.2     1  LIG1       -0.2500
     56 C           2.1800   -0.5334    3.3633 C.3     1  LIG1       -0.0580
     57 C           0.3282   -2.3950    5.0138 C.3     1  LIG1       -0.0590
     58 H          -4.9807   -1.3797    4.1048 H       1  LIG1        0.2098
     59 H          -3.3263   -4.2469    4.7610 H       1  LIG1        0.0290
     60 H          -2.1395   -3.6475    5.9018 H       1  LIG1        0.0290
     61 H          -2.2360   -3.3499    2.8903 H       1  LIG1        0.0271
     62 H          -1.0592   -4.3015    3.7717 H       1  LIG1        0.0271
     63 H          -3.8496    0.5699    4.0884 H       1  LIG1        0.0236
     64 H          -2.9285    1.3174    5.3991 H       1  LIG1        0.0236
     65 H          -4.3273    0.3204    5.7753 H       1  LIG1        0.0236
     66 H          -1.1799    0.0341    6.6537 H       1  LIG1        0.0236
     67 H          -1.3875   -1.7084    6.8586 H       1  LIG1        0.0236
     68 H          -2.6552   -0.6245    7.3575 H       1  LIG1        0.0236
     69 H          -0.0580    0.5725    4.7198 H       1  LIG1        0.0268
     70 H          -1.3746    1.3124    3.8563 H       1  LIG1        0.0268
     71 H           0.6119    1.4436    2.5579 H       1  LIG1        0.0271
     72 H          -0.6543    0.5498    1.7160 H       1  LIG1        0.0271
     73 H          -1.6534   -1.8214    1.3674 H       1  LIG1        0.0310
     74 H          -0.8829   -3.4011    1.2544 H       1  LIG1        0.0310
     75 H          -0.7623   -2.4216   -0.8554 H       1  LIG1        0.0572
     76 H           2.7022    1.3580    1.0689 H       1  LIG1        0.0279
     77 H           1.0468    1.4647    0.5220 H       1  LIG1        0.0279
     78 H           3.4745    0.9007   -1.1108 H       1  LIG1        0.0276
     79 H           2.3671    2.2579   -1.2106 H       1  LIG1        0.0276
     80 H           2.7228   -0.4353   -5.3629 H       1  LIG1        0.0268
     81 H           3.1966   -1.4196   -3.9916 H       1  LIG1        0.0268
     82 H           2.1874    1.4109   -4.0649 H       1  LIG1        0.0276
     83 H           3.5251    0.7227   -3.2171 H       1  LIG1        0.0276
     84 H           1.6583   -3.1834   -5.3782 H       1  LIG1        0.0233
     85 H           0.9997   -1.9096   -6.4071 H       1  LIG1        0.0233
     86 H          -0.0903   -2.8570   -5.3900 H       1  LIG1        0.0233
     87 H           2.1832   -3.5741   -3.0468 H       1  LIG1        0.0233
     88 H           0.4967   -4.0407   -3.3420 H       1  LIG1        0.0233
     89 H           1.0584   -3.7591   -1.7059 H       1  LIG1        0.0233
     90 H           1.2809    4.9527   -6.3429 H       1  LIG1        0.0584
     91 H           1.4122    3.2310   -5.9035 H       1  LIG1        0.0584
     92 H          -0.4430    2.8957   -7.2555 H       1  LIG1        0.2095
     93 H           1.0721    6.1198   -2.9706 H       1  LIG1        0.2100
     94 H          -0.8655    4.2095   -0.7623 H       1  LIG1        0.2100
     95 H          -2.9416    4.0582   -4.3885 H       1  LIG1        0.2102
     96 H           4.9304   -1.2482    1.0551 H       1  LIG1        0.2951
     97 H           1.8326   -0.1241    4.3132 H       1  LIG1        0.0236
     98 H           2.9439    0.1817    3.0449 H       1  LIG1        0.0236
     99 H           2.6751   -1.4850    3.5779 H       1  LIG1        0.0236
    100 H          -0.1161   -2.9805    5.8213 H       1  LIG1        0.0235
    101 H           0.7044   -1.4761    5.4632 H       1  LIG1        0.0235
    102 H           1.1874   -2.9938    4.6906 H       1  LIG1        0.0235
@<TRIPOS>BOND
     1     2     4    1
     2     4     5    1
     3     5     6    1
     4     6     7    1
     5     7     8    1
     6     2     8    1
     7     7    12    1
     8    12    13    1
     9    13    14    1
    10    14    15    1
    11    15    17    1
    12    17    18    1
    13    18    19    2
    14    19    20    1
    15    20    21    1
    16    21    22    1
    17    22    23    1
    18    23    24    1
    19    19    24    1
    20    24    26    1
    21    26    28    1
    22    28    30    1
    23    30    31    1
    24    31    23    1
    25    34    35    1
    26    35    36    1
    27    36    37    1
    28    36    38    1
    29    38    40    1
    30    40    42    1
    31    42    43    1
    32    42    44    1
    33    44    46    1
    34    36    46    1
    35    47    48    1
    36    42    49    1
    37    34    52    2
    38    14    20    1
    39    53    54    1
    40    53    55    2
    41    15     6    1
    42     6    57    1
    43     7    11    1
    44     8     9    1
    45     8    10    1
    46    14    56    1
    47    15    16    1
    48    20    53    1
    49    23    34    1
    50    24    25    1
    51    26    27    1
    52    26    33    1
    53    28    29    1
    54    28    32    1
    55     2     3    1
    56     2     1    1
    57    38    51    1
    58    38    39    1
    59    40    50    1
    60    40    41    1
    61    44    47    1
    62    44    45    1
    63     1    58    1
    64     4    59    1
    65     4    60    1
    66     5    61    1
    67     5    62    1
    68     9    63    1
    69     9    64    1
    70     9    65    1
    71    10    66    1
    72    10    67    1
    73    10    68    1
    74    12    69    1
    75    12    70    1
    76    13    71    1
    77    13    72    1
    78    17    73    1
    79    17    74    1
    80    18    75    1
    81    21    76    1
    82    21    77    1
    83    22    78    1
    84    22    79    1
    85    30    80    1
    86    30    81    1
    87    31    82    1
    88    31    83    1
    89    32    84    1
    90    32    85    1
    91    32    86    1
    92    33    87    1
    93    33    88    1
    94    33    89    1
    95    47    90    1
    96    47    91    1
    97    48    92    1
    98    49    93    1
    99    50    94    1
   100    51    95    1
   101    54    96    1
   102    56    97    1
   103    56    98    1
   104    56    99    1
   105    57   100    1
   106    57   101    1
   107    57   102    1
