REMARK  Name = NuBBE_2111
REMARK  12 active torsions:
REMARK  status: ('A' for Active; 'I' for Inactive)
REMARK    1  A    between atoms: C_2  and  C_3
REMARK    2  A    between atoms: C_3  and  C_4
REMARK    3  A    between atoms: C_4  and  C_5
REMARK    4  A    between atoms: C_5  and  C_6
REMARK    5  A    between atoms: C_6  and  C_7
REMARK    6  A    between atoms: C_7  and  C_8
REMARK    7  A    between atoms: C_8  and  C_9
REMARK    8  A    between atoms: C_9  and  C_10
REMARK    9  A    between atoms: C_10  and  C_11
REMARK   10  A    between atoms: C_11  and  C_12
REMARK   11  A    between atoms: C_12  and  C_13
REMARK   12  A    between atoms: C_13  and  C_14
REMARK                            x       y       z     vdW  Elec       q    Type
REMARK                         _______ _______ _______ _____ _____    ______ ____
ROOT
ATOM      1  C   LIG A   1      -1.220  -0.269  -0.779  0.00  0.00    -0.000 C 
ENDROOT
BRANCH   1   2
ATOM      2  C   LIG A   1      -1.697  -1.704  -0.543  0.00  0.00    +0.000 C 
BRANCH   2   3
ATOM      3  C   LIG A   1      -2.119  -1.984   0.906  0.00  0.00    +0.000 C 
BRANCH   3   4
ATOM      4  C   LIG A   1      -2.661  -3.407   1.069  0.00  0.00    +0.004 C 
BRANCH   4   5
ATOM      5  C   LIG A   1      -3.042  -3.744   2.515  0.00  0.00    +0.026 C 
BRANCH   5   7
ATOM      6  C   LIG A   1      -2.763  -6.244   2.417  0.00  0.00    +0.004 C 
ATOM      7  C   LIG A   1      -3.519  -5.172   2.635  0.00  0.00    -0.035 C 
ENDBRANCH   5   7
ENDBRANCH   4   5
ENDBRANCH   3   4
ENDBRANCH   2   3
ENDBRANCH   1   2
BRANCH   1   8
ATOM      8  C   LIG A   1       0.047   0.073   0.005  0.00  0.00    -0.000 C 
BRANCH   8   9
ATOM      9  C   LIG A   1       0.547   1.492  -0.248  0.00  0.00    -0.000 C 
BRANCH   9  10
ATOM     10  C   LIG A   1       0.973   1.694  -1.703  0.00  0.00    -0.000 C 
BRANCH  10  11
ATOM     11  C   LIG A   1       1.598   3.063  -1.960  0.00  0.00    -0.000 C 
BRANCH  11  12
ATOM     12  C   LIG A   1       2.884   3.287  -1.158  0.00  0.00    -0.000 C 
BRANCH  12  13
ATOM     13  C   LIG A   1       3.490   4.662  -1.426  0.00  0.00    -0.003 C 
ATOM     14  C   LIG A   1       4.754   4.893  -0.608  0.00  0.00    +0.004 C 
ENDBRANCH  12  13
ENDBRANCH  11  12
ENDBRANCH  10  11
ENDBRANCH   9  10
ENDBRANCH   8   9
ENDBRANCH   1   8
TORSDOF 11
