@<TRIPOS>MOLECULE
NuBBE_1071
 78 81 0 0 0
SMALL
GASTEIGER

@<TRIPOS>ATOM
      1 C          -3.2862   -0.4561   -0.4079 C.3     1  LIG1       -0.0553
      2 C          -1.8365    0.0608   -0.2644 C.3     1  LIG1       -0.0051
      3 C          -0.9339   -0.9797   -0.9815 C.2     1  LIG1       -0.0634
      4 C          -0.5454   -0.8763   -2.2695 C.2     1  LIG1       -0.0836
      5 C           0.0227   -2.0088   -3.0774 C.3     1  LIG1       -0.0302
      6 C          -0.3223   -3.3699   -2.4411 C.3     1  LIG1       -0.0198
      7 H          -1.4238   -3.4006   -2.3676 H       1  LIG1        0.0318
      8 C           0.1651   -3.3792   -0.9512 C.3     1  LIG1       -0.0212
      9 C           1.6883   -3.1464   -0.8147 C.3     1  LIG1       -0.0587
     10 C          -0.2012   -4.7487   -0.3210 C.3     1  LIG1       -0.0401
     11 C           0.3065   -5.9395   -1.1146 C.3     1  LIG1        0.0069
     12 C          -0.2163   -5.8954   -2.5312 C.2     1  LIG1        0.1392
     13 C           0.0242   -4.6085   -3.3363 C.3     1  LIG1        0.0270
     14 C           1.4576   -4.6613   -3.8852 C.3     1  LIG1       -0.0528
     15 C          -0.9292   -4.6212   -4.5598 C.3     1  LIG1       -0.0528
     16 O          -0.7197   -6.9026   -3.0323 O.2     1  LIG1       -0.2968
     17 C          -0.6464   -2.2490   -0.1806 C.3     1  LIG1       -0.0136
     18 H          -1.6303   -2.6838    0.0440 H       1  LIG1        0.0351
     19 C          -0.0128   -1.8376    1.1581 C.3     1  LIG1       -0.0455
     20 C          -0.9503   -0.9380    1.9596 C.3     1  LIG1       -0.0460
     21 C          -1.3958    0.3565    1.2300 C.3     1  LIG1       -0.0195
     22 C          -0.2236    1.4158    1.0599 C.3     1  LIG1       -0.0256
     23 C          -0.0213    2.4845    2.1816 C.3     1  LIG1        0.0181
     24 H          -0.9460    3.0624    2.3000 H       1  LIG1        0.0377
     25 C           0.2929    1.8224    3.5086 C.2     1  LIG1        0.1237
     26 O          -0.1412    2.2408    4.5866 O.2     1  LIG1       -0.3007
     27 C           1.1307    3.4780    1.8786 C.3     1  LIG1       -0.0401
     28 C           1.2517    4.5872    2.9384 C.3     1  LIG1       -0.0339
     29 C           2.3538    5.5577    2.6109 C.2     1  LIG1       -0.0853
     30 C           2.2314    6.8819    2.3942 C.2     1  LIG1       -0.0796
     31 C           0.9315    7.6395    2.3976 C.3     1  LIG1       -0.0440
     32 C           3.4445    7.7359    2.1316 C.3     1  LIG1       -0.0440
     33 H           0.7244    0.8701    0.9684 H       1  LIG1        0.0313
     34 C          -0.4898    2.0818   -0.3129 C.3     1  LIG1       -0.0483
     35 C          -1.7688    1.4767   -0.8658 C.3     1  LIG1       -0.0431
     36 C          -2.5630    0.9416    2.0705 C.3     1  LIG1       -0.0585
     37 H          -3.5152   -0.7047   -1.4518 H       1  LIG1        0.0238
     38 H          -4.0235    0.2942   -0.1023 H       1  LIG1        0.0238
     39 H          -3.4637   -1.3536    0.1936 H       1  LIG1        0.0238
     40 H          -0.7494    0.0145   -2.8544 H       1  LIG1        0.0572
     41 H           1.1006   -1.8639   -3.2003 H       1  LIG1        0.0311
     42 H          -0.4189   -1.9451   -4.0774 H       1  LIG1        0.0311
     43 H           2.2783   -3.8411   -1.4092 H       1  LIG1        0.0235
     44 H           2.0208   -3.2911    0.2195 H       1  LIG1        0.0235
     45 H           1.9806   -2.1341   -1.1096 H       1  LIG1        0.0235
     46 H          -1.2942   -4.8347   -0.2488 H       1  LIG1        0.0275
     47 H           0.1803   -4.8147    0.7047 H       1  LIG1        0.0275
     48 H          -0.0533   -6.8615   -0.6432 H       1  LIG1        0.0342
     49 H           1.3983   -5.9887   -1.1347 H       1  LIG1        0.0342
     50 H           2.1993   -4.9003   -3.1219 H       1  LIG1        0.0239
     51 H           1.7471   -3.7267   -4.3735 H       1  LIG1        0.0239
     52 H           1.5514   -5.4571   -4.6355 H       1  LIG1        0.0239
     53 H          -1.9795   -4.5956   -4.2469 H       1  LIG1        0.0239
     54 H          -0.7996   -5.5274   -5.1638 H       1  LIG1        0.0239
     55 H          -0.7511   -3.7704   -5.2249 H       1  LIG1        0.0239
     56 H           0.9409   -1.3212    0.9999 H       1  LIG1        0.0271
     57 H           0.2077   -2.7256    1.7614 H       1  LIG1        0.0271
     58 H          -0.4760   -0.6983    2.9164 H       1  LIG1        0.0271
     59 H          -1.8371   -1.5354    2.2126 H       1  LIG1        0.0271
     60 H           1.0142    0.9912    3.4837 H       1  LIG1        0.1029
     61 H           0.9647    3.9638    0.9108 H       1  LIG1        0.0275
     62 H           2.0821    2.9369    1.8002 H       1  LIG1        0.0275
     63 H           1.4799    4.1640    3.9222 H       1  LIG1        0.0308
     64 H           0.2851    5.0859    3.0400 H       1  LIG1        0.0308
     65 H           3.3524    5.1192    2.5957 H       1  LIG1        0.0571
     66 H           0.0487    6.9996    2.4469 H       1  LIG1        0.0274
     67 H           0.8365    8.2265    1.4787 H       1  LIG1        0.0274
     68 H           0.8952    8.3207    3.2536 H       1  LIG1        0.0274
     69 H           4.3718    7.1534    2.1256 H       1  LIG1        0.0274
     70 H           3.5403    8.5056    2.9048 H       1  LIG1        0.0274
     71 H           3.3559    8.2290    1.1582 H       1  LIG1        0.0274
     72 H           0.3513    1.8748   -0.9854 H       1  LIG1        0.0269
     73 H          -0.6083    3.1673   -0.2618 H       1  LIG1        0.0269
     74 H          -1.8068    1.5208   -1.9569 H       1  LIG1        0.0274
     75 H          -2.6189    2.0832   -0.5289 H       1  LIG1        0.0274
     76 H          -2.2559    1.1527    3.0989 H       1  LIG1        0.0235
     77 H          -3.3923    0.2298    2.1524 H       1  LIG1        0.0235
     78 H          -2.9616    1.8674    1.6470 H       1  LIG1        0.0235
@<TRIPOS>BOND
     1     2     3    1
     2     3     4    2
     3     4     5    1
     4     5     6    1
     5     6     8    1
     6     8    10    1
     7    10    11    1
     8    11    12    1
     9    12    13    1
    10     6    13    1
    11     8    17    1
    12     3    17    1
    13    17    19    1
    14    19    20    1
    15    20    21    1
    16    21    22    1
    17    23    24    1
    18    23    25    1
    19    25    26    2
    20    23    27    1
    21    27    28    1
    22    28    29    1
    23    29    30    2
    24    30    31    1
    25    30    32    1
    26    22    34    1
    27    34    35    1
    28     2    35    1
    29     2    21    1
    30     1     2    1
    31     6     7    1
    32     8     9    1
    33    12    16    2
    34    13    14    1
    35    13    15    1
    36    17    18    1
    37    21    36    1
    38    22    33    1
    39    22    23    1
    40     1    37    1
    41     1    38    1
    42     1    39    1
    43     4    40    1
    44     5    41    1
    45     5    42    1
    46     9    43    1
    47     9    44    1
    48     9    45    1
    49    10    46    1
    50    10    47    1
    51    11    48    1
    52    11    49    1
    53    14    50    1
    54    14    51    1
    55    14    52    1
    56    15    53    1
    57    15    54    1
    58    15    55    1
    59    19    56    1
    60    19    57    1
    61    20    58    1
    62    20    59    1
    63    25    60    1
    64    27    61    1
    65    27    62    1
    66    28    63    1
    67    28    64    1
    68    29    65    1
    69    31    66    1
    70    31    67    1
    71    31    68    1
    72    32    69    1
    73    32    70    1
    74    32    71    1
    75    34    72    1
    76    34    73    1
    77    35    74    1
    78    35    75    1
    79    36    76    1
    80    36    77    1
    81    36    78    1
