REMARK  Name = NuBBE_1196
REMARK  17 active torsions:
REMARK  status: ('A' for Active; 'I' for Inactive)
REMARK    1  A    between atoms: C_1  and  C_2
REMARK    2  A    between atoms: C_2  and  C_13
REMARK    3  A    between atoms: C_4  and  C_5
REMARK    4  A    between atoms: C_5  and  C_6
REMARK    5  A    between atoms: C_5  and  O_7
REMARK    6  A    between atoms: C_5  and  C_8
REMARK    7  A    between atoms: C_11  and  O_12
REMARK    8  A    between atoms: C_17  and  C_18
REMARK    9  A    between atoms: C_19  and  C_24
REMARK   10  A    between atoms: C_25  and  O_27
REMARK   11  A    between atoms: C_29  and  C_37
REMARK   12  A    between atoms: C_30  and  C_31
REMARK   13  A    between atoms: C_30  and  C_32
REMARK   14  A    between atoms: C_32  and  C_33
REMARK   15  A    between atoms: C_33  and  C_34
REMARK   16  A    between atoms: C_34  and  O_35
REMARK   17  A    between atoms: C_37  and  C_38
REMARK                            x       y       z     vdW  Elec       q    Type
REMARK                         _______ _______ _______ _____ _____    ______ ____
ROOT
ATOM      1  C   LIG A   1      -1.916  -0.074   2.504  0.00  0.00    +0.027 C 
ATOM      2  C   LIG A   1      -1.308   1.238   3.022  0.00  0.00    +0.007 C 
ATOM      3  C   LIG A   1      -1.280   2.277   1.903  0.00  0.00    +0.008 C 
ATOM      4  C   LIG A   1      -1.642   1.602   0.556  0.00  0.00    -0.021 C 
ATOM      5  C   LIG A   1      -2.743   2.503  -0.084  0.00  0.00    +0.012 C 
ATOM      6  C   LIG A   1      -0.429   1.369  -0.497  0.00  0.00    +0.003 C 
ATOM      7  C   LIG A   1      -0.969   0.576  -1.752  0.00  0.00    +0.004 C 
ATOM      8  C   LIG A   1      -2.082  -0.456  -1.422  0.00  0.00    +0.005 C 
ATOM      9  C   LIG A   1      -2.103  -0.892   0.023  0.00  0.00    +0.005 C 
ATOM     10  C   LIG A   1      -2.289   0.243   1.013  0.00  0.00    +0.002 C 
ATOM     11  C   LIG A   1       0.725   0.655   0.246  0.00  0.00    +0.014 C 
ATOM     12  C   LIG A   1       0.142   2.668  -1.158  0.00  0.00    +0.122 C 
ATOM     13  C   LIG A   1       1.323   2.384  -2.109  0.00  0.00    +0.040 C 
ATOM     14  C   LIG A   1       1.185   1.242  -3.165  0.00  0.00    +0.023 C 
ATOM     15  C   LIG A   1       0.116   0.082  -2.810  0.00  0.00    -0.022 C 
ATOM     16  C   LIG A   1       0.828  -1.192  -2.279  0.00  0.00    +0.012 C 
ENDROOT
BRANCH   1  18
ATOM     17  C   LIG A   1      -1.774  -2.681   2.461  0.00  0.00    +0.044 C 
ATOM     18  C   LIG A   1      -1.109  -1.366   2.942  0.00  0.00    +0.096 C 
ATOM     19  O   LIG A   1       0.252  -1.326   2.457  0.00  0.00    -0.365 OA
ATOM     20  C   LIG A   1       1.065  -2.186   3.297  0.00  0.00    +0.152 C 
ATOM     21  C   LIG A   1       0.328  -2.338   4.625  0.00  0.00    +0.068 C 
ATOM     22  C   LIG A   1      -0.895  -1.446   4.477  0.00  0.00    +0.149 C 
BRANCH  20  23
ATOM     23  C   LIG A   1       2.524  -1.670   3.373  0.00  0.00    +0.087 C 
ATOM     24  C   LIG A   1       3.401  -2.595   4.221  0.00  0.00    +0.043 C 
ATOM     25  C   LIG A   1       2.633  -0.229   3.876  0.00  0.00    +0.043 C 
BRANCH  23  26
ATOM     26  O   LIG A   1       3.069  -1.691   2.043  0.00  0.00    -0.387 OA
ATOM     27  H   LIG A   1       2.409  -1.245   1.478  0.00  0.00    +0.210 HD
ENDBRANCH  23  26
ENDBRANCH  20  23
BRANCH  22  28
ATOM     28  O   LIG A   1      -2.003  -1.935   5.217  0.00  0.00    -0.389 OA
ATOM     29  H   LIG A   1      -2.142  -2.873   4.999  0.00  0.00    +0.210 HD
ENDBRANCH  22  28
ENDBRANCH   1  18
BRANCH  14  30
ATOM     30  C   LIG A   1       2.590   0.816  -3.723  0.00  0.00    -0.076 C 
ATOM     31  C   LIG A   1       3.833   0.930  -2.857  0.00  0.00    +0.038 C 
ATOM     32  C   LIG A   1       2.811   0.448  -5.001  0.00  0.00    +0.007 C 
ENDBRANCH  14  30
BRANCH  12  33
ATOM     33  O   LIG A   1       0.581   3.594  -0.168  0.00  0.00    -0.391 OA
ATOM     34  H   LIG A   1       0.883   4.396  -0.626  0.00  0.00    +0.210 HD
ENDBRANCH  12  33
BRANCH  15  35
ATOM     35  C   LIG A   1      -0.668  -0.363  -4.135  0.00  0.00    +0.018 C 
BRANCH  35  36
ATOM     36  C   LIG A   1      -1.568   0.703  -4.785  0.00  0.00    +0.121 C 
BRANCH  36  37
ATOM     37  C   LIG A   1      -2.278   0.208  -6.025  0.00  0.00    +0.305 C 
ATOM     38  O   LIG A   1      -1.869   0.237  -7.152  0.00  0.00    -0.251 OA
BRANCH  37  39
ATOM     39  O   LIG A   1      -3.517  -0.257  -5.728  0.00  0.00    -0.481 OA
ATOM     40  H   LIG A   1      -3.909  -0.477  -6.598  0.00  0.00    +0.295 HD
ENDBRANCH  37  39
ENDBRANCH  36  37
ENDBRANCH  35  36
ENDBRANCH  15  35
TORSDOF 10
