REMARK  Name = NuBBE_1242
REMARK  9 active torsions:
REMARK  status: ('A' for Active; 'I' for Inactive)
REMARK    1  A    between atoms: C_5  and  O_6
REMARK    2  A    between atoms: C_7  and  O_8
REMARK    3  A    between atoms: C_17  and  O_18
REMARK    4  A    between atoms: O_18  and  C_19
REMARK    5  A    between atoms: C_22  and  C_24
REMARK    6  A    between atoms: C_25  and  O_27
REMARK    7  A    between atoms: C_28  and  O_30
REMARK    8  A    between atoms: C_31  and  O_33
REMARK    9  A    between atoms: C_34  and  O_35
REMARK                            x       y       z     vdW  Elec       q    Type
REMARK                         _______ _______ _______ _____ _____    ______ ____
ROOT
ATOM      1  O   LIG A   1      -6.018  -0.946  -0.450  0.00  0.00    -0.244 OA
ATOM      2  C   LIG A   1      -4.822  -1.038  -0.215  0.00  0.00    +0.345 A 
ATOM      3  C   LIG A   1      -4.180  -2.357   0.019  0.00  0.00    +0.074 A 
ATOM      4  C   LIG A   1      -4.948  -3.532  -0.041  0.00  0.00    +0.065 A 
ATOM      5  C   LIG A   1      -4.323  -4.759   0.165  0.00  0.00    +0.163 A 
ATOM      6  C   LIG A   1      -2.954  -4.827   0.424  0.00  0.00    +0.202 A 
ATOM      7  C   LIG A   1      -2.209  -3.656   0.496  0.00  0.00    +0.185 A 
ATOM      8  O   LIG A   1      -0.827  -3.725   0.776  0.00  0.00    -0.418 OA
ATOM      9  C   LIG A   1      -0.007  -2.599   0.883  0.00  0.00    +0.345 A 
ATOM     10  O   LIG A   1       1.187  -2.684   1.122  0.00  0.00    -0.244 OA
ATOM     11  C   LIG A   1      -2.813  -2.420   0.296  0.00  0.00    +0.047 A 
ATOM     12  C   LIG A   1      -2.019  -1.226   0.365  0.00  0.00    +0.047 A 
ATOM     13  C   LIG A   1      -0.659  -1.282   0.657  0.00  0.00    +0.074 A 
ATOM     14  C   LIG A   1       0.104  -0.103   0.688  0.00  0.00    +0.065 A 
ATOM     15  C   LIG A   1      -0.477   1.130   0.356  0.00  0.00    +0.170 A 
ATOM     16  C   LIG A   1      -1.854   1.181   0.109  0.00  0.00    +0.203 A 
ATOM     17  C   LIG A   1      -2.607   0.006   0.119  0.00  0.00    +0.185 A 
ATOM     18  O   LIG A   1      -3.991   0.085  -0.163  0.00  0.00    -0.418 OA
ENDROOT
BRANCH   5  19
ATOM     19  O   LIG A   1      -5.018  -5.936   0.124  0.00  0.00    -0.503 OA
ATOM     20  H   LIG A   1      -5.962  -5.743  -0.020  0.00  0.00    +0.292 HD
ENDBRANCH   5  19
BRANCH   6  21
ATOM     21  O   LIG A   1      -2.363  -6.043   0.609  0.00  0.00    -0.501 OA
ATOM     22  H   LIG A   1      -3.080  -6.700   0.510  0.00  0.00    +0.292 HD
ENDBRANCH   6  21
BRANCH  16  23
ATOM     23  O   LIG A   1      -2.454   2.377  -0.174  0.00  0.00    -0.501 OA
ATOM     24  H   LIG A   1      -3.404   2.209  -0.314  0.00  0.00    +0.292 HD
ENDBRANCH  16  23
BRANCH  15  25
ATOM     25  O   LIG A   1       0.220   2.309   0.247  0.00  0.00    -0.457 OA
BRANCH  25  26
ATOM     26  C   LIG A   1       1.612   2.193  -0.108  0.00  0.00    +0.339 C 
ATOM     27  O   LIG A   1       2.386   2.089   1.093  0.00  0.00    -0.334 OA
ATOM     28  C   LIG A   1       3.801   1.994   0.895  0.00  0.00    +0.150 C 
ATOM     29  C   LIG A   1       4.187   0.601   0.407  0.00  0.00    +0.040 C 
ATOM     30  C   LIG A   1       4.356   3.146   0.029  0.00  0.00    +0.174 C 
ATOM     31  C   LIG A   1       3.533   3.364  -1.239  0.00  0.00    +0.180 C 
ATOM     32  C   LIG A   1       2.035   3.445  -0.913  0.00  0.00    +0.214 C 
BRANCH  30  33
ATOM     33  O   LIG A   1       4.317   4.377   0.769  0.00  0.00    -0.387 OA
ATOM     34  H   LIG A   1       4.784   4.234   1.611  0.00  0.00    +0.210 HD
ENDBRANCH  30  33
BRANCH  31  35
ATOM     35  O   LIG A   1       3.773   2.316  -2.189  0.00  0.00    -0.386 OA
ATOM     36  H   LIG A   1       3.076   2.417  -2.869  0.00  0.00    +0.210 HD
ENDBRANCH  31  35
BRANCH  32  37
ATOM     37  O   LIG A   1       1.335   3.546  -2.169  0.00  0.00    -0.383 OA
ATOM     38  H   LIG A   1       1.264   4.500  -2.363  0.00  0.00    +0.210 HD
ENDBRANCH  32  37
ENDBRANCH  25  26
ENDBRANCH  15  25
TORSDOF 8
