@<TRIPOS>MOLECULE
NuBBE_2147
 59 62 0 0 0
SMALL
GASTEIGER

@<TRIPOS>ATOM
      1 C          -4.5540   -3.1184   -2.0873 C.3     1  LIG1        0.0790
      2 O          -3.3189   -2.4439   -1.8812 O.3     1  LIG1       -0.4913
      3 C          -3.0979   -1.9101   -0.6432 C.ar    1  LIG1        0.1656
      4 C          -3.9280   -1.9416    0.4576 C.ar    1  LIG1        0.2075
      5 O          -5.1562   -2.5220    0.5608 O.3     1  LIG1       -0.4489
      6 C          -5.5286   -2.1713    1.9040 C.3     1  LIG1        0.2334
      7 O          -4.4851   -1.4885    2.6218 O.3     1  LIG1       -0.4525
      8 C          -3.5482   -1.3494    1.6417 C.ar    1  LIG1        0.1702
      9 C          -2.3405   -0.6892    1.7920 C.ar    1  LIG1       -0.0124
     10 C          -1.4626   -0.6085    0.6951 C.ar    1  LIG1       -0.0340
     11 C          -0.1184    0.1328    0.8714 C.3     1  LIG1        0.0216
     12 H          -0.1058    0.4360    1.9242 H       1  LIG1        0.0381
     13 C           1.0919   -0.7977    0.5890 C.3     1  LIG1       -0.0258
     14 H           0.7214   -1.7883    0.2949 H       1  LIG1        0.0311
     15 C           1.9046   -1.0212    1.8682 C.3     1  LIG1       -0.0612
     16 C           1.8532   -0.1652   -0.6390 C.3     1  LIG1        0.0086
     17 C           2.3009   -1.2589   -1.6494 C.3     1  LIG1       -0.0265
     18 C           3.2285   -2.3126   -1.0958 C.2     1  LIG1       -0.0905
     19 C           4.4574   -2.5524   -1.5478 C.2     1  LIG1       -0.1026
     20 C           0.7637    0.7314   -1.2820 C.3     1  LIG1        0.0934
     21 O           1.2737    1.6105   -2.2681 O.3     1  LIG1       -0.3883
     22 H           0.0171    0.1478   -1.8145 H       1  LIG1        0.0629
     23 C           3.0648    0.7250   -0.2395 C.3     1  LIG1       -0.0154
     24 C           2.7162    2.1702    0.1846 C.3     1  LIG1        0.0876
     25 H           3.3741    2.4311    1.0237 H       1  LIG1        0.0623
     26 O           3.1490    3.0120   -0.9054 O.3     1  LIG1       -0.3771
     27 C           2.9444    4.4059   -0.7656 C.3     1  LIG1        0.0369
     28 C           1.2321    2.3814    0.6017 C.3     1  LIG1        0.1131
     29 H           0.9314    3.3962    0.3354 H       1  LIG1        0.0649
     30 O           1.1445    2.3628    2.0434 O.3     1  LIG1       -0.3863
     31 C           0.1665    1.3973   -0.0228 C.3     1  LIG1        0.1304
     32 O          -1.0431    2.1122   -0.3476 O.3     1  LIG1       -0.3707
     33 C          -1.6786    2.7491    0.7626 C.3     1  LIG1        0.0374
     34 C          -1.8614   -1.2506   -0.5030 C.ar    1  LIG1       -0.0125
     35 H          -4.5923   -3.4314   -3.1354 H       1  LIG1        0.0660
     36 H          -5.4086   -2.4551   -1.9185 H       1  LIG1        0.0660
     37 H          -4.6136   -4.0218   -1.4718 H       1  LIG1        0.0660
     38 H          -5.7957   -3.0867    2.4441 H       1  LIG1        0.1166
     39 H          -6.4106   -1.5212    1.8618 H       1  LIG1        0.1166
     40 H          -2.0933   -0.2450    2.7513 H       1  LIG1        0.0658
     41 H           2.2554   -0.0817    2.3059 H       1  LIG1        0.0233
     42 H           2.7737   -1.6585    1.6882 H       1  LIG1        0.0233
     43 H           1.2860   -1.5153    2.6257 H       1  LIG1        0.0233
     44 H           1.4138   -1.7827   -2.0297 H       1  LIG1        0.0314
     45 H           2.7597   -0.7823   -2.5255 H       1  LIG1        0.0314
     46 H           2.8377   -2.9448   -0.2974 H       1  LIG1        0.0566
     47 H           4.8932   -1.9769   -2.3610 H       1  LIG1        0.0532
     48 H           5.0653   -3.3470   -1.1180 H       1  LIG1        0.0532
     49 H           0.5163    2.0831   -2.6555 H       1  LIG1        0.2099
     50 H           3.7608    0.7766   -1.0892 H       1  LIG1        0.0297
     51 H           3.6472    0.2480    0.5554 H       1  LIG1        0.0297
     52 H           3.5914    4.9178   -1.4843 H       1  LIG1        0.0524
     53 H           3.1934    4.7501    0.2411 H       1  LIG1        0.0524
     54 H           1.9133    4.6680   -1.0209 H       1  LIG1        0.0524
     55 H           1.7045    3.0833    2.3830 H       1  LIG1        0.2100
     56 H          -1.1877    3.6983    0.9971 H       1  LIG1        0.0524
     57 H          -1.6948    2.1239    1.6582 H       1  LIG1        0.0524
     58 H          -2.7128    2.9684    0.4842 H       1  LIG1        0.0524
     59 H          -1.2108   -1.2790   -1.3690 H       1  LIG1        0.0658
@<TRIPOS>BOND
     1     1     2    1
     2     2     3    1
     3     3     4   ar
     4     4     5    1
     5     5     6    1
     6     6     7    1
     7     4     8   ar
     8     7     8    1
     9     8     9   ar
    10     9    10   ar
    11    11    13    1
    12    13    16    1
    13    17    18    1
    14    18    19    2
    15    16    20    1
    16    16    23    1
    17    23    24    1
    18    26    27    1
    19    24    28    1
    20    28    31    1
    21    20    31    1
    22    11    31    1
    23    32    33    1
    24    10    34   ar
    25     3    34   ar
    26    10    11    1
    27    11    12    1
    28    13    14    1
    29    13    15    1
    30    16    17    1
    31    20    21    1
    32    20    22    1
    33    28    29    1
    34    28    30    1
    35    31    32    1
    36    24    26    1
    37    24    25    1
    38     1    35    1
    39     1    36    1
    40     1    37    1
    41     6    38    1
    42     6    39    1
    43     9    40    1
    44    15    41    1
    45    15    42    1
    46    15    43    1
    47    17    44    1
    48    17    45    1
    49    18    46    1
    50    19    47    1
    51    19    48    1
    52    21    49    1
    53    23    50    1
    54    23    51    1
    55    27    52    1
    56    27    53    1
    57    27    54    1
    58    30    55    1
    59    33    56    1
    60    33    57    1
    61    33    58    1
    62    34    59    1
