REMARK  Name = NuBBE_284
REMARK  11 active torsions:
REMARK  status: ('A' for Active; 'I' for Inactive)
REMARK    1  A    between atoms: O_1  and  C_2
REMARK    2  A    between atoms: C_5  and  O_6
REMARK    3  A    between atoms: O_6  and  C_7
REMARK    4  A    between atoms: C_10  and  C_18
REMARK    5  A    between atoms: C_12  and  O_17
REMARK    6  A    between atoms: C_14  and  O_16
REMARK    7  A    between atoms: C_18  and  O_19
REMARK    8  A    between atoms: C_20  and  O_22
REMARK    9  A    between atoms: C_23  and  C_30
REMARK   10  A    between atoms: C_27  and  O_28
REMARK   11  A    between atoms: C_33  and  O_36
REMARK                            x       y       z     vdW  Elec       q    Type
REMARK                         _______ _______ _______ _____ _____    ______ ____
ROOT
ATOM      1  C   LIG A   1      -0.253  -4.333  -1.270  0.00  0.00    +0.135 A 
ATOM      2  C   LIG A   1      -0.103  -3.319  -0.320  0.00  0.00    +0.109 A 
ATOM      3  C   LIG A   1       0.192  -1.930  -0.718  0.00  0.00    +0.238 A 
ATOM      4  C   LIG A   1       0.190  -0.877   0.341  0.00  0.00    +0.214 A 
ATOM      5  C   LIG A   1       0.077  -1.308   1.617  0.00  0.00    +0.181 A 
ATOM      6  O   LIG A   1      -0.081  -2.638   2.003  0.00  0.00    -0.451 OA
ATOM      7  C   LIG A   1      -0.211  -3.600   1.031  0.00  0.00    +0.146 A 
ATOM      8  C   LIG A   1      -0.458  -4.915   1.448  0.00  0.00    +0.092 A 
ATOM      9  C   LIG A   1      -0.602  -5.923   0.493  0.00  0.00    +0.124 A 
ATOM     10  C   LIG A   1      -0.506  -5.643  -0.865  0.00  0.00    +0.091 A 
ATOM     11  O   LIG A   1       0.427  -1.709  -1.896  0.00  0.00    -0.283 OA
ENDROOT
BRANCH   5  12
ATOM     12  C   LIG A   1       0.154  -0.394   2.781  0.00  0.00    +0.021 A 
ATOM     13  C   LIG A   1       1.377  -0.148   3.427  0.00  0.00    +0.015 A 
ATOM     14  C   LIG A   1       1.445   0.701   4.542  0.00  0.00    +0.046 A 
ATOM     15  C   LIG A   1       0.286   1.302   5.018  0.00  0.00    +0.117 A 
ATOM     16  C   LIG A   1      -0.936   1.062   4.402  0.00  0.00    +0.046 A 
ATOM     17  C   LIG A   1      -1.003   0.216   3.285  0.00  0.00    +0.015 A 
BRANCH  15  18
ATOM     18  O   LIG A   1       0.302   2.138   6.096  0.00  0.00    -0.507 OA
ATOM     19  H   LIG A   1       1.218   2.245   6.403  0.00  0.00    +0.292 HD
ENDBRANCH  15  18
ENDBRANCH   5  12
BRANCH   1  20
ATOM     20  O   LIG A   1      -0.175  -4.124  -2.622  0.00  0.00    -0.506 OA
ATOM     21  H   LIG A   1       0.067  -3.182  -2.772  0.00  0.00    +0.292 HD
ENDBRANCH   1  20
BRANCH   9  22
ATOM     22  O   LIG A   1      -0.841  -7.219   0.847  0.00  0.00    -0.506 OA
ATOM     23  H   LIG A   1      -0.880  -7.291   1.814  0.00  0.00    +0.292 HD
ENDBRANCH   9  22
BRANCH   4  24
ATOM     24  O   LIG A   1       0.385   0.465   0.037  0.00  0.00    -0.453 OA
BRANCH  24  25
ATOM     25  C   LIG A   1      -0.147   0.965  -1.202  0.00  0.00    +0.340 C 
ATOM     26  O   LIG A   1       0.943   1.505  -1.985  0.00  0.00    -0.331 OA
ATOM     27  C   LIG A   1       0.444   2.231  -3.124  0.00  0.00    +0.179 C 
ATOM     28  C   LIG A   1      -0.179   3.564  -2.649  0.00  0.00    +0.177 C 
ATOM     29  C   LIG A   1      -0.633   3.455  -1.178  0.00  0.00    +0.180 C 
ATOM     30  C   LIG A   1      -1.206   2.063  -0.886  0.00  0.00    +0.214 C 
BRANCH  29  31
ATOM     31  O   LIG A   1       0.480   3.759  -0.319  0.00  0.00    -0.386 OA
ATOM     32  H   LIG A   1       1.149   3.053  -0.450  0.00  0.00    +0.210 HD
ENDBRANCH  29  31
BRANCH  28  33
ATOM     33  O   LIG A   1       0.729   4.669  -2.778  0.00  0.00    -0.387 OA
ATOM     34  H   LIG A   1       1.054   4.862  -1.873  0.00  0.00    +0.210 HD
ENDBRANCH  28  33
BRANCH  30  35
ATOM     35  O   LIG A   1      -2.366   1.859  -1.714  0.00  0.00    -0.383 OA
ATOM     36  H   LIG A   1      -3.083   2.420  -1.367  0.00  0.00    +0.210 HD
ENDBRANCH  30  35
BRANCH  27  37
ATOM     37  C   LIG A   1       1.555   2.410  -4.163  0.00  0.00    +0.190 C 
BRANCH  37  38
ATOM     38  O   LIG A   1       1.092   3.140  -5.295  0.00  0.00    -0.392 OA
ATOM     39  H   LIG A   1       0.974   4.061  -4.989  0.00  0.00    +0.209 HD
ENDBRANCH  37  38
ENDBRANCH  27  37
ENDBRANCH  24  25
ENDBRANCH   4  24
TORSDOF 11
