@<TRIPOS>MOLECULE
NuBBE_1336
 40 44 0 0 0
SMALL
GASTEIGER

@<TRIPOS>ATOM
      1 O          -0.5308    0.3820    1.9780 O.2     1  LIG1       -0.2699
      2 C           0.0325    0.7345    0.9675 C.2     1  LIG1        0.2501
      3 C           1.5081    0.5298    0.7735 C.ar    1  LIG1        0.0580
      4 C           2.0391    1.4478   -0.1287 C.ar    1  LIG1        0.0433
      5 N           1.3434    1.6846   -1.3443 N.pl3   1  LIG1       -0.3089
      6 C          -0.0066    1.0700   -1.3829 C.3     1  LIG1        0.1339
      7 N          -0.5622    1.4561   -0.1002 N.am    1  LIG1       -0.2732
      8 C          -1.9868    1.7284   -0.1251 C.3     1  LIG1        0.0211
      9 C          -2.7934    0.5257   -0.6475 C.3     1  LIG1       -0.0094
     10 C          -1.8679   -0.6013   -1.0365 C.ar    1  LIG1       -0.0142
     11 C          -0.5400   -0.3733   -1.4446 C.ar    1  LIG1        0.0594
     12 N           0.1000   -1.5957   -1.3821 N.ar    1  LIG1       -0.3549
     13 H           1.0853   -1.7500   -1.5461 H       1  LIG1        0.1657
     14 C          -0.7132   -2.5067   -0.6936 C.ar    1  LIG1        0.0470
     15 C          -1.9631   -1.9135   -0.5243 C.ar    1  LIG1        0.0033
     16 C          -2.9509   -2.5392    0.2661 C.ar    1  LIG1       -0.0523
     17 C          -2.6583   -3.7337    0.9126 C.ar    1  LIG1       -0.0611
     18 C          -1.4193   -4.3348    0.7206 C.ar    1  LIG1       -0.0598
     19 C          -0.4355   -3.7547   -0.1067 C.ar    1  LIG1       -0.0378
     20 C           1.2485    3.1318   -1.6720 C.3     1  LIG1        0.0028
     21 C           3.2007    2.0967    0.2985 C.ar    1  LIG1       -0.0399
     22 C           3.9046    1.6311    1.4185 C.ar    1  LIG1       -0.0600
     23 C           3.5256    0.4404    2.0366 C.ar    1  LIG1       -0.0609
     24 C           2.2914   -0.1158    1.7260 C.ar    1  LIG1       -0.0478
     25 H          -0.5440    1.5769   -2.1992 H       1  LIG1        0.0778
     26 H          -2.1292    2.5808   -0.8023 H       1  LIG1        0.0468
     27 H          -2.3141    2.0388    0.8698 H       1  LIG1        0.0468
     28 H          -3.4185    0.8144   -1.4984 H       1  LIG1        0.0329
     29 H          -3.4684    0.2136    0.1556 H       1  LIG1        0.0329
     30 H          -3.8938   -2.0365    0.4650 H       1  LIG1        0.0624
     31 H          -3.3868   -4.1586    1.5994 H       1  LIG1        0.0618
     32 H          -1.2020   -5.2549    1.2593 H       1  LIG1        0.0618
     33 H           0.5340   -4.2299   -0.2034 H       1  LIG1        0.0638
     34 H           2.1230    3.7308   -1.4105 H       1  LIG1        0.0428
     35 H           0.3905    3.5959   -1.1636 H       1  LIG1        0.0428
     36 H           1.0923    3.2559   -2.7485 H       1  LIG1        0.0428
     37 H           3.5648    3.0006   -0.1780 H       1  LIG1        0.0636
     38 H           4.7550    2.1930    1.7981 H       1  LIG1        0.0618
     39 H           4.1383    0.0120    2.8244 H       1  LIG1        0.0618
     40 H           1.9081   -0.9729    2.2690 H       1  LIG1        0.0626
@<TRIPOS>BOND
     1     1     2    2
     2     2     3    1
     3     3     4   ar
     4     4     5    1
     5     5     6    1
     6     6     7    1
     7     2     7   am
     8     7     8    1
     9     8     9    1
    10     9    10    1
    11    10    11   ar
    12     6    11    1
    13    11    12   ar
    14    12    13    1
    15    12    14   ar
    16    14    15   ar
    17    10    15   ar
    18    15    16   ar
    19    16    17   ar
    20    17    18   ar
    21    18    19   ar
    22    14    19   ar
    23     5    20    1
    24     4    21   ar
    25    21    22   ar
    26    22    23   ar
    27    23    24   ar
    28     3    24   ar
    29     6    25    1
    30     8    26    1
    31     8    27    1
    32     9    28    1
    33     9    29    1
    34    16    30    1
    35    17    31    1
    36    18    32    1
    37    19    33    1
    38    20    34    1
    39    20    35    1
    40    20    36    1
    41    21    37    1
    42    22    38    1
    43    23    39    1
    44    24    40    1
