@<TRIPOS>MOLECULE
NuBBE_1091
 30 31 0 0 0
SMALL
GASTEIGER

@<TRIPOS>ATOM
      1 H          -0.2043   -1.9456   -0.9103 H       1  LIG1        0.1458
      2 N           0.1052   -2.5497   -0.1487 N.pl3   1  LIG1       -0.3464
      3 C           0.6199   -3.8049   -0.6736 C.3     1  LIG1       -0.0024
      4 C           0.9148   -1.8138    0.7469 C.ar    1  LIG1        0.0377
      5 C           0.8113   -0.3964    0.8341 C.ar    1  LIG1        0.0383
      6 C          -0.0301    0.4077   -0.0897 C.ar    1  LIG1        0.1443
      7 O          -0.1533   -0.1192   -1.3988 O.2     1  LIG1       -0.4219
      8 C          -0.6403    1.5533    0.2479 C.ar    1  LIG1        0.0234
      9 C          -1.4192    2.2700   -0.7253 C.ar    1  LIG1        0.1304
     10 O          -1.9453    3.4367   -0.2296 O.3     1  LIG1       -0.4948
     11 C          -2.7405    4.2219   -1.1102 C.3     1  LIG1        0.0788
     12 C          -1.5612    1.7739   -1.9610 C.ar    1  LIG1        0.0646
     13 C          -0.9180    0.5066   -2.3388 C.ar    1  LIG1        0.3407
     14 O          -1.0724    0.0480   -3.4632 O.2     1  LIG1       -0.2451
     15 C           1.5803    0.2873    1.8012 C.ar    1  LIG1       -0.0493
     16 C           2.4015   -0.3958    2.6950 C.ar    1  LIG1       -0.0610
     17 C           2.4701   -1.7789    2.6401 C.ar    1  LIG1       -0.0600
     18 C           1.7264   -2.4770    1.6862 C.ar    1  LIG1       -0.0402
     19 H          -0.0713   -4.1808   -1.4353 H       1  LIG1        0.0425
     20 H           0.6889   -4.5742    0.1007 H       1  LIG1        0.0425
     21 H           1.5963   -3.6661   -1.1497 H       1  LIG1        0.0425
     22 H          -0.5770    1.9748    1.2457 H       1  LIG1        0.0691
     23 H          -3.0855    5.1014   -0.5593 H       1  LIG1        0.0660
     24 H          -3.6213    3.6629   -1.4424 H       1  LIG1        0.0660
     25 H          -2.1502    4.5669   -1.9654 H       1  LIG1        0.0660
     26 H          -2.1344    2.2479   -2.7439 H       1  LIG1        0.0726
     27 H           1.5551    1.3727    1.8675 H       1  LIG1        0.0625
     28 H           2.9775    0.1540    3.4342 H       1  LIG1        0.0618
     29 H           3.0945   -2.3225    3.3437 H       1  LIG1        0.0618
     30 H           1.7829   -3.5610    1.7019 H       1  LIG1        0.0636
@<TRIPOS>BOND
     1     1     2    1
     2     2     3    1
     3     2     4    1
     4     4     5   ar
     5     5     6    1
     6     6     7   ar
     7     6     8   ar
     8     8     9   ar
     9     9    10    1
    10    10    11    1
    11     9    12   ar
    12    12    13   ar
    13     7    13   ar
    14    13    14    2
    15     5    15   ar
    16    15    16   ar
    17    16    17   ar
    18    17    18   ar
    19     4    18   ar
    20     3    19    1
    21     3    20    1
    22     3    21    1
    23     8    22    1
    24    11    23    1
    25    11    24    1
    26    11    25    1
    27    12    26    1
    28    15    27    1
    29    16    28    1
    30    17    29    1
    31    18    30    1
