REMARK  Name = NuBBE_616
REMARK  6 active torsions:
REMARK  status: ('A' for Active; 'I' for Inactive)
REMARK    1  A    between atoms: C_3  and  C_4
REMARK    2  A    between atoms: C_4  and  C_7
REMARK    3  A    between atoms: C_7  and  O_8
REMARK    4  A    between atoms: C_12  and  C_13
REMARK    5  A    between atoms: C_14  and  C_16
REMARK    6  A    between atoms: C_17  and  O_19
REMARK                            x       y       z     vdW  Elec       q    Type
REMARK                         _______ _______ _______ _____ _____    ______ ____
ROOT
ATOM      1  O   LIG A   1      -2.123   2.860  -1.042  0.00  0.00    -0.289 OA
ATOM      2  C   LIG A   1      -1.345   1.958  -0.740  0.00  0.00    +0.193 C 
ATOM      3  C   LIG A   1      -1.733   0.527  -0.822  0.00  0.00    +0.191 C 
ATOM      4  O   LIG A   1      -1.215  -0.117  -2.005  0.00  0.00    -0.352 OA
ATOM      5  C   LIG A   1      -0.640  -0.529  -0.755  0.00  0.00    +0.173 C 
ATOM      6  C   LIG A   1       0.827  -0.145  -0.534  0.00  0.00    +0.024 C 
ATOM      7  C   LIG A   1       1.602  -0.365  -1.857  0.00  0.00    +0.019 C 
ATOM      8  C   LIG A   1       1.407  -1.068   0.614  0.00  0.00    +0.027 C 
ATOM      9  C   LIG A   1       1.536  -2.551   0.202  0.00  0.00    +0.011 C 
ATOM     10  C   LIG A   1       2.772  -0.584   1.160  0.00  0.00    +0.119 C 
ATOM     11  C   LIG A   1       2.745   0.885   1.559  0.00  0.00    +0.036 C 
ATOM     12  C   LIG A   1       2.335   1.758   0.389  0.00  0.00    +0.034 C 
ATOM     13  C   LIG A   1       0.984   1.335  -0.133  0.00  0.00    -0.057 C 
ATOM     14  C   LIG A   1       0.006   2.256  -0.231  0.00  0.00    +0.049 C 
ENDROOT
BRANCH   3  15
ATOM     15  C   LIG A   1      -3.196   0.184  -0.453  0.00  0.00    +0.154 C 
ATOM     16  O   LIG A   1      -3.541  -1.222  -0.548  0.00  0.00    -0.362 OA
ATOM     17  C   LIG A   1      -4.186  -0.347  -1.476  0.00  0.00    +0.201 C 
BRANCH  15  18
ATOM     18  C   LIG A   1      -3.732   0.790   0.821  0.00  0.00    +0.196 C 
BRANCH  18  19
ATOM     19  O   LIG A   1      -3.151   0.117   1.935  0.00  0.00    -0.392 OA
ATOM     20  H   LIG A   1      -3.321  -0.832   1.786  0.00  0.00    +0.209 HD
ENDBRANCH  18  19
ENDBRANCH  15  18
ENDBRANCH   3  15
BRANCH  10  21
ATOM     21  O   LIG A   1       3.136  -1.326   2.325  0.00  0.00    -0.392 OA
ATOM     22  H   LIG A   1       3.448  -2.201   2.040  0.00  0.00    +0.210 HD
ENDBRANCH  10  21
TORSDOF 4
