REMARK  Name = NuBBE_2430
REMARK  5 active torsions:
REMARK  status: ('A' for Active; 'I' for Inactive)
REMARK    1  A    between atoms: C_6  and  C_9
REMARK    2  A    between atoms: C_7  and  O_8
REMARK    3  A    between atoms: C_16  and  O_20
REMARK    4  A    between atoms: C_18  and  O_19
REMARK    5  A    between atoms: O_20  and  C_21
REMARK                            x       y       z     vdW  Elec       q    Type
REMARK                         _______ _______ _______ _____ _____    ______ ____
ROOT
ATOM      1  O   LIG A   1      -3.647  -0.039  -0.302  0.00  0.00    -0.283 OA
ATOM      2  C   LIG A   1      -2.428  -0.048  -0.173  0.00  0.00    +0.238 A 
ATOM      3  C   LIG A   1      -1.590  -1.256  -0.055  0.00  0.00    +0.109 A 
ATOM      4  C   LIG A   1      -0.214  -1.076   0.076  0.00  0.00    +0.146 A 
ATOM      5  O   LIG A   1       0.386   0.158   0.134  0.00  0.00    -0.451 OA
ATOM      6  C   LIG A   1      -0.397   1.304   0.027  0.00  0.00    +0.181 A 
ATOM      7  C   LIG A   1      -1.732   1.264  -0.139  0.00  0.00    +0.208 A 
ATOM      8  C   LIG A   1       0.645  -2.178   0.168  0.00  0.00    +0.092 A 
ATOM      9  C   LIG A   1       0.124  -3.470   0.134  0.00  0.00    +0.127 A 
ATOM     10  C   LIG A   1      -1.256  -3.655   0.035  0.00  0.00    +0.092 A 
ATOM     11  C   LIG A   1      -2.110  -2.554  -0.069  0.00  0.00    +0.135 A 
ENDROOT
BRANCH   6  12
ATOM     12  C   LIG A   1       0.402   2.558   0.097  0.00  0.00    +0.021 A 
ATOM     13  C   LIG A   1       1.728   2.577  -0.371  0.00  0.00    +0.012 A 
ATOM     14  C   LIG A   1       2.509   3.736  -0.294  0.00  0.00    +0.001 A 
ATOM     15  C   LIG A   1       1.978   4.900   0.252  0.00  0.00    +0.000 A 
ATOM     16  C   LIG A   1       0.672   4.903   0.731  0.00  0.00    +0.001 A 
ATOM     17  C   LIG A   1      -0.102   3.740   0.664  0.00  0.00    +0.012 A 
ENDBRANCH   6  12
BRANCH   7  18
ATOM     18  O   LIG A   1      -2.541   2.377  -0.293  0.00  0.00    -0.501 OA
ATOM     19  H   LIG A   1      -3.447   2.007  -0.390  0.00  0.00    +0.292 HD
ENDBRANCH   7  18
BRANCH  11  20
ATOM     20  O   LIG A   1      -3.453  -2.771  -0.182  0.00  0.00    -0.506 OA
ATOM     21  H   LIG A   1      -3.645  -3.722  -0.157  0.00  0.00    +0.292 HD
ENDBRANCH  11  20
BRANCH   9  22
ATOM     22  O   LIG A   1       0.857  -4.619   0.241  0.00  0.00    -0.495 OA
ATOM     23  C   LIG A   1       2.182  -4.557  -0.280  0.00  0.00    +0.277 C 
ENDBRANCH   9  22
TORSDOF 4
