REMARK  Name = NuBBE_1005
REMARK  10 active torsions:
REMARK  status: ('A' for Active; 'I' for Inactive)
REMARK    1  A    between atoms: C_1  and  C_2
REMARK    2  A    between atoms: C_2  and  C_3
REMARK    3  A    between atoms: C_2  and  C_35
REMARK    4  A    between atoms: C_3  and  C_5
REMARK    5  A    between atoms: C_3  and  C_34
REMARK    6  A    between atoms: C_6  and  C_7
REMARK    7  A    between atoms: C_7  and  C_9
REMARK    8  A    between atoms: C_7  and  C_33
REMARK    9  A    between atoms: C_21  and  C_28
REMARK   10  A    between atoms: C_25  and  C_26
REMARK                            x       y       z     vdW  Elec       q    Type
REMARK                         _______ _______ _______ _____ _____    ______ ____
ROOT
ATOM      1  C   LIG A   1       1.012   0.435  -0.353  0.00  0.00    +0.005 C 
ATOM      2  C   LIG A   1       0.961  -0.866  -1.190  0.00  0.00    +0.007 C 
ATOM      3  C   LIG A   1      -0.399  -1.485  -0.875  0.00  0.00    +0.039 C 
ATOM      4  C   LIG A   1      -0.753  -0.947   0.477  0.00  0.00    +0.105 C 
ATOM      5  C   LIG A   1      -2.199  -0.929   0.985  0.00  0.00    +0.110 C 
ATOM      6  C   LIG A   1      -3.300  -1.511   0.141  0.00  0.00    +0.117 C 
ATOM      7  C   LIG A   1      -4.621  -1.689   0.853  0.00  0.00    +0.163 C 
ATOM      8  C   LIG A   1      -4.915  -0.839   2.048  0.00  0.00    +0.005 C 
ATOM      9  C   LIG A   1      -6.210  -0.545   2.258  0.00  0.00    +0.053 C 
ATOM     10  C   LIG A   1      -6.624   0.244   3.436  0.00  0.00    +0.157 C 
ATOM     11  C   LIG A   1      -5.583   0.583   4.471  0.00  0.00    +0.080 C 
ATOM     12  C   LIG A   1      -4.226   0.808   3.816  0.00  0.00    +0.019 C 
ATOM     13  C   LIG A   1      -3.758  -0.370   2.914  0.00  0.00    +0.002 C 
ATOM     14  C   LIG A   1      -2.606   0.135   1.979  0.00  0.00    +0.035 C 
ATOM     15  C   LIG A   1      -1.402   0.745   2.720  0.00  0.00    +0.008 C 
ATOM     16  C   LIG A   1      -0.317   1.189   1.733  0.00  0.00    +0.010 C 
ATOM     17  C   LIG A   1       0.327   0.000   0.993  0.00  0.00    +0.003 C 
ATOM     18  C   LIG A   1       1.307  -0.750   1.921  0.00  0.00    +0.014 C 
ATOM     19  C   LIG A   1      -3.320  -1.548   3.813  0.00  0.00    +0.016 C 
ATOM     20  O   LIG A   1      -7.808   0.550   3.576  0.00  0.00    -0.293 OA
ATOM     21  O   LIG A   1      -5.481  -2.448   0.403  0.00  0.00    -0.292 OA
ATOM     22  O   LIG A   1      -1.245  -1.897   1.433  0.00  0.00    -0.360 OA
ENDROOT
BRANCH   1  23
ATOM     23  C   LIG A   1       2.441   1.042  -0.312  0.00  0.00    +0.012 C 
ATOM     24  C   LIG A   1       2.520   2.343   0.490  0.00  0.00    +0.012 C 
BRANCH  23  26
ATOM     25  C   LIG A   1       3.990   0.744  -2.289  0.00  0.00    -0.027 C 
ATOM     26  C   LIG A   1       2.916   1.324  -1.726  0.00  0.00    -0.027 C 
BRANCH  25  27
ATOM     27  C   LIG A   1       4.399   0.951  -3.734  0.00  0.00    +0.011 C 
ATOM     28  C   LIG A   1       5.700   1.761  -3.772  0.00  0.00    +0.012 C 
BRANCH  27  30
ATOM     29  C   LIG A   1       4.936  -0.233  -5.947  0.00  0.00    +0.008 C 
ATOM     30  C   LIG A   1       4.529  -0.410  -4.480  0.00  0.00    -0.011 C 
ATOM     31  C   LIG A   1       3.224  -1.217  -4.423  0.00  0.00    +0.008 C 
ENDBRANCH  27  30
ENDBRANCH  25  27
ENDBRANCH  23  26
ENDBRANCH   1  23
TORSDOF 4
