REMARK  Name = NuBBE_2002
REMARK  12 active torsions:
REMARK  status: ('A' for Active; 'I' for Inactive)
REMARK    1  A    between atoms: C_1  and  C_2
REMARK    2  A    between atoms: C_7  and  C_9
REMARK    3  A    between atoms: C_12  and  O_13
REMARK    4  A    between atoms: O_13  and  C_14
REMARK    5  A    between atoms: C_14  and  C_15
REMARK    6  A    between atoms: C_21  and  O_22
REMARK    7  A    between atoms: O_22  and  C_23
REMARK    8  A    between atoms: C_27  and  O_28
REMARK    9  A    between atoms: C_29  and  C_30
REMARK   10  A    between atoms: C_31  and  O_32
REMARK   11  A    between atoms: O_32  and  C_33
REMARK   12  A    between atoms: C_33  and  C_34
REMARK                            x       y       z     vdW  Elec       q    Type
REMARK                         _______ _______ _______ _____ _____    ______ ____
ROOT
ATOM      1  C   LIG A   1      -3.364  -0.246  -1.514  0.00  0.00    +0.051 C 
ATOM      2  C   LIG A   1      -2.141   0.060  -2.338  0.00  0.00    +0.034 A 
ATOM      3  C   LIG A   1      -1.674   1.426  -2.465  0.00  0.00    +0.142 A 
ATOM      4  C   LIG A   1      -0.625   1.797  -3.323  0.00  0.00    +0.101 A 
ATOM      5  C   LIG A   1      -0.181   3.212  -3.464  0.00  0.00    +0.174 C 
ATOM      6  C   LIG A   1      -0.860   4.191  -2.552  0.00  0.00    +0.129 C 
ATOM      7  C   LIG A   1      -1.264   3.439  -1.280  0.00  0.00    +0.211 C 
ATOM      8  O   LIG A   1      -2.215   2.385  -1.621  0.00  0.00    -0.483 OA
ATOM      9  O   LIG A   1       0.685   3.563  -4.302  0.00  0.00    -0.292 OA
ATOM     10  C   LIG A   1       0.031   0.795  -4.001  0.00  0.00    +0.137 A 
ATOM     11  C   LIG A   1      -0.337  -0.573  -3.831  0.00  0.00    +0.034 A 
ATOM     12  C   LIG A   1       0.526  -1.520  -4.611  0.00  0.00    +0.051 C 
ATOM     13  C   LIG A   1      -1.424  -0.975  -2.985  0.00  0.00    +0.134 A 
ENDROOT
BRANCH   7  14
ATOM     14  C   LIG A   1      -0.092   2.956  -0.410  0.00  0.00    -0.003 A 
ATOM     15  C   LIG A   1       1.128   3.632  -0.328  0.00  0.00    +0.011 A 
ATOM     16  C   LIG A   1       2.129   3.180   0.532  0.00  0.00    +0.050 A 
ATOM     17  C   LIG A   1       1.935   2.070   1.368  0.00  0.00    +0.162 A 
ATOM     18  C   LIG A   1       0.723   1.358   1.285  0.00  0.00    +0.162 A 
ATOM     19  C   LIG A   1      -0.256   1.814   0.388  0.00  0.00    +0.056 A 
BRANCH  18  20
ATOM     20  O   LIG A   1       0.489   0.273   2.090  0.00  0.00    -0.491 OA
ATOM     21  C   LIG A   1      -0.770  -0.397   1.998  0.00  0.00    +0.277 C 
ENDBRANCH  18  20
BRANCH  17  22
ATOM     22  O   LIG A   1       2.998   1.908   2.220  0.00  0.00    -0.484 OA
BRANCH  22  23
ATOM     23  C   LIG A   1       3.072   0.736   3.013  0.00  0.00    +0.264 C 
BRANCH  23  24
ATOM     24  C   LIG A   1       4.035   0.929   4.165  0.00  0.00    -0.010 A 
ATOM     25  C   LIG A   1       3.792   1.886   5.165  0.00  0.00    +0.007 A 
ATOM     26  C   LIG A   1       4.632   1.972   6.279  0.00  0.00    +0.000 A 
ATOM     27  C   LIG A   1       5.719   1.108   6.402  0.00  0.00    +0.000 A 
ATOM     28  C   LIG A   1       5.969   0.159   5.413  0.00  0.00    +0.000 A 
ATOM     29  C   LIG A   1       5.131   0.070   4.303  0.00  0.00    +0.007 A 
ENDBRANCH  23  24
ENDBRANCH  22  23
ENDBRANCH  17  22
ENDBRANCH   7  14
BRANCH  10  30
ATOM     30  O   LIG A   1       1.101   1.086  -4.816  0.00  0.00    -0.506 OA
ATOM     31  H   LIG A   1       1.254   2.060  -4.823  0.00  0.00    +0.292 HD
ENDBRANCH  10  30
BRANCH  13  32
ATOM     32  O   LIG A   1      -1.503  -2.324  -2.620  0.00  0.00    -0.487 OA
BRANCH  32  33
ATOM     33  C   LIG A   1      -2.720  -3.135  -2.650  0.00  0.00    +0.264 C 
BRANCH  33  34
ATOM     34  C   LIG A   1      -3.015  -4.043  -1.410  0.00  0.00    -0.010 A 
ATOM     35  C   LIG A   1      -3.852  -5.178  -1.460  0.00  0.00    +0.007 A 
ATOM     36  C   LIG A   1      -4.240  -5.865  -0.277  0.00  0.00    +0.000 A 
ATOM     37  C   LIG A   1      -3.937  -5.337   0.972  0.00  0.00    +0.000 A 
ATOM     38  C   LIG A   1      -3.095  -4.237   1.035  0.00  0.00    +0.000 A 
ATOM     39  C   LIG A   1      -2.548  -3.721  -0.149  0.00  0.00    +0.007 A 
ENDBRANCH  33  34
ENDBRANCH  32  33
ENDBRANCH  13  32
TORSDOF 9
