@<TRIPOS>MOLECULE
NuBBE_1901
 46 47 0 0 0
SMALL
GASTEIGER

@<TRIPOS>ATOM
      1 C          -4.9366   -3.8743    0.2538 C.3     1  LIG1        0.0369
      2 O          -3.5179   -3.8556    0.2308 O.3     1  LIG1       -0.3784
      3 C          -3.0016   -2.5386   -0.0026 C.3     1  LIG1        0.0730
      4 C          -1.4839   -2.5494   -0.0307 C.ar    1  LIG1       -0.0112
      5 C          -0.7245   -1.3600   -0.1032 C.ar    1  LIG1        0.0262
      6 C           0.6916   -1.3916   -0.0807 C.ar    1  LIG1       -0.0333
      7 C           1.5194   -0.1238   -0.0659 C.3     1  LIG1       -0.0199
      8 C           0.7589    1.1987   -0.2437 C.3     1  LIG1        0.0094
      9 C           1.5831    2.4490    0.2220 C.3     1  LIG1        0.1114
     10 C           1.9516    2.3690    1.7215 C.3     1  LIG1       -0.0248
     11 C           2.9061    2.6188   -0.5470 C.3     1  LIG1       -0.0248
     12 O           0.7891    3.6693    0.1118 O.3     1  LIG1       -0.4585
     13 C           0.2863    4.0619   -1.0931 C.2     1  LIG1        0.3045
     14 C          -0.5172    5.3177   -0.9312 C.3     1  LIG1        0.0333
     15 O           0.4594    3.5016   -2.1598 O.2     1  LIG1       -0.2511
     16 C          -0.6069    1.1179    0.4392 C.3     1  LIG1        0.0172
     17 C          -1.3920   -0.0288   -0.1391 C.2     1  LIG1        0.1642
     18 O          -2.5343    0.1198   -0.5591 O.2     1  LIG1       -0.2920
     19 C           1.3558   -2.6361    0.0099 C.ar    1  LIG1       -0.0466
     20 C           2.8570   -2.7664    0.0051 C.3     1  LIG1       -0.0394
     21 C           0.6004   -3.8108    0.0618 C.ar    1  LIG1       -0.0582
     22 C          -0.7914   -3.7669    0.0497 C.ar    1  LIG1       -0.0555
     23 H          -5.2576   -4.8925    0.4909 H       1  LIG1        0.0524
     24 H          -5.3405   -3.6009   -0.7253 H       1  LIG1        0.0524
     25 H          -5.3192   -3.2006    1.0258 H       1  LIG1        0.0524
     26 H          -3.3420   -1.8953    0.8173 H       1  LIG1        0.0610
     27 H          -3.3852   -2.1785   -0.9634 H       1  LIG1        0.0610
     28 H           2.2785   -0.1895   -0.8556 H       1  LIG1        0.0317
     29 H           2.0359   -0.1235    0.8973 H       1  LIG1        0.0317
     30 H           0.5612    1.2898   -1.3200 H       1  LIG1        0.0346
     31 H           2.6535    1.5579    1.9383 H       1  LIG1        0.0268
     32 H           1.0675    2.2395    2.3527 H       1  LIG1        0.0268
     33 H           2.4240    3.3002    2.0553 H       1  LIG1        0.0268
     34 H           3.5671    1.7562   -0.4141 H       1  LIG1        0.0268
     35 H           3.4435    3.5075   -0.1940 H       1  LIG1        0.0268
     36 H           2.7489    2.7591   -1.6194 H       1  LIG1        0.0268
     37 H          -1.1929    5.2273   -0.0766 H       1  LIG1        0.0342
     38 H          -1.1282    5.4685   -1.8263 H       1  LIG1        0.0342
     39 H           0.1525    6.1708   -0.8045 H       1  LIG1        0.0342
     40 H          -1.1839    2.0350    0.2803 H       1  LIG1        0.0349
     41 H          -0.5299    0.9575    1.5195 H       1  LIG1        0.0349
     42 H           3.3541   -1.8973    0.4443 H       1  LIG1        0.0278
     43 H           3.2141   -2.8966   -1.0211 H       1  LIG1        0.0278
     44 H           3.1707   -3.6299    0.6015 H       1  LIG1        0.0278
     45 H           1.0921   -4.7794    0.1284 H       1  LIG1        0.0620
     46 H          -1.3367   -4.7067    0.1195 H       1  LIG1        0.0621
@<TRIPOS>BOND
     1     1     2    1
     2     2     3    1
     3     3     4    1
     4     4     5   ar
     5     5     6   ar
     6     6     7    1
     7     7     8    1
     8     8     9    1
     9     9    10    1
    10     9    11    1
    11     9    12    1
    12    12    13    1
    13    13    14    1
    14    13    15    2
    15     8    16    1
    16    16    17    1
    17     5    17    1
    18    17    18    2
    19     6    19   ar
    20    19    20    1
    21    19    21   ar
    22    21    22   ar
    23     4    22   ar
    24     1    23    1
    25     1    24    1
    26     1    25    1
    27     3    26    1
    28     3    27    1
    29     7    28    1
    30     7    29    1
    31     8    30    1
    32    10    31    1
    33    10    32    1
    34    10    33    1
    35    11    34    1
    36    11    35    1
    37    11    36    1
    38    14    37    1
    39    14    38    1
    40    14    39    1
    41    16    40    1
    42    16    41    1
    43    20    42    1
    44    20    43    1
    45    20    44    1
    46    21    45    1
    47    22    46    1
