@<TRIPOS>MOLECULE
NuBBE_339
 52 54 0 0 0
SMALL
GASTEIGER

@<TRIPOS>ATOM
      1 H          -1.1650   -1.4695   -1.9062 H       1  LIG1        0.0400
      2 C          -0.3931   -0.9725   -2.5141 C.3     1  LIG1        0.0235
      3 C           0.0389    0.3794   -1.8870 C.3     1  LIG1        0.0666
      4 C           0.6744   -0.0076   -0.5601 C.3     1  LIG1        0.2101
      5 H           0.0711   -0.7869   -0.0762 H       1  LIG1        0.1060
      6 O           1.9674   -0.5843   -0.9249 O.2     1  LIG1       -0.4701
      7 C           1.8760   -1.6187   -1.8342 C.2     1  LIG1        0.0984
      8 C           0.7825   -1.8913   -2.5683 C.2     1  LIG1        0.0781
      9 C           0.6112   -3.2470   -3.1452 C.2     1  LIG1        0.3384
     10 O           1.2219   -4.1395   -2.3175 O.3     1  LIG1       -0.4646
     11 C           0.9328   -5.5245   -2.5122 C.3     1  LIG1        0.0820
     12 O          -0.1057   -3.5045   -4.0867 O.2     1  LIG1       -0.2452
     13 O           0.8477    1.0464    0.3906 O.3     1  LIG1       -0.3095
     14 C           1.4692    0.5128    1.5823 C.3     1  LIG1        0.1918
     15 H           2.3905    0.0034    1.2747 H       1  LIG1        0.0939
     16 O           0.6836   -0.5027    2.2232 O.3     1  LIG1       -0.3404
     17 C          -0.3995   -0.0706    3.0559 C.3     1  LIG1        0.1130
     18 H          -0.6723   -0.9671    3.6289 H       1  LIG1        0.0647
     19 C           0.0329    0.9862    4.0871 C.3     1  LIG1        0.1119
     20 H          -0.8283    1.3697    4.6443 H       1  LIG1        0.0647
     21 C           0.7875    2.1470    3.4276 C.3     1  LIG1        0.1141
     22 H           1.2133    2.7686    4.2260 H       1  LIG1        0.0648
     23 O          -0.1075    2.9690    2.6796 O.3     1  LIG1       -0.3864
     24 O           0.9109    0.3604    5.0476 O.3     1  LIG1       -0.3865
     25 C          -1.6489    0.3176    2.2584 C.3     1  LIG1        0.0730
     26 O          -2.6961    0.7153    3.1407 O.3     1  LIG1       -0.3924
     27 C           1.9359    1.6143    2.5611 C.3     1  LIG1        0.1342
     28 H           2.3826    2.4353    1.9901 H       1  LIG1        0.0671
     29 O           2.9696    1.0942    3.4219 O.3     1  LIG1       -0.3841
     30 H           0.8458    0.8199   -2.5047 H       1  LIG1        0.0402
     31 C          -1.0621   -0.4612   -3.7501 C.2     1  LIG1       -0.0769
     32 C          -1.5650    0.7627   -3.5004 C.2     1  LIG1       -0.0535
     33 C          -1.1856    1.2584   -2.1092 C.3     1  LIG1        0.1164
     34 C          -0.8700    2.7627   -2.0591 C.3     1  LIG1        0.0770
     35 O          -1.9941    3.5482   -2.4777 O.3     1  LIG1       -0.3918
     36 O          -2.2415    0.9491   -1.2061 O.3     1  LIG1       -0.3817
     37 H           2.7775   -2.2196   -1.8042 H       1  LIG1        0.1029
     38 H           1.8824   -6.0618   -2.5740 H       1  LIG1        0.0661
     39 H           0.3431   -5.7280   -3.4082 H       1  LIG1        0.0661
     40 H           0.3896   -5.8854   -1.6326 H       1  LIG1        0.0661
     41 H           0.4189    3.7033    2.3138 H       1  LIG1        0.2100
     42 H           0.3508   -0.2333    5.5837 H       1  LIG1        0.2100
     43 H          -1.4566    1.1136    1.5364 H       1  LIG1        0.0584
     44 H          -2.0053   -0.5482    1.6894 H       1  LIG1        0.0584
     45 H          -3.0520    1.5518    2.7904 H       1  LIG1        0.2095
     46 H           2.5215    0.5156    4.0798 H       1  LIG1        0.2101
     47 H          -1.2231   -1.0329   -4.6549 H       1  LIG1        0.0576
     48 H          -2.1563    1.3383   -4.2018 H       1  LIG1        0.0598
     49 H          -0.6183    3.0709   -1.0393 H       1  LIG1        0.0589
     50 H          -0.0350    3.0207   -2.7179 H       1  LIG1        0.0589
     51 H          -2.7686    3.2413   -1.9778 H       1  LIG1        0.2095
     52 H          -3.0799    1.0808   -1.6827 H       1  LIG1        0.2107
@<TRIPOS>BOND
     1     2     3    1
     2     3     4    1
     3     4     6    1
     4     6     7    1
     5     7     8    2
     6     9    10    1
     7    10    11    1
     8     9    12    2
     9    13    14    1
    10    14    15    1
    11    14    16    1
    12    16    17    1
    13    17    19    1
    14    19    20    1
    15    19    21    1
    16    19    24    1
    17    25    26    1
    18    14    27    1
    19    21    27    1
    20     8     2    1
    21     2    31    1
    22    31    32    2
    23    32    33    1
    24    34    35    1
    25     3    33    1
    26     1     2    1
    27     3    30    1
    28     8     9    1
    29    33    34    1
    30    33    36    1
    31     4    13    1
    32     4     5    1
    33    17    25    1
    34    17    18    1
    35    21    23    1
    36    21    22    1
    37    27    29    1
    38    27    28    1
    39     7    37    1
    40    11    38    1
    41    11    39    1
    42    11    40    1
    43    23    41    1
    44    24    42    1
    45    25    43    1
    46    25    44    1
    47    26    45    1
    48    29    46    1
    49    31    47    1
    50    32    48    1
    51    34    49    1
    52    34    50    1
    53    35    51    1
    54    36    52    1
