REMARK  Name = NuBBE_1050
REMARK  14 active torsions:
REMARK  status: ('A' for Active; 'I' for Inactive)
REMARK    1  A    between atoms: C_1  and  C_2
REMARK    2  A    between atoms: C_6  and  C_27
REMARK    3  A    between atoms: C_7  and  C_8
REMARK    4  A    between atoms: C_9  and  C_11
REMARK    5  A    between atoms: C_11  and  C_13
REMARK    6  A    between atoms: C_11  and  C_14
REMARK    7  A    between atoms: C_14  and  O_16
REMARK    8  A    between atoms: C_14  and  C_17
REMARK    9  A    between atoms: C_17  and  C_18
REMARK   10  A    between atoms: C_19  and  C_20
REMARK   11  A    between atoms: C_19  and  C_21
REMARK   12  A    between atoms: C_32  and  C_33
REMARK   13  A    between atoms: C_32  and  C_39
REMARK   14  A    between atoms: C_34  and  O_38
REMARK                            x       y       z     vdW  Elec       q    Type
REMARK                         _______ _______ _______ _____ _____    ______ ____
ROOT
ATOM      1  C   LIG A   1       3.014   1.596  -3.498  0.00  0.00    +0.012 C 
ATOM      2  C   LIG A   1       2.146   0.319  -3.238  0.00  0.00    -0.022 C 
ATOM      3  C   LIG A   1       1.086   0.740  -2.109  0.00  0.00    +0.021 C 
ATOM      4  C   LIG A   1       1.379   0.269  -0.677  0.00  0.00    -0.063 C 
ATOM      5  C   LIG A   1       0.396   0.745   0.434  0.00  0.00    -0.005 C 
ATOM      6  C   LIG A   1      -1.134   0.760  -0.033  0.00  0.00    -0.020 C 
ATOM      7  C   LIG A   1      -1.667   2.185  -0.249  0.00  0.00    +0.012 C 
ATOM      8  C   LIG A   1      -1.947  -0.101   1.038  0.00  0.00    +0.002 C 
ATOM      9  C   LIG A   1      -0.846  -1.039   1.561  0.00  0.00    +0.005 C 
ATOM     10  C   LIG A   1       0.358  -0.136   1.714  0.00  0.00    +0.012 C 
ATOM     11  C   LIG A   1      -1.272   0.018  -1.391  0.00  0.00    +0.008 C 
ATOM     12  C   LIG A   1      -0.408   0.633  -2.483  0.00  0.00    +0.009 C 
ATOM     13  C   LIG A   1       0.945   2.130   0.862  0.00  0.00    +0.016 C 
ATOM     14  C   LIG A   1       2.543  -0.339  -0.383  0.00  0.00    -0.026 C 
ATOM     15  C   LIG A   1       3.630  -0.603  -1.367  0.00  0.00    +0.031 C 
ATOM     16  C   LIG A   1       3.128  -0.839  -2.796  0.00  0.00    +0.007 C 
ATOM     17  C   LIG A   1       2.627  -2.316  -3.109  0.00  0.00    -0.005 C 
ATOM     18  C   LIG A   1       2.827  -3.320  -1.948  0.00  0.00    +0.014 C 
ATOM     19  C   LIG A   1       1.133  -2.312  -3.501  0.00  0.00    +0.120 C 
ATOM     20  C   LIG A   1       0.846  -1.411  -4.697  0.00  0.00    +0.032 C 
ATOM     21  C   LIG A   1       1.538  -0.049  -4.619  0.00  0.00    +0.010 C 
ATOM     22  C   LIG A   1       3.476  -2.874  -4.286  0.00  0.00    +0.014 C 
ENDROOT
BRANCH   8  23
ATOM     23  C   LIG A   1      -2.753   0.652   2.177  0.00  0.00    +0.026 C 
ATOM     24  C   LIG A   1      -3.970   1.401   1.574  0.00  0.00    +0.011 C 
BRANCH  23  25
ATOM     25  C   LIG A   1      -3.278  -0.315   3.284  0.00  0.00    +0.188 C 
BRANCH  25  26
ATOM     26  O   LIG A   1      -4.190  -1.243   2.667  0.00  0.00    -0.384 OA
ATOM     27  H   LIG A   1      -5.062  -0.796   2.652  0.00  0.00    +0.210 HD
ENDBRANCH  25  26
BRANCH  25  28
ATOM     28  C   LIG A   1      -4.016   0.382   4.436  0.00  0.00    +0.184 C 
ATOM     29  O   LIG A   1      -5.264   0.452   4.410  0.00  0.00    -0.290 OA
BRANCH  28  30
ATOM     30  C   LIG A   1      -3.349   0.968   5.640  0.00  0.00    +0.047 C 
ATOM     31  C   LIG A   1      -2.086   1.210   6.051  0.00  0.00    -0.072 C 
ATOM     32  C   LIG A   1      -0.809   0.919   5.328  0.00  0.00    +0.038 C 
ATOM     33  C   LIG A   1      -1.888   1.889   7.391  0.00  0.00    +0.038 C 
ENDBRANCH  28  30
ENDBRANCH  25  28
ENDBRANCH  23  25
ENDBRANCH   8  23
BRANCH  19  34
ATOM     34  O   LIG A   1       0.674  -3.626  -3.816  0.00  0.00    -0.391 OA
ATOM     35  H   LIG A   1      -0.293  -3.577  -3.917  0.00  0.00    +0.210 HD
ENDBRANCH  19  34
TORSDOF 6
