@<TRIPOS>MOLECULE
NuBBE_2037
 50 51 0 0 0
SMALL
GASTEIGER

@<TRIPOS>ATOM
      1 C          -0.9850    1.3693   -1.4193 C.2     1  LIG1        0.1705
      2 O          -1.4935    2.4262   -1.7986 O.2     1  LIG1       -0.2918
      3 C          -1.8711    0.2708   -0.8487 C.3     1  LIG1        0.0147
      4 C          -1.9852    0.4203    0.6618 C.3     1  LIG1       -0.0207
      5 C          -2.8033   -0.6764    1.2977 C.ar    1  LIG1       -0.0467
      6 C          -2.2006   -1.5118    2.2423 C.ar    1  LIG1       -0.0551
      7 C          -2.9217   -2.5368    2.8504 C.ar    1  LIG1       -0.0197
      8 C          -4.2557   -2.7587    2.5145 C.ar    1  LIG1        0.1201
      9 C          -4.8787   -1.9069    1.6003 C.ar    1  LIG1       -0.0197
     10 C          -4.1577   -0.8707    0.9930 C.ar    1  LIG1       -0.0551
     11 O          -5.0341   -3.7470    3.0550 O.3     1  LIG1       -0.4951
     12 C          -4.3211   -4.8984    3.5025 C.3     1  LIG1        0.0788
     13 C           0.5079    1.2230   -1.3858 C.ar    1  LIG1        0.1014
     14 C           1.3190    2.3568   -1.1594 C.ar    1  LIG1        0.1491
     15 O           0.7262    3.6274   -0.9972 O.3     1  LIG1       -0.4251
     16 C           1.3337    4.7509   -1.5945 C.2     1  LIG1        0.3092
     17 O           2.3228    4.7647   -2.3170 O.2     1  LIG1       -0.2507
     18 C           0.6028    5.9695   -1.0887 C.3     1  LIG1        0.0336
     19 C           2.6925    2.2286   -0.9433 C.ar    1  LIG1        0.0241
     20 C           3.2727    0.9687   -0.9972 C.ar    1  LIG1        0.1386
     21 C           2.5014   -0.1585   -1.2554 C.ar    1  LIG1        0.0234
     22 C           1.1300   -0.0362   -1.4899 C.ar    1  LIG1        0.1376
     23 O           0.3987   -1.1031   -1.9388 O.3     1  LIG1       -0.4942
     24 C           0.7513   -2.3875   -1.4282 C.3     1  LIG1        0.0788
     25 O           4.6521    0.9237   -0.7369 O.3     1  LIG1       -0.4258
     26 C           5.4566   -0.0491   -1.3417 C.2     1  LIG1        0.3092
     27 O           5.0966   -0.9471   -2.0767 O.2     1  LIG1       -0.2507
     28 C           6.8682    0.1462   -0.8926 C.3     1  LIG1        0.0336
     29 H          -1.5260   -0.7298   -1.0944 H       1  LIG1        0.0348
     30 H          -2.8490    0.3407   -1.3381 H       1  LIG1        0.0348
     31 H          -2.4145    1.3921    0.9284 H       1  LIG1        0.0317
     32 H          -0.9756    0.4093    1.0954 H       1  LIG1        0.0317
     33 H          -1.1609   -1.3687    2.5251 H       1  LIG1        0.0621
     34 H          -2.4103   -3.1288    3.5991 H       1  LIG1        0.0654
     35 H          -5.9279   -2.0519    1.3519 H       1  LIG1        0.0654
     36 H          -4.6658   -0.2193    0.2844 H       1  LIG1        0.0621
     37 H          -5.0377   -5.5919    3.9506 H       1  LIG1        0.0660
     38 H          -3.5911   -4.6601    4.2819 H       1  LIG1        0.0660
     39 H          -3.8378   -5.4004    2.6570 H       1  LIG1        0.0660
     40 H           0.8342    6.8236   -1.7366 H       1  LIG1        0.0342
     41 H           0.9485    6.1873   -0.0718 H       1  LIG1        0.0342
     42 H          -0.4708    5.8077   -1.1017 H       1  LIG1        0.0342
     43 H           3.3109    3.0960   -0.7291 H       1  LIG1        0.0691
     44 H           2.9705   -1.1333   -1.3056 H       1  LIG1        0.0691
     45 H           1.6031   -2.8042   -1.9739 H       1  LIG1        0.0660
     46 H          -0.1057   -3.0486   -1.5900 H       1  LIG1        0.0660
     47 H           0.9470   -2.3558   -0.3507 H       1  LIG1        0.0660
     48 H           7.0691    1.2056   -0.7196 H       1  LIG1        0.0342
     49 H           7.5288   -0.1994   -1.6897 H       1  LIG1        0.0342
     50 H           7.0360   -0.4281    0.0197 H       1  LIG1        0.0342
@<TRIPOS>BOND
     1     1     2    2
     2     1     3    1
     3     3     4    1
     4     4     5    1
     5     5     6   ar
     6     6     7   ar
     7     7     8   ar
     8     8     9   ar
     9     9    10   ar
    10     5    10   ar
    11     8    11    1
    12    11    12    1
    13     1    13    1
    14    13    14   ar
    15    14    15    1
    16    15    16    1
    17    16    17    2
    18    16    18    1
    19    14    19   ar
    20    19    20   ar
    21    20    21   ar
    22    21    22   ar
    23    13    22   ar
    24    22    23    1
    25    23    24    1
    26    20    25    1
    27    25    26    1
    28    26    27    2
    29    26    28    1
    30     3    29    1
    31     3    30    1
    32     4    31    1
    33     4    32    1
    34     6    33    1
    35     7    34    1
    36     9    35    1
    37    10    36    1
    38    12    37    1
    39    12    38    1
    40    12    39    1
    41    18    40    1
    42    18    41    1
    43    18    42    1
    44    19    43    1
    45    21    44    1
    46    24    45    1
    47    24    46    1
    48    24    47    1
    49    28    48    1
    50    28    49    1
    51    28    50    1
