REMARK  Name = NuBBE_2051
REMARK  4 active torsions:
REMARK  status: ('A' for Active; 'I' for Inactive)
REMARK    1  A    between atoms: O_1  and  C_2
REMARK    2  A    between atoms: C_6  and  O_8
REMARK    3  A    between atoms: O_8  and  C_9
REMARK    4  A    between atoms: C_12  and  C_16
REMARK                            x       y       z     vdW  Elec       q    Type
REMARK                         _______ _______ _______ _____ _____    ______ ____
ROOT
ATOM      1  C   LIG A   1      -1.607   0.744   0.005  0.00  0.00    +0.135 A 
ATOM      2  C   LIG A   1      -0.894  -0.463  -0.049  0.00  0.00    +0.110 A 
ATOM      3  C   LIG A   1       0.507  -0.453  -0.025  0.00  0.00    +0.018 A 
ATOM      4  C   LIG A   1       1.175   0.789   0.054  0.00  0.00    +0.091 A 
ATOM      5  C   LIG A   1       0.454   2.002   0.110  0.00  0.00    +0.142 A 
ATOM      6  C   LIG A   1      -0.941   1.966   0.083  0.00  0.00    +0.093 A 
ATOM      7 CL   LIG A   1       2.917   0.855   0.086  0.00  0.00    -0.079 Cl
ATOM      8  C   LIG A   1       1.205  -1.739  -0.083  0.00  0.00    +0.051 A 
ATOM      9  C   LIG A   1       0.506  -2.877  -0.155  0.00  0.00    +0.107 A 
ATOM     10  O   LIG A   1      -0.902  -2.895  -0.179  0.00  0.00    -0.427 OA
ATOM     11  C   LIG A   1      -1.631  -1.746  -0.131  0.00  0.00    +0.348 A 
ATOM     12  O   LIG A   1      -2.860  -1.749  -0.152  0.00  0.00    -0.244 OA
ATOM     13  C   LIG A   1       1.130  -4.234  -0.216  0.00  0.00    +0.086 C 
ENDROOT
BRANCH   1  14
ATOM     14  O   LIG A   1      -2.975   0.819  -0.015  0.00  0.00    -0.506 OA
ATOM     15  H   LIG A   1      -3.346  -0.091  -0.071  0.00  0.00    +0.292 HD
ENDBRANCH   1  14
BRANCH   5  16
ATOM     16  O   LIG A   1       1.189   3.158   0.186  0.00  0.00    -0.493 OA
ATOM     17  C   LIG A   1       0.485   4.390   0.279  0.00  0.00    +0.277 C 
ENDBRANCH   5  16
TORSDOF 2
