@<TRIPOS>MOLECULE
NuBBE_597
 30 31 0 0 0
SMALL
GASTEIGER

@<TRIPOS>ATOM
      1 O          -3.5800   -0.1049    0.4532 O.2     1  LIG1       -0.2872
      2 C          -2.3670    0.0811    0.4165 C.ar    1  LIG1        0.1897
      3 C          -1.4435   -1.0618    0.4248 C.ar    1  LIG1        0.0051
      4 C          -0.1159   -0.8638    0.3462 C.ar    1  LIG1        0.0225
      5 C           0.7522   -2.1132    0.3403 C.3     1  LIG1       -0.0124
      6 C           0.9944   -2.6207   -1.0849 C.3     1  LIG1       -0.0506
      7 C           1.8565   -3.8731   -1.0960 C.3     1  LIG1       -0.0649
      8 N           0.4603    0.4163    0.2749 N.ar    1  LIG1       -0.3466
      9 C           1.9039    0.6660    0.2031 C.3     1  LIG1        0.0121
     10 C          -0.3747    1.5726    0.3202 C.ar    1  LIG1        0.0527
     11 C           0.1193    2.8913    0.3139 C.ar    1  LIG1       -0.0375
     12 C          -0.7379    4.0013    0.3329 C.ar    1  LIG1       -0.0598
     13 C          -2.1163    3.8260    0.3630 C.ar    1  LIG1       -0.0610
     14 C          -2.6391    2.5388    0.3857 C.ar    1  LIG1       -0.0490
     15 C          -1.7764    1.4312    0.3701 C.ar    1  LIG1        0.0452
     16 H          -1.8996   -2.0422    0.4749 H       1  LIG1        0.0673
     17 H           0.2580   -2.9074    0.9175 H       1  LIG1        0.0327
     18 H           1.6968   -1.9458    0.8685 H       1  LIG1        0.0327
     19 H           1.4757   -1.8458   -1.6926 H       1  LIG1        0.0266
     20 H           0.0347   -2.8522   -1.5640 H       1  LIG1        0.0266
     21 H           2.8500   -3.6682   -0.6856 H       1  LIG1        0.0230
     22 H           1.9799   -4.2377   -2.1208 H       1  LIG1        0.0230
     23 H           1.3970   -4.6726   -0.5060 H       1  LIG1        0.0230
     24 H           2.4920   -0.2368    0.0225 H       1  LIG1        0.0456
     25 H           2.2642    1.1023    1.1421 H       1  LIG1        0.0456
     26 H           2.1505    1.3349   -0.6296 H       1  LIG1        0.0456
     27 H           1.1844    3.1004    0.2961 H       1  LIG1        0.0638
     28 H          -0.3211    5.0060    0.3230 H       1  LIG1        0.0618
     29 H          -2.7811    4.6856    0.3737 H       1  LIG1        0.0618
     30 H          -3.7168    2.3923    0.4166 H       1  LIG1        0.0625
@<TRIPOS>BOND
     1     1     2    2
     2     2     3   ar
     3     3     4   ar
     4     4     5    1
     5     5     6    1
     6     6     7    1
     7     4     8   ar
     8     8     9    1
     9     8    10   ar
    10    10    11   ar
    11    11    12   ar
    12    12    13   ar
    13    13    14   ar
    14    14    15   ar
    15    10    15   ar
    16     2    15   ar
    17     3    16    1
    18     5    17    1
    19     5    18    1
    20     6    19    1
    21     6    20    1
    22     7    21    1
    23     7    22    1
    24     7    23    1
    25     9    24    1
    26     9    25    1
    27     9    26    1
    28    11    27    1
    29    12    28    1
    30    13    29    1
    31    14    30    1
