REMARK  Name = NuBBE_1876
REMARK  19 active torsions:
REMARK  status: ('A' for Active; 'I' for Inactive)
REMARK    1  A    between atoms: C_4  and  O_36
REMARK    2  A    between atoms: C_5  and  O_6
REMARK    3  A    between atoms: O_6  and  C_7
REMARK    4  A    between atoms: C_7  and  C_8
REMARK    5  A    between atoms: C_10  and  O_34
REMARK    6  A    between atoms: C_14  and  C_15
REMARK    7  A    between atoms: C_18  and  O_29
REMARK    8  A    between atoms: C_19  and  O_20
REMARK    9  A    between atoms: O_20  and  C_21
REMARK   10  A    between atoms: C_21  and  C_22
REMARK   11  A    between atoms: C_24  and  O_25
REMARK   12  A    between atoms: O_25  and  C_26
REMARK   13  A    between atoms: C_26  and  C_27
REMARK   14  A    between atoms: O_29  and  C_30
REMARK   15  A    between atoms: C_31  and  O_32
REMARK   16  A    between atoms: O_32  and  C_33
REMARK   17  A    between atoms: O_34  and  C_35
REMARK   18  A    between atoms: O_36  and  C_37
REMARK   19  A    between atoms: C_37  and  C_38
REMARK                            x       y       z     vdW  Elec       q    Type
REMARK                         _______ _______ _______ _____ _____    ______ ____
ROOT
ATOM      1  O   LIG A   1      -3.003  -0.844   0.023  0.00  0.00    -0.283 OA
ATOM      2  C   LIG A   1      -1.812  -0.633   0.205  0.00  0.00    +0.238 A 
ATOM      3  C   LIG A   1      -0.845  -1.746   0.222  0.00  0.00    +0.114 A 
ATOM      4  C   LIG A   1      -1.231  -3.059   0.489  0.00  0.00    +0.192 A 
ATOM      5  C   LIG A   1      -0.306  -4.104   0.392  0.00  0.00    +0.216 A 
ATOM      6  C   LIG A   1       1.025  -3.830   0.032  0.00  0.00    +0.169 A 
ATOM      7  C   LIG A   1       1.422  -2.498  -0.147  0.00  0.00    +0.096 A 
ATOM      8  C   LIG A   1       0.491  -1.466  -0.013  0.00  0.00    +0.147 A 
ATOM      9  O   LIG A   1       0.972  -0.185  -0.050  0.00  0.00    -0.451 OA
ATOM     10  C   LIG A   1       0.094   0.844   0.265  0.00  0.00    +0.184 A 
ATOM     11  C   LIG A   1      -1.241   0.728   0.406  0.00  0.00    +0.211 A 
ENDROOT
BRANCH  10  12
ATOM     12  C   LIG A   1       0.766   2.126   0.379  0.00  0.00    +0.067 A 
ATOM     13  C   LIG A   1       1.280   2.415   1.653  0.00  0.00    +0.019 A 
ATOM     14  C   LIG A   1       1.938   3.612   1.919  0.00  0.00    +0.050 A 
ATOM     15  C   LIG A   1       2.092   4.567   0.911  0.00  0.00    +0.166 A 
ATOM     16  C   LIG A   1       1.532   4.311  -0.362  0.00  0.00    +0.216 A 
ATOM     17  C   LIG A   1       0.921   3.065  -0.649  0.00  0.00    +0.188 A 
BRANCH  15  18
ATOM     18  O   LIG A   1       2.756   5.751   1.126  0.00  0.00    -0.491 OA
ATOM     19  C   LIG A   1       3.809   5.684   2.095  0.00  0.00    +0.277 C 
ENDBRANCH  15  18
BRANCH  16  20
ATOM     20  O   LIG A   1       1.736   5.280  -1.375  0.00  0.00    -0.418 OA
BRANCH  20  21
ATOM     21  C   LIG A   1       0.682   5.619  -2.221  0.00  0.00    +0.309 C 
ATOM     22  C   LIG A   1       1.242   6.240  -3.471  0.00  0.00    +0.136 C 
ATOM     23  O   LIG A   1      -0.508   5.377  -2.061  0.00  0.00    -0.251 OA
ENDBRANCH  20  21
ENDBRANCH  16  20
BRANCH  17  24
ATOM     24  O   LIG A   1       0.474   2.846  -1.994  0.00  0.00    -0.421 OA
BRANCH  24  25
ATOM     25  C   LIG A   1      -0.216   1.806  -2.635  0.00  0.00    +0.309 C 
ATOM     26  C   LIG A   1      -0.701   2.259  -3.966  0.00  0.00    +0.136 C 
ATOM     27  O   LIG A   1      -0.389   0.653  -2.267  0.00  0.00    -0.251 OA
ENDBRANCH  24  25
ENDBRANCH  17  24
ENDBRANCH  10  12
BRANCH  11  28
ATOM     28  O   LIG A   1      -2.037   1.858   0.573  0.00  0.00    -0.488 OA
ATOM     29  C   LIG A   1      -3.224   1.665   1.329  0.00  0.00    +0.277 C 
ENDBRANCH  11  28
BRANCH   6  30
ATOM     30  O   LIG A   1       1.869  -4.883  -0.198  0.00  0.00    -0.491 OA
ATOM     31  C   LIG A   1       3.217  -4.687   0.228  0.00  0.00    +0.277 C 
ENDBRANCH   6  30
BRANCH   5  32
ATOM     32  O   LIG A   1      -0.802  -5.419   0.520  0.00  0.00    -0.418 OA
BRANCH  32  33
ATOM     33  C   LIG A   1      -0.125  -6.460   1.161  0.00  0.00    +0.309 C 
ATOM     34  C   LIG A   1      -0.768  -7.749   0.724  0.00  0.00    +0.136 C 
ATOM     35  O   LIG A   1       0.779  -6.360   1.973  0.00  0.00    -0.251 OA
ENDBRANCH  32  33
ENDBRANCH   5  32
BRANCH   4  36
ATOM     36  O   LIG A   1      -2.451  -3.206   1.196  0.00  0.00    -0.421 OA
BRANCH  36  37
ATOM     37  C   LIG A   1      -3.559  -3.945   0.797  0.00  0.00    +0.309 C 
ATOM     38  C   LIG A   1      -4.664  -3.603   1.753  0.00  0.00    +0.136 C 
ATOM     39  O   LIG A   1      -3.616  -4.737  -0.141  0.00  0.00    -0.251 OA
ENDBRANCH  36  37
ENDBRANCH   4  36
TORSDOF 12
