REMARK  Name = NuBBE_1746
REMARK  2 active torsions:
REMARK  status: ('A' for Active; 'I' for Inactive)
REMARK    1  A    between atoms: C_1  and  C_2
REMARK    2  A    between atoms: C_2  and  C_3
REMARK                            x       y       z     vdW  Elec       q    Type
REMARK                         _______ _______ _______ _____ _____    ______ ____
ROOT
ATOM      1  C   LIG A   1      -2.554  -0.146  -0.163  0.00  0.00    +0.012 C 
ATOM      2  C   LIG A   1      -1.022  -0.145  -0.384  0.00  0.00    -0.025 C 
ATOM      3  C   LIG A   1      -0.803  -0.169  -1.899  0.00  0.00    +0.012 C 
ATOM      4  C   LIG A   1      -0.218   0.908   0.506  0.00  0.00    +0.021 C 
ATOM      5  C   LIG A   1      -0.345  -0.147   1.660  0.00  0.00    +0.012 C 
ATOM      6  C   LIG A   1      -0.252  -1.206   0.513  0.00  0.00    -0.004 C 
ATOM      7  C   LIG A   1       1.228  -1.476   0.184  0.00  0.00    +0.008 C 
ATOM      8  C   LIG A   1       1.968  -0.196  -0.252  0.00  0.00    +0.031 C 
ATOM      9  C   LIG A   1       1.246   1.057   0.181  0.00  0.00    -0.073 C 
ATOM     10  C   LIG A   1       1.874   2.211   0.461  0.00  0.00    +0.008 C 
ENDROOT
TORSDOF 0
