REMARK  Name = NuBBE_930
REMARK  8 active torsions:
REMARK  status: ('A' for Active; 'I' for Inactive)
REMARK    1  A    between atoms: C_1  and  C_3
REMARK    2  A    between atoms: C_1  and  O_9
REMARK    3  A    between atoms: C_1  and  C_10
REMARK    4  A    between atoms: C_3  and  C_5
REMARK    5  A    between atoms: C_3  and  O_8
REMARK    6  A    between atoms: C_5  and  C_7
REMARK    7  A    between atoms: C_15  and  O_16
REMARK    8  A    between atoms: O_16  and  C_17
REMARK                            x       y       z     vdW  Elec       q    Type
REMARK                         _______ _______ _______ _____ _____    ______ ____
ROOT
ATOM      1  C   LIG A   1       0.051  -0.466   0.585  0.00  0.00    +0.068 A 
ATOM      2  C   LIG A   1       0.849   0.698   0.660  0.00  0.00    +0.148 A 
ATOM      3  C   LIG A   1       2.247   0.659   0.648  0.00  0.00    +0.018 A 
ATOM      4  C   LIG A   1       2.887  -0.571   0.552  0.00  0.00    +0.015 A 
ATOM      5  C   LIG A   1       2.131  -1.740   0.459  0.00  0.00    +0.047 A 
ATOM      6  C   LIG A   1       0.726  -1.699   0.476  0.00  0.00    +0.129 A 
ATOM      7  C   LIG A   1       3.010   1.893   0.750  0.00  0.00    +0.018 A 
ATOM      8  C   LIG A   1       2.372   3.059   0.866  0.00  0.00    +0.092 A 
ATOM      9  C   LIG A   1       0.901   3.151   0.889  0.00  0.00    +0.337 A 
ATOM     10  O   LIG A   1       0.343   4.227   1.019  0.00  0.00    -0.245 OA
ATOM     11  O   LIG A   1       0.201   1.955   0.764  0.00  0.00    -0.422 OA
ENDROOT
BRANCH   6  12
ATOM     12  O   LIG A   1      -0.031  -2.836   0.330  0.00  0.00    -0.495 OA
ATOM     13  C   LIG A   1       0.520  -4.019   0.907  0.00  0.00    +0.277 C 
ENDBRANCH   6  12
BRANCH   1  14
ATOM     14  C   LIG A   1      -1.469  -0.349   0.648  0.00  0.00    +0.184 C 
BRANCH  14  15
ATOM     15  O   LIG A   1      -2.008  -1.449   1.411  0.00  0.00    -0.384 OA
ATOM     16  H   LIG A   1      -2.976  -1.410   1.350  0.00  0.00    +0.210 HD
ENDBRANCH  14  15
BRANCH  14  17
ATOM     17  C   LIG A   1      -2.209  -0.255  -0.727  0.00  0.00    +0.173 C 
BRANCH  17  18
ATOM     18  C   LIG A   1      -1.785   0.892  -1.624  0.00  0.00    -0.049 C 
ATOM     19  C   LIG A   1      -0.808   0.782  -2.542  0.00  0.00    +0.010 C 
ATOM     20  C   LIG A   1      -2.523   2.195  -1.476  0.00  0.00    +0.041 C 
ENDBRANCH  17  18
BRANCH  17  21
ATOM     21  O   LIG A   1      -2.140  -1.490  -1.454  0.00  0.00    -0.385 OA
ATOM     22  H   LIG A   1      -1.905  -2.180  -0.803  0.00  0.00    +0.210 HD
ENDBRANCH  17  21
ENDBRANCH  14  17
ENDBRANCH   1  14
TORSDOF 6
