REMARK  Name = NuBBE_2238
REMARK  6 active torsions:
REMARK  status: ('A' for Active; 'I' for Inactive)
REMARK    1  A    between atoms: C_11  and  C_12
REMARK    2  A    between atoms: C_13  and  O_15
REMARK    3  A    between atoms: C_17  and  C_18
REMARK    4  A    between atoms: C_17  and  C_19
REMARK    5  A    between atoms: C_22  and  C_23
REMARK    6  A    between atoms: C_22  and  C_24
REMARK                            x       y       z     vdW  Elec       q    Type
REMARK                         _______ _______ _______ _____ _____    ______ ____
ROOT
ATOM      1  O   LIG A   1       4.208   2.937  -1.662  0.00  0.00    -0.292 OA
ATOM      2  C   LIG A   1       3.300   2.175  -1.320  0.00  0.00    +0.164 C 
ATOM      3  C   LIG A   1       2.384   1.702  -2.376  0.00  0.00    +0.045 C 
ATOM      4  C   LIG A   1       1.486   0.742  -2.135  0.00  0.00    +0.014 C 
ATOM      5  C   LIG A   1       1.310   0.027  -0.855  0.00  0.00    +0.127 C 
ATOM      6  O   LIG A   1       2.498  -0.574  -0.279  0.00  0.00    -0.355 OA
ATOM      7  C   LIG A   1       2.075   0.628   0.361  0.00  0.00    +0.116 C 
ATOM      8  C   LIG A   1       1.609   0.367   1.778  0.00  0.00    +0.039 C 
ATOM      9  C   LIG A   1       0.582  -0.753   1.898  0.00  0.00    +0.007 C 
ATOM     10  C   LIG A   1      -0.501  -0.574   0.831  0.00  0.00    +0.001 C 
ATOM     11  C   LIG A   1       0.029  -0.869  -0.615  0.00  0.00    +0.032 C 
ATOM     12  C   LIG A   1       0.439  -2.356  -0.818  0.00  0.00    +0.017 C 
ATOM     13  C   LIG A   1      -1.167  -0.545  -1.587  0.00  0.00    +0.125 C 
ATOM     14  C   LIG A   1      -2.480  -1.268  -1.224  0.00  0.00    +0.042 C 
ATOM     15  C   LIG A   1      -2.946  -1.115   0.237  0.00  0.00    -0.012 C 
ATOM     16  C   LIG A   1      -4.022  -2.191   0.511  0.00  0.00    +0.015 C 
ATOM     17  C   LIG A   1      -1.760  -1.377   1.194  0.00  0.00    +0.015 C 
ATOM     18  C   LIG A   1       3.044   1.809   0.151  0.00  0.00    +0.059 C 
ATOM     19  C   LIG A   1       4.411   1.494   0.792  0.00  0.00    +0.022 C 
ATOM     20  C   LIG A   1       2.473   3.095   0.786  0.00  0.00    +0.022 C 
ENDROOT
BRANCH  13  21
ATOM     21  O   LIG A   1      -0.868  -0.944  -2.932  0.00  0.00    -0.391 OA
ATOM     22  H   LIG A   1      -1.643  -0.739  -3.484  0.00  0.00    +0.210 HD
ENDBRANCH  13  21
BRANCH  15  23
ATOM     23  C   LIG A   1      -3.486   0.303   0.443  0.00  0.00    -0.028 C 
ATOM     24  C   LIG A   1      -4.703   0.664   0.873  0.00  0.00    +0.004 C 
ENDBRANCH  15  23
TORSDOF 2
