REMARK  Name = NuBBE_1549
REMARK  14 active torsions:
REMARK  status: ('A' for Active; 'I' for Inactive)
REMARK    1  A    between atoms: C_5  and  C_6
REMARK    2  A    between atoms: C_9  and  O_11
REMARK    3  A    between atoms: O_11  and  C_12
REMARK    4  A    between atoms: C_12  and  C_13
REMARK    5  A    between atoms: C_15  and  C_16
REMARK    6  A    between atoms: C_20  and  C_21
REMARK    7  A    between atoms: C_25  and  C_27
REMARK    8  A    between atoms: C_27  and  C_28
REMARK    9  A    between atoms: C_28  and  C_29
REMARK   10  A    between atoms: C_29  and  O_30
REMARK   11  A    between atoms: O_30  and  C_31
REMARK   12  A    between atoms: C_31  and  C_32
REMARK   13  A    between atoms: C_36  and  C_37
REMARK   14  A    between atoms: C_36  and  C_38
REMARK                            x       y       z     vdW  Elec       q    Type
REMARK                         _______ _______ _______ _____ _____    ______ ____
ROOT
ATOM      1  O   LIG A   1       1.223  -6.275   2.186  0.00  0.00    -0.292 OA
ATOM      2  C   LIG A   1       1.100  -5.156   1.688  0.00  0.00    +0.162 C 
ATOM      3  C   LIG A   1       0.957  -3.999   2.610  0.00  0.00    +0.043 C 
ATOM      4  C   LIG A   1       0.990  -2.728   2.183  0.00  0.00    -0.016 C 
ATOM      5  C   LIG A   1       1.146  -2.313   0.719  0.00  0.00    -0.006 C 
ATOM      6  C   LIG A   1       2.661  -2.114   0.504  0.00  0.00    +0.016 C 
ATOM      7  C   LIG A   1       0.512  -3.493  -0.111  0.00  0.00    +0.016 C 
ATOM      8  C   LIG A   1       0.314  -3.128  -1.597  0.00  0.00    +0.050 C 
ATOM      9  C   LIG A   1      -0.599  -1.892  -1.738  0.00  0.00    +0.184 C 
ATOM     10  C   LIG A   1       0.042  -0.627  -1.068  0.00  0.00    +0.019 C 
ATOM     11  C   LIG A   1       1.333  -0.251  -1.841  0.00  0.00    +0.016 C 
ATOM     12  C   LIG A   1       0.315  -0.985   0.442  0.00  0.00    +0.009 C 
ATOM     13  C   LIG A   1       0.802   0.277   1.179  0.00  0.00    +0.005 C 
ATOM     14  C   LIG A   1      -0.364   1.252   1.302  0.00  0.00    +0.008 C 
ATOM     15  C   LIG A   1      -0.995   1.674  -0.041  0.00  0.00    -0.018 C 
ATOM     16  C   LIG A   1      -2.478   2.036   0.247  0.00  0.00    +0.012 C 
ATOM     17  C   LIG A   1      -0.998   0.561  -1.143  0.00  0.00    +0.071 C 
ATOM     18  C   LIG A   1      -0.894   1.388  -2.418  0.00  0.00    +0.138 C 
ATOM     19  C   LIG A   1      -0.594   2.841  -2.165  0.00  0.00    +0.079 C 
ATOM     20  C   LIG A   1      -0.223   2.880  -0.678  0.00  0.00    +0.010 C 
ATOM     21  O   LIG A   1      -1.066   0.927  -3.541  0.00  0.00    -0.297 OA
ATOM     22  C   LIG A   1       1.109  -4.915   0.168  0.00  0.00    +0.031 C 
ATOM     23  C   LIG A   1       0.202  -6.005  -0.456  0.00  0.00    +0.019 C 
ATOM     24  C   LIG A   1       2.530  -5.150  -0.361  0.00  0.00    +0.019 C 
ENDROOT
BRANCH   9  25
ATOM     25  O   LIG A   1      -1.846  -2.167  -1.035  0.00  0.00    -0.461 OA
BRANCH  25  26
ATOM     26  C   LIG A   1      -2.772  -2.958  -1.622  0.00  0.00    +0.304 C 
ATOM     27  C   LIG A   1      -3.868  -3.276  -0.659  0.00  0.00    +0.136 C 
ATOM     28  O   LIG A   1      -2.692  -3.423  -2.750  0.00  0.00    -0.251 OA
ENDBRANCH  25  26
ENDBRANCH   9  25
BRANCH  20  29
ATOM     29  C   LIG A   1      -0.505   4.263  -0.036  0.00  0.00    +0.082 C 
BRANCH  29  30
ATOM     30  C   LIG A   1       0.344   5.398  -0.599  0.00  0.00    +0.171 C 
ATOM     31  O   LIG A   1       1.133   5.212  -1.528  0.00  0.00    -0.294 OA
BRANCH  30  32
ATOM     32  C   LIG A   1       0.103   6.808  -0.059  0.00  0.00    +0.306 C 
BRANCH  32  33
ATOM     33  O   LIG A   1      -0.183   6.866   1.340  0.00  0.00    -0.457 OA
BRANCH  33  34
ATOM     34  C   LIG A   1       0.697   7.577   2.098  0.00  0.00    +0.304 C 
ATOM     35  C   LIG A   1       0.215   7.691   3.511  0.00  0.00    +0.136 C 
ATOM     36  O   LIG A   1       1.753   8.053   1.704  0.00  0.00    -0.251 OA
ENDBRANCH  33  34
ENDBRANCH  32  33
ENDBRANCH  30  32
ENDBRANCH  29  30
ENDBRANCH  20  29
TORSDOF 7
