REMARK  Name = NuBBE_1738
REMARK  4 active torsions:
REMARK  status: ('A' for Active; 'I' for Inactive)
REMARK    1  A    between atoms: C_1  and  C_2
REMARK    2  A    between atoms: C_1  and  C_3
REMARK    3  A    between atoms: C_1  and  C_4
REMARK    4  A    between atoms: C_7  and  C_10
REMARK                            x       y       z     vdW  Elec       q    Type
REMARK                         _______ _______ _______ _____ _____    ______ ____
ROOT
ATOM      1  C   LIG A   1      -0.308  -0.149   0.237  0.00  0.00    -0.016 C 
ATOM      2  C   LIG A   1       1.033   0.519  -0.052  0.00  0.00    +0.022 C 
ATOM      3  C   LIG A   1       0.360   0.736   1.276  0.00  0.00    +0.016 C 
ATOM      4  C   LIG A   1       1.992  -0.593  -0.205  0.00  0.00    -0.073 C 
ATOM      5  C   LIG A   1       1.435  -1.805  -0.035  0.00  0.00    -0.027 C 
ATOM      6  C   LIG A   1      -0.035  -1.660   0.271  0.00  0.00    +0.035 C 
ATOM      7  C   LIG A   1       3.424  -0.321  -0.508  0.00  0.00    +0.039 C 
ENDROOT
BRANCH   1   8
ATOM      8  C   LIG A   1      -1.616   0.276  -0.417  0.00  0.00    -0.010 C 
ATOM      9  C   LIG A   1      -2.788  -0.017   0.526  0.00  0.00    +0.008 C 
ATOM     10  C   LIG A   1      -1.675   1.734  -0.873  0.00  0.00    +0.008 C 
ENDBRANCH   1   8
TORSDOF 1
