@<TRIPOS>MOLECULE
NuBBE_484
 102 106 0 0 0
SMALL
GASTEIGER

@<TRIPOS>ATOM
      1 C          -2.2567    1.6662   -2.3871 C.3     1  LIG1       -0.0585
      2 C          -0.9853    1.2500   -1.5697 C.3     1  LIG1       -0.0194
      3 C          -0.3983    0.0658   -2.3462 C.3     1  LIG1       -0.0463
      4 C          -1.2256   -1.1980   -2.1782 C.3     1  LIG1       -0.0483
      5 C          -1.1320   -1.6165   -0.7039 C.3     1  LIG1       -0.0200
      6 H          -0.0916   -1.3837   -0.4190 H       1  LIG1        0.0315
      7 C          -1.1841   -3.1568   -0.4203 C.3     1  LIG1        0.0790
      8 C          -2.5845   -3.8336   -0.5971 C.3     1  LIG1        0.1048
      9 O          -2.9815   -3.8221   -1.9911 O.3     1  LIG1       -0.4640
     10 C          -3.4806   -4.9922   -2.4989 C.2     1  LIG1        0.3040
     11 C          -3.3651   -5.0217   -4.0000 C.3     1  LIG1        0.0332
     12 O          -3.9031   -5.9236   -1.8358 O.2     1  LIG1       -0.2512
     13 C          -0.6372   -3.3366    1.0477 C.3     1  LIG1        0.1152
     14 H          -0.7290   -4.3797    1.3724 H       1  LIG1        0.0742
     15 C          -1.4611   -2.4667    2.0515 C.3     1  LIG1       -0.0144
     16 C          -1.7174   -0.9824    1.7017 C.3     1  LIG1       -0.0437
     17 C          -1.9639   -0.6342    0.1914 C.3     1  LIG1       -0.0247
     18 C          -1.3994    0.8236   -0.1019 C.3     1  LIG1       -0.0257
     19 H          -0.4386    0.7664    0.4165 H       1  LIG1        0.0315
     20 C          -2.2133    1.9986    0.5081 C.3     1  LIG1       -0.0306
     21 C          -1.4954    3.3280    0.3248 C.2     1  LIG1       -0.0836
     22 C          -0.2049    3.2640   -0.0832 C.2     1  LIG1       -0.0604
     23 C           0.0804    2.5003   -1.4231 C.3     1  LIG1       -0.0050
     24 C           1.6050    2.1438   -1.5906 C.3     1  LIG1       -0.0424
     25 C           2.4262    1.8831   -0.3341 C.3     1  LIG1       -0.0358
     26 C           2.2744    3.0088    0.7245 C.3     1  LIG1        0.0766
     27 C           0.7860    3.0680    1.1035 C.3     1  LIG1        0.0229
     28 H           0.5981    2.0294    1.4015 H       1  LIG1        0.0382
     29 C           0.4515    3.8070    2.4398 C.3     1  LIG1        0.0678
     30 H          -0.5826    3.5802    2.7240 H       1  LIG1        0.0605
     31 C           1.3128    3.3404    3.6405 C.3     1  LIG1       -0.0083
     32 C           1.0685    4.2799    4.8409 C.3     1  LIG1       -0.0574
     33 C           2.8030    3.3726    3.2525 C.3     1  LIG1       -0.0445
     34 C           3.1210    2.6005    1.9654 C.3     1  LIG1       -0.0360
     35 C           0.8977    1.9165    4.0920 C.3     1  LIG1       -0.0574
     36 O           0.4977    5.2212    2.2984 O.3     1  LIG1       -0.3906
     37 C           2.8124    4.3406    0.1807 C.2     1  LIG1        0.3137
     38 O           3.8761    4.1187   -0.6391 O.3     1  LIG1       -0.4675
     39 C           4.7507    5.2142   -0.9059 C.3     1  LIG1        0.0817
     40 O           2.4323    5.4481    0.5406 O.2     1  LIG1       -0.2502
     41 C          -0.1510    3.5012   -2.6001 C.3     1  LIG1       -0.0553
     42 C          -3.4905   -0.6443   -0.0244 C.3     1  LIG1       -0.0590
     43 O           0.7851   -2.9640    1.2443 O.3     1  LIG1       -0.4607
     44 C           1.8008   -3.8101    0.8700 C.2     1  LIG1        0.3042
     45 C           3.1248   -3.4469    1.4832 C.3     1  LIG1        0.0332
     46 O           1.7101   -4.7910    0.1911 O.2     1  LIG1       -0.2512
     47 C          -0.2616   -3.8611   -1.4590 C.3     1  LIG1        0.1048
     48 O          -0.2529   -5.2898   -1.3100 O.3     1  LIG1       -0.4640
     49 C          -0.2381   -5.9863   -2.4836 C.2     1  LIG1        0.3040
     50 C          -0.1758   -7.4555   -2.2514 C.3     1  LIG1        0.0332
     51 O          -0.3267   -5.4907   -3.5981 O.2     1  LIG1       -0.2512
     52 H          -2.0157    1.8130   -3.4465 H       1  LIG1        0.0235
     53 H          -2.7203    2.5893   -2.0324 H       1  LIG1        0.0235
     54 H          -3.0366    0.9054   -2.3672 H       1  LIG1        0.0235
     55 H           0.6066   -0.1867   -1.9949 H       1  LIG1        0.0271
     56 H          -0.3001    0.3008   -3.4122 H       1  LIG1        0.0271
     57 H          -0.7741   -1.8985   -2.8727 H       1  LIG1        0.0268
     58 H          -2.2608   -1.0960   -2.5062 H       1  LIG1        0.0268
     59 H          -3.3688   -3.3527   -0.0208 H       1  LIG1        0.0705
     60 H          -2.5323   -4.8658   -0.2303 H       1  LIG1        0.0705
     61 H          -2.8395   -5.9365   -4.2936 H       1  LIG1        0.0342
     62 H          -2.7743   -4.1738   -4.3579 H       1  LIG1        0.0342
     63 H          -4.3512   -4.9996   -4.4669 H       1  LIG1        0.0342
     64 H          -0.9567   -2.4732    3.0291 H       1  LIG1        0.0301
     65 H          -2.4366   -2.9397    2.2133 H       1  LIG1        0.0301
     66 H          -0.8892   -0.3872    2.1096 H       1  LIG1        0.0272
     67 H          -2.5850   -0.6507    2.2960 H       1  LIG1        0.0272
     68 H          -2.3601    1.8313    1.5819 H       1  LIG1        0.0310
     69 H          -3.2085    2.0888    0.0623 H       1  LIG1        0.0310
     70 H          -1.7877    4.0245    1.1104 H       1  LIG1        0.0572
     71 H           2.1101    2.9721   -2.1068 H       1  LIG1        0.0274
     72 H           1.7679    1.3242   -2.2942 H       1  LIG1        0.0274
     73 H           3.4815    1.7800   -0.6253 H       1  LIG1        0.0276
     74 H           2.1492    0.9097    0.0877 H       1  LIG1        0.0276
     75 H           1.4027    5.3012    4.6305 H       1  LIG1        0.0236
     76 H           1.6031    3.9363    5.7323 H       1  LIG1        0.0236
     77 H           0.0004    4.3243    5.0881 H       1  LIG1        0.0236
     78 H           3.4004    2.9500    4.0713 H       1  LIG1        0.0272
     79 H           3.1375    4.4099    3.1359 H       1  LIG1        0.0272
     80 H           2.9686    1.5323    2.1687 H       1  LIG1        0.0276
     81 H           4.1921    2.7061    1.7514 H       1  LIG1        0.0276
     82 H          -0.1705    1.8771    4.3393 H       1  LIG1        0.0236
     83 H           1.4494    1.6143    4.9900 H       1  LIG1        0.0236
     84 H           1.0798    1.1520    3.3321 H       1  LIG1        0.0236
     85 H           1.3797    5.4858    1.9690 H       1  LIG1        0.2098
     86 H           5.7676    4.8240   -0.8070 H       1  LIG1        0.0661
     87 H           4.6310    6.0376   -0.1976 H       1  LIG1        0.0661
     88 H           4.6129    5.5653   -1.9321 H       1  LIG1        0.0661
     89 H           0.5583    4.3368   -2.5695 H       1  LIG1        0.0238
     90 H          -1.1438    3.9580   -2.5921 H       1  LIG1        0.0238
     91 H          -0.0111    2.9929   -3.5635 H       1  LIG1        0.0238
     92 H          -3.9827    0.1467    0.5547 H       1  LIG1        0.0235
     93 H          -3.9560   -1.5571    0.3378 H       1  LIG1        0.0235
     94 H          -3.7809   -0.5049   -1.0637 H       1  LIG1        0.0235
     95 H           3.2827   -2.3733    1.5419 H       1  LIG1        0.0342
     96 H           3.9137   -3.8683    0.8440 H       1  LIG1        0.0342
     97 H           3.1905   -3.9257    2.4623 H       1  LIG1        0.0342
     98 H           0.7518   -3.4473   -1.4188 H       1  LIG1        0.0705
     99 H          -0.6032   -3.6471   -2.4651 H       1  LIG1        0.0705
    100 H          -1.1246   -7.8006   -1.8383 H       1  LIG1        0.0342
    101 H           0.6607   -7.7131   -1.5998 H       1  LIG1        0.0342
    102 H          -0.0143   -7.9416   -3.2196 H       1  LIG1        0.0342
@<TRIPOS>BOND
     1     1     2    1
     2     2     3    1
     3     3     4    1
     4     4     5    1
     5     5     6    1
     6     5     7    1
     7     7     8    1
     8     8     9    1
     9     9    10    1
    10    10    11    1
    11    10    12    2
    12     7    13    1
    13    13    14    1
    14    13    15    1
    15    15    16    1
    16    16    17    1
    17    17    18    1
    18    18    19    1
    19     2    18    1
    20    18    20    1
    21    20    21    1
    22    21    22    2
    23    22    23    1
    24    23    24    1
    25    24    25    1
    26    25    26    1
    27    26    27    1
    28    27    28    1
    29    22    27    1
    30    27    29    1
    31    29    31    1
    32    31    32    1
    33    31    33    1
    34    33    34    1
    35    31    35    1
    36    34    26    1
    37    26    37    1
    38    37    38    1
    39    38    39    1
    40    37    40    2
    41     2    23    1
    42    23    41    1
    43     5    17    1
    44    17    42    1
    45    13    43    1
    46    43    44    1
    47    44    45    1
    48    44    46    2
    49     7    47    1
    50    47    48    1
    51    48    49    1
    52    49    50    1
    53    49    51    2
    54    29    36    1
    55    29    30    1
    56     1    52    1
    57     1    53    1
    58     1    54    1
    59     3    55    1
    60     3    56    1
    61     4    57    1
    62     4    58    1
    63     8    59    1
    64     8    60    1
    65    11    61    1
    66    11    62    1
    67    11    63    1
    68    15    64    1
    69    15    65    1
    70    16    66    1
    71    16    67    1
    72    20    68    1
    73    20    69    1
    74    21    70    1
    75    24    71    1
    76    24    72    1
    77    25    73    1
    78    25    74    1
    79    32    75    1
    80    32    76    1
    81    32    77    1
    82    33    78    1
    83    33    79    1
    84    34    80    1
    85    34    81    1
    86    35    82    1
    87    35    83    1
    88    35    84    1
    89    36    85    1
    90    39    86    1
    91    39    87    1
    92    39    88    1
    93    41    89    1
    94    41    90    1
    95    41    91    1
    96    42    92    1
    97    42    93    1
    98    42    94    1
    99    45    95    1
   100    45    96    1
   101    45    97    1
   102    47    98    1
   103    47    99    1
   104    50   100    1
   105    50   101    1
   106    50   102    1
