REMARK  Name = NuBBE_2264
REMARK  11 active torsions:
REMARK  status: ('A' for Active; 'I' for Inactive)
REMARK    1  A    between atoms: C_1  and  C_2
REMARK    2  A    between atoms: C_5  and  C_6
REMARK    3  A    between atoms: C_9  and  O_10
REMARK    4  A    between atoms: O_10  and  C_11
REMARK    5  A    between atoms: C_11  and  C_12
REMARK    6  A    between atoms: C_14  and  C_15
REMARK    7  A    between atoms: C_15  and  C_16
REMARK    8  A    between atoms: C_15  and  O_17
REMARK    9  A    between atoms: C_15  and  C_21
REMARK   10  A    between atoms: O_17  and  C_18
REMARK   11  A    between atoms: C_18  and  C_19
REMARK                            x       y       z     vdW  Elec       q    Type
REMARK                         _______ _______ _______ _____ _____    ______ ____
ROOT
ATOM      1  C   LIG A   1      -2.210   3.388   0.064  0.00  0.00    +0.044 C 
ATOM      2  C   LIG A   1      -0.715   3.210   0.002  0.00  0.00    -0.043 A 
ATOM      3  C   LIG A   1       0.087   4.355  -0.072  0.00  0.00    +0.004 A 
ATOM      4  C   LIG A   1       1.471   4.249  -0.121  0.00  0.00    +0.004 A 
ATOM      5  C   LIG A   1       2.092   2.994  -0.089  0.00  0.00    -0.043 A 
ATOM      6  C   LIG A   1       3.599   2.949  -0.136  0.00  0.00    +0.044 C 
ATOM      7  C   LIG A   1       1.300   1.817  -0.002  0.00  0.00    -0.011 A 
ATOM      8  C   LIG A   1       1.868   0.528   0.077  0.00  0.00    +0.055 A 
ATOM      9  C   LIG A   1       1.079  -0.619   0.218  0.00  0.00    +0.139 A 
ATOM     10  C   LIG A   1      -0.318  -0.553   0.219  0.00  0.00    +0.038 A 
ATOM     11  C   LIG A   1      -0.881   0.737   0.131  0.00  0.00    +0.020 A 
ATOM     12  C   LIG A   1      -0.113   1.925   0.036  0.00  0.00    -0.014 A 
ENDROOT
BRANCH  10  13
ATOM     13  C   LIG A   1      -1.249  -1.759   0.428  0.00  0.00    +0.136 C 
ATOM     14  C   LIG A   1      -1.493  -1.857   1.951  0.00  0.00    +0.061 C 
ATOM     15  C   LIG A   1      -0.771  -3.154  -0.033  0.00  0.00    +0.061 C 
BRANCH  13  16
ATOM     16  O   LIG A   1      -2.572  -1.525  -0.155  0.00  0.00    -0.454 OA
BRANCH  16  17
ATOM     17  C   LIG A   1      -2.737  -1.654  -1.501  0.00  0.00    +0.305 C 
ATOM     18  C   LIG A   1      -4.186  -1.530  -1.858  0.00  0.00    +0.136 C 
ATOM     19  O   LIG A   1      -1.860  -1.871  -2.324  0.00  0.00    -0.251 OA
ENDBRANCH  16  17
ENDBRANCH  13  16
ENDBRANCH  10  13
BRANCH   9  20
ATOM     20  O   LIG A   1       1.662  -1.902   0.360  0.00  0.00    -0.426 OA
BRANCH  20  21
ATOM     21  C   LIG A   1       3.008  -2.262   0.431  0.00  0.00    +0.309 C 
ATOM     22  C   LIG A   1       3.077  -3.755   0.367  0.00  0.00    +0.136 C 
ATOM     23  O   LIG A   1       3.978  -1.516   0.521  0.00  0.00    -0.251 OA
ENDBRANCH  20  21
ENDBRANCH   9  20
TORSDOF 5
