@<TRIPOS>MOLECULE
NuBBE_2059
 39 40 0 0 0
SMALL
GASTEIGER

@<TRIPOS>ATOM
      1 O          -5.4759    2.2319   -1.0004 O.2     1  LIG1       -0.2452
      2 C          -4.3088    2.4820   -0.7596 C.ar    1  LIG1        0.3373
      3 O          -3.3491    1.4955   -0.6545 O.2     1  LIG1       -0.4183
      4 C          -1.9742    1.7648   -0.4619 C.ar    1  LIG1        0.1843
      5 C          -1.0716    0.6957   -0.4502 C.ar    1  LIG1        0.2086
      6 O          -1.3731   -0.5964   -0.7779 O.3     1  LIG1       -0.4884
      7 C          -2.5820   -0.9120   -1.4409 C.3     1  LIG1        0.0791
      8 C           0.2731    0.9460   -0.1115 C.ar    1  LIG1        0.2079
      9 O           1.2101   -0.0446    0.1236 O.3     1  LIG1       -0.4810
     10 C           0.7064   -1.3139    0.5620 C.3     1  LIG1        0.1084
     11 C           1.7791   -2.0538    1.3004 C.2     1  LIG1       -0.0484
     12 C           2.1507   -3.3441    1.1666 C.2     1  LIG1       -0.0765
     13 C           1.5840   -4.3373    0.1849 C.3     1  LIG1       -0.0439
     14 C           3.2085   -3.9107    2.0757 C.3     1  LIG1       -0.0439
     15 C           0.7131    2.2853   -0.0188 C.ar    1  LIG1        0.1660
     16 C          -0.2109    3.3417   -0.0655 C.ar    1  LIG1       -0.0054
     17 C          -1.5679    3.0833   -0.2646 C.ar    1  LIG1        0.0250
     18 C          -2.5605    4.1531   -0.3207 C.ar    1  LIG1       -0.0441
     19 C          -3.8406    3.8611   -0.5623 C.ar    1  LIG1        0.0236
     20 O           2.0182    2.6932    0.1188 O.3     1  LIG1       -0.4913
     21 C           2.9762    1.8782   -0.5579 C.3     1  LIG1        0.0790
     22 H          -2.4487   -1.8858   -1.9202 H       1  LIG1        0.0660
     23 H          -2.8245   -0.1980   -2.2330 H       1  LIG1        0.0660
     24 H          -3.3828   -1.0082   -0.7034 H       1  LIG1        0.0660
     25 H           0.3899   -1.8884   -0.3101 H       1  LIG1        0.0742
     26 H          -0.1205   -1.1739    1.2694 H       1  LIG1        0.0742
     27 H           2.2577   -1.4508    2.0693 H       1  LIG1        0.0605
     28 H           0.7644   -3.9430   -0.4195 H       1  LIG1        0.0274
     29 H           1.1983   -5.2168    0.7130 H       1  LIG1        0.0274
     30 H           2.3678   -4.6734   -0.5030 H       1  LIG1        0.0274
     31 H           3.6269   -3.1494    2.7424 H       1  LIG1        0.0274
     32 H           4.0318   -4.3295    1.4897 H       1  LIG1        0.0274
     33 H           2.7829   -4.7016    2.7023 H       1  LIG1        0.0274
     34 H           0.1427    4.3663    0.0399 H       1  LIG1        0.0662
     35 H          -2.2378    5.1755   -0.1787 H       1  LIG1        0.0627
     36 H          -4.6065    4.6275   -0.6293 H       1  LIG1        0.0689
     37 H           3.7407    2.5299   -0.9906 H       1  LIG1        0.0660
     38 H           2.5520    1.3042   -1.3898 H       1  LIG1        0.0660
     39 H           3.4608    1.2166    0.1663 H       1  LIG1        0.0660
@<TRIPOS>BOND
     1     1     2    2
     2     2     3   ar
     3     3     4   ar
     4     4     5   ar
     5     5     6    1
     6     6     7    1
     7     5     8   ar
     8     8     9    1
     9     9    10    1
    10    10    11    1
    11    11    12    2
    12    12    13    1
    13    12    14    1
    14     8    15   ar
    15    15    16   ar
    16    16    17   ar
    17     4    17   ar
    18    17    18   ar
    19    18    19   ar
    20     2    19   ar
    21    15    20    1
    22    20    21    1
    23     7    22    1
    24     7    23    1
    25     7    24    1
    26    10    25    1
    27    10    26    1
    28    11    27    1
    29    13    28    1
    30    13    29    1
    31    13    30    1
    32    14    31    1
    33    14    32    1
    34    14    33    1
    35    16    34    1
    36    18    35    1
    37    19    36    1
    38    21    37    1
    39    21    38    1
    40    21    39    1
