@<TRIPOS>MOLECULE
NuBBE_1657
 54 56 0 0 0
SMALL
GASTEIGER

@<TRIPOS>ATOM
      1 C          -2.0996    0.2749   -2.9102 C.3     1  LIG1       -0.0613
      2 C          -1.6211   -0.6429   -1.7551 C.3     1  LIG1       -0.0302
      3 H          -2.5096   -1.2022   -1.4349 H       1  LIG1        0.0310
      4 C          -1.1341    0.2793   -0.5757 C.3     1  LIG1        0.0125
      5 H          -1.8207    1.1406   -0.5991 H       1  LIG1        0.0400
      6 C           0.2558    0.8179   -0.8494 C.ar    1  LIG1       -0.0328
      7 C           1.1672    0.1573   -1.6524 C.ar    1  LIG1       -0.0397
      8 C           0.8563   -1.0869   -2.4403 C.3     1  LIG1       -0.0244
      9 C          -0.5761   -1.6322   -2.3644 C.3     1  LIG1       -0.0365
     10 H          -0.8961   -1.8201   -3.4005 H       1  LIG1        0.0304
     11 C          -0.5584   -3.0516   -1.7875 C.3     1  LIG1       -0.0618
     12 C           2.4460    0.7206   -1.8173 C.ar    1  LIG1       -0.0128
     13 C           2.8449    1.9633   -1.2684 C.ar    1  LIG1        0.1618
     14 C           1.8952    2.6710   -0.5269 C.ar    1  LIG1        0.1618
     15 C           0.6278    2.0680   -0.3135 C.ar    1  LIG1       -0.0123
     16 O           1.9023    3.8982    0.0716 O.3     1  LIG1       -0.4914
     17 C           2.7889    4.8517   -0.4485 C.3     1  LIG1        0.0790
     18 O           4.1320    2.1714   -1.6820 O.3     1  LIG1       -0.4914
     19 C           5.0417    3.1602   -1.2694 C.3     1  LIG1        0.0790
     20 C          -1.2998   -0.2529    0.8546 C.ar    1  LIG1       -0.0360
     21 C          -1.2805   -1.5921    1.1382 C.ar    1  LIG1       -0.0125
     22 C          -1.4563   -2.1698    2.3903 C.ar    1  LIG1        0.1618
     23 O          -1.4389   -3.5300    2.5854 O.3     1  LIG1       -0.4914
     24 C          -1.7939   -4.3122    1.4369 C.3     1  LIG1        0.0790
     25 C          -1.6529   -1.3010    3.4878 C.ar    1  LIG1        0.1615
     26 C          -1.6369    0.0715    3.2523 C.ar    1  LIG1       -0.0160
     27 C          -1.4789    0.6044    1.9636 C.ar    1  LIG1       -0.0543
     28 O          -1.8490   -1.8636    4.7201 O.3     1  LIG1       -0.4915
     29 C          -2.6636   -1.1053    5.6156 C.3     1  LIG1        0.0790
     30 H          -1.2681    0.8414   -3.3435 H       1  LIG1        0.0233
     31 H          -2.8537    0.9891   -2.5650 H       1  LIG1        0.0233
     32 H          -2.5547   -0.3158   -3.7127 H       1  LIG1        0.0233
     33 H           1.5810   -1.8632   -2.1631 H       1  LIG1        0.0316
     34 H           1.0520   -0.8565   -3.4967 H       1  LIG1        0.0316
     35 H           0.1191   -3.1340   -0.9316 H       1  LIG1        0.0233
     36 H          -0.1780   -3.7671   -2.5250 H       1  LIG1        0.0233
     37 H          -1.5659   -3.3836   -1.5172 H       1  LIG1        0.0233
     38 H           3.1698    0.1792   -2.4275 H       1  LIG1        0.0658
     39 H          -0.1072    2.6290    0.2554 H       1  LIG1        0.0658
     40 H           2.6727    4.9605   -1.5327 H       1  LIG1        0.0660
     41 H           3.7722    4.5756   -0.1057 H       1  LIG1        0.0660
     42 H           2.6521    5.8313    0.0185 H       1  LIG1        0.0660
     43 H           6.0014    2.9756   -1.7615 H       1  LIG1        0.0660
     44 H           5.2247    3.1327   -0.1891 H       1  LIG1        0.0660
     45 H           4.7576    4.1393   -1.6584 H       1  LIG1        0.0660
     46 H          -1.1215   -2.2457    0.2984 H       1  LIG1        0.0658
     47 H          -1.1373   -4.1464    0.5847 H       1  LIG1        0.0660
     48 H          -2.8373   -4.1258    1.1618 H       1  LIG1        0.0660
     49 H          -1.6685   -5.3739    1.6656 H       1  LIG1        0.0660
     50 H          -1.7495    0.7804    4.0795 H       1  LIG1        0.0655
     51 H          -1.4958    1.6745    1.8332 H       1  LIG1        0.0622
     52 H          -3.1189   -1.8019    6.3272 H       1  LIG1        0.0660
     53 H          -3.4813   -0.5893    5.1006 H       1  LIG1        0.0660
     54 H          -2.0568   -0.3930    6.1840 H       1  LIG1        0.0660
@<TRIPOS>BOND
     1     2     4    1
     2     4     5    1
     3     4     6    1
     4     6     7   ar
     5     7     8    1
     6     8     9    1
     7     2     9    1
     8     7    12   ar
     9    12    13   ar
    10    13    14   ar
    11    14    15   ar
    12     6    15   ar
    13    14    16    1
    14    16    17    1
    15    13    18    1
    16    18    19    1
    17     4    20    1
    18    20    21   ar
    19    21    22   ar
    20    22    23    1
    21    23    24    1
    22    22    25   ar
    23    25    26   ar
    24    26    27   ar
    25    20    27   ar
    26    25    28    1
    27    28    29    1
    28     9    11    1
    29     9    10    1
    30     2     3    1
    31     2     1    1
    32     1    30    1
    33     1    31    1
    34     1    32    1
    35     8    33    1
    36     8    34    1
    37    11    35    1
    38    11    36    1
    39    11    37    1
    40    12    38    1
    41    15    39    1
    42    17    40    1
    43    17    41    1
    44    17    42    1
    45    19    43    1
    46    19    44    1
    47    19    45    1
    48    21    46    1
    49    24    47    1
    50    24    48    1
    51    24    49    1
    52    26    50    1
    53    27    51    1
    54    29    52    1
    55    29    53    1
    56    29    54    1
