@<TRIPOS>MOLECULE
NuBBE_1056
 68 73 0 0 0
SMALL
GASTEIGER

@<TRIPOS>ATOM
      1 C          -1.0492   -4.9465    0.6195 C.3     1  LIG1       -0.0525
      2 C          -0.3682   -3.6787    1.1820 C.3     1  LIG1        0.0317
      3 C          -0.6744   -2.3224    0.3602 C.3     1  LIG1       -0.0058
      4 H          -1.6798   -1.9773    0.6367 H       1  LIG1        0.0325
      5 C           0.3829   -1.1722    0.7833 C.3     1  LIG1        0.0420
      6 C           0.3299    0.1723    0.0096 C.3     1  LIG1        0.0619
      7 C           1.5492    0.1026   -0.9004 C.3     1  LIG1        0.1268
      8 O           2.4691   -0.9188   -0.4100 O.2     1  LIG1       -0.4881
      9 C           1.7226   -1.7615    0.3961 C.2     1  LIG1        0.1088
     10 C           2.1002   -3.0253    0.6015 C.2     1  LIG1        0.0194
     11 C           1.1480   -3.9893    1.1954 C.2     1  LIG1        0.1651
     12 O           1.5959   -5.0458    1.6405 O.2     1  LIG1       -0.2920
     13 C           1.4581    0.0193   -2.3898 C.3     1  LIG1       -0.0236
     14 C          -0.9881    0.8839   -0.1248 C.3     1  LIG1        0.0668
     15 H          -1.7914    0.2546   -0.5137 H       1  LIG1        0.0601
     16 O          -1.3598    1.3408    1.1775 O.3     1  LIG1       -0.3910
     17 C          -0.7499    2.1223   -0.9965 C.3     1  LIG1       -0.0163
     18 C           0.6703    2.6421   -0.6352 C.3     1  LIG1        0.0246
     19 C           1.4319    3.1794   -1.8703 C.3     1  LIG1       -0.0550
     20 C           1.3914    1.3563   -0.0573 C.3     1  LIG1        0.0687
     21 C           2.3031    1.7147    1.1258 C.3     1  LIG1        0.1622
     22 H           1.7352    1.7157    2.0590 H       1  LIG1        0.0718
     23 C           2.8773    3.1395    1.0433 C.2     1  LIG1        0.3373
     24 O           1.9883    4.1349    0.8047 O.3     1  LIG1       -0.4541
     25 C           0.6310    3.7604    0.4757 C.3     1  LIG1        0.1372
     26 H           0.1892    3.3650    1.3988 H       1  LIG1        0.0792
     27 C          -0.1650    5.0090    0.1351 C.ar    1  LIG1        0.0310
     28 C          -1.5198    5.1976    0.3480 C.ar    1  LIG1        0.0984
     29 O          -1.9193    6.4357   -0.0285 O.2     1  LIG1       -0.4706
     30 C          -0.8146    7.0894   -0.4616 C.ar    1  LIG1        0.0921
     31 C           0.2880    6.2678   -0.3790 C.ar    1  LIG1       -0.0172
     32 O           4.0720    3.3687    1.2187 O.2     1  LIG1       -0.2479
     33 O           3.3668    0.7856    1.2955 O.3     1  LIG1       -0.3799
     34 C           0.3370   -0.8745    2.2930 C.3     1  LIG1       -0.0516
     35 C          -0.6944   -2.5427   -1.1970 C.3     1  LIG1        0.0495
     36 C          -1.7652   -3.4191   -1.8431 C.2     1  LIG1        0.3071
     37 O          -2.9343   -3.3758   -1.1462 O.3     1  LIG1       -0.4679
     38 C          -3.9851   -4.1609   -1.7237 C.3     1  LIG1        0.0817
     39 O          -1.6016   -4.0054   -2.8942 O.2     1  LIG1       -0.2509
     40 C          -0.8608   -3.5907    2.6516 C.3     1  LIG1       -0.0525
     41 H          -0.8601   -5.8173    1.2628 H       1  LIG1        0.0239
     42 H          -0.6614   -5.2278   -0.3632 H       1  LIG1        0.0239
     43 H          -2.1358   -4.8356    0.5870 H       1  LIG1        0.0239
     44 H           3.0567   -3.4092    0.2718 H       1  LIG1        0.0686
     45 H           1.3783   -1.0240   -2.7109 H       1  LIG1        0.0268
     46 H           2.3805    0.4093   -2.8338 H       1  LIG1        0.0268
     47 H           0.6038    0.5404   -2.8185 H       1  LIG1        0.0268
     48 H          -2.2951    1.6080    1.1512 H       1  LIG1        0.2098
     49 H          -1.5276    2.8694   -0.8289 H       1  LIG1        0.0297
     50 H          -0.8128    1.8508   -2.0528 H       1  LIG1        0.0297
     51 H           1.6216    2.4209   -2.6255 H       1  LIG1        0.0237
     52 H           2.4221    3.5650   -1.6051 H       1  LIG1        0.0237
     53 H           0.8771    3.9733   -2.3767 H       1  LIG1        0.0237
     54 H          -2.3034    4.5684    0.7449 H       1  LIG1        0.1033
     55 H          -0.9728    8.1137   -0.7749 H       1  LIG1        0.1029
     56 H           1.2970    6.5602   -0.6387 H       1  LIG1        0.0653
     57 H           4.1994    1.2996    1.3081 H       1  LIG1        0.2105
     58 H          -0.6952   -0.8204    2.6530 H       1  LIG1        0.0239
     59 H           0.7865    0.0785    2.5551 H       1  LIG1        0.0239
     60 H           0.8897   -1.6069    2.8847 H       1  LIG1        0.0239
     61 H           0.2639   -2.9627   -1.5298 H       1  LIG1        0.0381
     62 H          -0.8210   -1.5783   -1.6989 H       1  LIG1        0.0381
     63 H          -4.3336   -3.6810   -2.6422 H       1  LIG1        0.0661
     64 H          -4.8112   -4.1901   -1.0079 H       1  LIG1        0.0661
     65 H          -3.6701   -5.1922   -1.9218 H       1  LIG1        0.0661
     66 H          -1.6858   -2.8797    2.7609 H       1  LIG1        0.0239
     67 H          -0.0638   -3.3311    3.3528 H       1  LIG1        0.0239
     68 H          -1.2433   -4.5516    3.0172 H       1  LIG1        0.0239
@<TRIPOS>BOND
     1     1     2    1
     2     2     3    1
     3     3     4    1
     4     3     5    1
     5     5     6    1
     6     6     7    1
     7     7     8    1
     8     8     9    1
     9     9    10    2
    10    10    11    1
    11    11    12    2
    12     7    13    1
    13     6    14    1
    14    14    15    1
    15    14    16    1
    16    14    17    1
    17    17    18    1
    18    18    19    1
    19    18    20    1
    20     7    20    1
    21     6    20    1
    22    20    21    1
    23    21    23    1
    24    23    24    1
    25    24    25    1
    26    18    25    1
    27    27    28   ar
    28    28    29   ar
    29    29    30   ar
    30    30    31   ar
    31    27    31   ar
    32    23    32    2
    33     9     5    1
    34     5    34    1
    35     3    35    1
    36    35    36    1
    37    36    37    1
    38    37    38    1
    39    36    39    2
    40    11     2    1
    41     2    40    1
    42    21    33    1
    43    21    22    1
    44    25    27    1
    45    25    26    1
    46     1    41    1
    47     1    42    1
    48     1    43    1
    49    10    44    1
    50    13    45    1
    51    13    46    1
    52    13    47    1
    53    16    48    1
    54    17    49    1
    55    17    50    1
    56    19    51    1
    57    19    52    1
    58    19    53    1
    59    28    54    1
    60    30    55    1
    61    31    56    1
    62    33    57    1
    63    34    58    1
    64    34    59    1
    65    34    60    1
    66    35    61    1
    67    35    62    1
    68    38    63    1
    69    38    64    1
    70    38    65    1
    71    40    66    1
    72    40    67    1
    73    40    68    1
