@<TRIPOS>MOLECULE
NuBBE_2081
 43 45 0 0 0
SMALL
GASTEIGER

@<TRIPOS>ATOM
      1 O          -1.5148    0.8195    1.9579 O.3     1  LIG1       -0.5064
      2 C          -0.6602   -0.1147    2.4638 C.ar    1  LIG1        0.1235
      3 C           0.7529    0.0116    2.4351 C.ar    1  LIG1       -0.0057
      4 C           1.5452    1.0622    1.5881 C.3     1  LIG1       -0.0239
      5 C           0.8576    2.3165    0.9891 C.3     1  LIG1       -0.0448
      6 C          -0.2463    2.2252   -0.1194 C.3     1  LIG1       -0.0238
      7 C           0.0071    1.5953   -1.4881 C.ar    1  LIG1       -0.0020
      8 C           0.4244    2.4686   -2.4933 C.ar    1  LIG1       -0.0095
      9 C           0.5943    1.9665   -3.7765 C.ar    1  LIG1        0.1667
     10 O           0.9817    2.6723   -4.8655 O.3     1  LIG1       -0.4526
     11 C           0.9891    1.6314   -5.8755 C.3     1  LIG1        0.2332
     12 O           0.5891    0.3426   -5.3429 O.3     1  LIG1       -0.4525
     13 C           0.3598    0.6340   -4.0705 C.ar    1  LIG1        0.1697
     14 C          -0.0595   -0.2358   -3.1700 C.ar    1  LIG1        0.0258
     15 C          -0.2644    0.2322   -1.8738 C.ar    1  LIG1        0.1270
     16 O          -0.7260   -0.8013   -1.1202 O.3     1  LIG1       -0.4947
     17 C           0.2729   -1.0471   -0.1753 C.3     1  LIG1        0.0788
     18 C           1.4619   -1.1359    2.8624 C.ar    1  LIG1       -0.0517
     19 C           0.7893   -2.3286    3.2355 C.ar    1  LIG1       -0.0195
     20 C          -0.5993   -2.4419    3.1200 C.ar    1  LIG1        0.1236
     21 O          -1.1853   -3.6516    3.3856 O.3     1  LIG1       -0.4950
     22 C          -2.6067   -3.7048    3.1947 C.3     1  LIG1        0.0788
     23 C          -1.3035   -1.3329    2.7043 C.ar    1  LIG1        0.0218
     24 H          -2.0228    0.3601    1.2495 H       1  LIG1        0.2921
     25 H           2.0319    0.5713    0.7289 H       1  LIG1        0.0314
     26 H           2.4130    1.3802    2.1822 H       1  LIG1        0.0314
     27 H           1.6568    2.9486    0.5709 H       1  LIG1        0.0272
     28 H           0.4542    2.8798    1.8402 H       1  LIG1        0.0272
     29 H          -0.5515    3.2742   -0.2851 H       1  LIG1        0.0314
     30 H          -1.1871    1.8241    0.2224 H       1  LIG1        0.0314
     31 H           0.5840    3.5297   -2.3046 H       1  LIG1        0.0659
     32 H           2.0017    1.5401   -6.2770 H       1  LIG1        0.1166
     33 H           0.2950    1.9089   -6.6732 H       1  LIG1        0.1166
     34 H          -0.2294   -1.2884   -3.3977 H       1  LIG1        0.0692
     35 H           1.3199   -0.9410   -0.4834 H       1  LIG1        0.0660
     36 H           0.1300   -1.9721    0.3786 H       1  LIG1        0.0660
     37 H           0.0469   -0.2185    0.4359 H       1  LIG1        0.0660
     38 H           2.5510   -1.1620    2.8037 H       1  LIG1        0.0623
     39 H           1.3659   -3.1973    3.5446 H       1  LIG1        0.0654
     40 H          -2.9879   -4.6333    3.6261 H       1  LIG1        0.0660
     41 H          -2.8480   -3.7009    2.1243 H       1  LIG1        0.0660
     42 H          -3.1272   -2.8855    3.7075 H       1  LIG1        0.0660
     43 H          -2.3556   -1.4016    2.4406 H       1  LIG1        0.0691
@<TRIPOS>BOND
     1     1     2    1
     2     2     3   ar
     3     3     4    1
     4     4     5    1
     5     5     6    1
     6     6     7    1
     7     7     8   ar
     8     8     9   ar
     9     9    10    1
    10    10    11    1
    11    11    12    1
    12     9    13   ar
    13    12    13    1
    14    13    14   ar
    15    14    15   ar
    16     7    15   ar
    17    15    16    1
    18    16    17    1
    19     3    18   ar
    20    18    19   ar
    21    19    20   ar
    22    20    21    1
    23    21    22    1
    24    20    23   ar
    25     2    23   ar
    26     1    24    1
    27     4    25    1
    28     4    26    1
    29     5    27    1
    30     5    28    1
    31     6    29    1
    32     6    30    1
    33     8    31    1
    34    11    32    1
    35    11    33    1
    36    14    34    1
    37    17    35    1
    38    17    36    1
    39    17    37    1
    40    18    38    1
    41    19    39    1
    42    22    40    1
    43    22    41    1
    44    22    42    1
    45    23    43    1
