REMARK  Name = NuBBE_1688
REMARK  15 active torsions:
REMARK  status: ('A' for Active; 'I' for Inactive)
REMARK    1  A    between atoms: C_1  and  C_2
REMARK    2  A    between atoms: C_2  and  C_3
REMARK    3  A    between atoms: C_3  and  C_4
REMARK    4  A    between atoms: C_5  and  C_6
REMARK    5  A    between atoms: C_6  and  C_7
REMARK    6  A    between atoms: C_8  and  C_9
REMARK    7  A    between atoms: C_9  and  C_10
REMARK    8  A    between atoms: C_10  and  C_11
REMARK    9  A    between atoms: C_11  and  C_12
REMARK   10  A    between atoms: C_12  and  C_13
REMARK   11  A    between atoms: C_13  and  C_14
REMARK   12  A    between atoms: C_14  and  C_15
REMARK   13  A    between atoms: C_15  and  C_16
REMARK   14  A    between atoms: C_18  and  O_19
REMARK   15  A    between atoms: C_21  and  O_22
REMARK                            x       y       z     vdW  Elec       q    Type
REMARK                         _______ _______ _______ _____ _____    ______ ____
ROOT
ATOM      1  C   LIG A   1      -1.049  -2.727   1.212  0.00  0.00    +0.000 C 
ENDROOT
BRANCH   1   2
ATOM      2  C   LIG A   1      -0.978  -1.392   0.472  0.00  0.00    +0.000 C 
BRANCH   2   3
ATOM      3  C   LIG A   1      -2.305  -0.636   0.392  0.00  0.00    +0.000 C 
BRANCH   3   4
ATOM      4  C   LIG A   1      -2.331   0.599  -0.522  0.00  0.00    +0.004 C 
BRANCH   4   5
ATOM      5  C   LIG A   1      -1.486   1.796  -0.106  0.00  0.00    +0.027 C 
BRANCH   5   7
ATOM      6  C   LIG A   1       0.895   1.306   0.474  0.00  0.00    -0.027 C 
ATOM      7  C   LIG A   1      -0.007   1.713  -0.400  0.00  0.00    -0.031 C 
BRANCH   6   8
ATOM      8  C   LIG A   1       2.395   1.306   0.302  0.00  0.00    +0.054 C 
BRANCH   8  10
ATOM      9  C   LIG A   1       2.845   3.662   1.187  0.00  0.00    -0.031 C 
ATOM     10  C   LIG A   1       2.932   2.705   0.246  0.00  0.00    -0.027 C 
BRANCH   9  11
ATOM     11  C   LIG A   1       2.245   3.545   2.564  0.00  0.00    +0.026 C 
BRANCH  11  13
ATOM     12  C   LIG A   1       4.465   2.922   3.637  0.00  0.00    +0.004 C 
ATOM     13  C   LIG A   1       3.272   3.868   3.655  0.00  0.00    +0.001 C 
ENDBRANCH  11  13
ENDBRANCH   9  11
ENDBRANCH   8  10
ENDBRANCH   6   8
ENDBRANCH   5   7
ENDBRANCH   4   5
ENDBRANCH   3   4
ENDBRANCH   2   3
ENDBRANCH   1   2
BRANCH   1  14
ATOM     14  C   LIG A   1      -1.973  -3.777   0.594  0.00  0.00    +0.005 C 
BRANCH  14  15
ATOM     15  C   LIG A   1      -1.572  -4.267  -0.808  0.00  0.00    +0.035 C 
BRANCH  15  16
ATOM     16  C   LIG A   1      -1.548  -3.249  -1.926  0.00  0.00    -0.041 A 
ATOM     17  C   LIG A   1      -2.691  -2.514  -2.280  0.00  0.00    +0.049 A 
ATOM     18  C   LIG A   1      -2.612  -1.528  -3.266  0.00  0.00    +0.121 A 
ATOM     19  C   LIG A   1      -1.419  -1.267  -3.931  0.00  0.00    +0.090 A 
ATOM     20  C   LIG A   1      -0.290  -2.001  -3.591  0.00  0.00    +0.121 A 
ATOM     21  C   LIG A   1      -0.344  -2.981  -2.601  0.00  0.00    +0.049 A 
BRANCH  18  22
ATOM     22  O   LIG A   1      -3.684  -0.735  -3.563  0.00  0.00    -0.507 OA
ATOM     23  H   LIG A   1      -4.410  -0.956  -2.957  0.00  0.00    +0.292 HD
ENDBRANCH  18  22
BRANCH  20  24
ATOM     24  O   LIG A   1       0.910  -1.780  -4.201  0.00  0.00    -0.507 OA
ATOM     25  H   LIG A   1       0.769  -1.142  -4.920  0.00  0.00    +0.292 HD
ENDBRANCH  20  24
ENDBRANCH  15  16
ENDBRANCH  14  15
ENDBRANCH   1  14
TORSDOF 14
