REMARK  Name = NuBBE_589
REMARK  4 active torsions:
REMARK  status: ('A' for Active; 'I' for Inactive)
REMARK    1  A    between atoms: O_1  and  C_2
REMARK    2  A    between atoms: C_2  and  C_19
REMARK    3  A    between atoms: C_10  and  C_15
REMARK    4  A    between atoms: C_12  and  C_14
REMARK                            x       y       z     vdW  Elec       q    Type
REMARK                         _______ _______ _______ _____ _____    ______ ____
ROOT
ATOM      1  C   LIG A   1       0.684  -0.243  -0.552  0.00  0.00    +0.122 C 
ATOM      2  C   LIG A   1       1.208   0.659   0.563  0.00  0.00    +0.037 A 
ATOM      3  C   LIG A   1       0.977   2.035   0.544  0.00  0.00    +0.173 A 
ATOM      4  C   LIG A   1       1.416   2.881   1.537  0.00  0.00    +0.167 A 
ATOM      5  C   LIG A   1       2.138   2.421   2.612  0.00  0.00    +0.050 A 
ATOM      6  C   LIG A   1       2.413   1.055   2.665  0.00  0.00    +0.008 A 
ATOM      7  C   LIG A   1       1.949   0.169   1.660  0.00  0.00    -0.037 A 
ATOM      8  C   LIG A   1       2.328  -1.287   1.769  0.00  0.00    +0.039 C 
ATOM      9  C   LIG A   1       1.367  -2.219   1.026  0.00  0.00    -0.004 C 
ATOM     10  C   LIG A   1       1.145  -1.743  -0.432  0.00  0.00    +0.030 C 
ATOM     11  C   LIG A   1       2.407  -2.046  -1.267  0.00  0.00    +0.011 C 
ATOM     12  C   LIG A   1       0.070  -2.418   1.814  0.00  0.00    +0.008 C 
ATOM     13  O   LIG A   1       1.063   4.176   1.321  0.00  0.00    -0.453 OA
ATOM     14  C   LIG A   1       0.325   4.056   0.091  0.00  0.00    +0.466 C 
ATOM     15  O   LIG A   1       0.311   2.714  -0.437  0.00  0.00    -0.452 OA
ENDROOT
BRANCH   1  16
ATOM     16  C   LIG A   1      -0.847  -0.188  -0.766  0.00  0.00    -0.008 A 
ATOM     17  C   LIG A   1      -1.373  -0.469  -2.048  0.00  0.00    +0.056 A 
ATOM     18  C   LIG A   1      -2.734  -0.377  -2.248  0.00  0.00    +0.167 A 
ATOM     19  C   LIG A   1      -3.592  -0.043  -1.230  0.00  0.00    +0.166 A 
ATOM     20  C   LIG A   1      -3.136   0.215   0.041  0.00  0.00    +0.050 A 
ATOM     21  C   LIG A   1      -1.756   0.143   0.270  0.00  0.00    +0.010 A 
ATOM     22  O   LIG A   1      -4.888   0.004  -1.638  0.00  0.00    -0.453 OA
ATOM     23  C   LIG A   1      -4.742  -0.310  -3.039  0.00  0.00    +0.466 C 
ATOM     24  O   LIG A   1      -3.380  -0.584  -3.427  0.00  0.00    -0.453 OA
ENDBRANCH   1  16
BRANCH   1  25
ATOM     25  O   LIG A   1       1.262   0.300  -1.760  0.00  0.00    -0.379 OA
ATOM     26  H   LIG A   1       0.908   1.205  -1.838  0.00  0.00    +0.211 HD
ENDBRANCH   1  25
TORSDOF 2
