REMARK  Name = NuBBE_2016
REMARK  9 active torsions:
REMARK  status: ('A' for Active; 'I' for Inactive)
REMARK    1  A    between atoms: C_3  and  O_5
REMARK    2  A    between atoms: O_5  and  C_6
REMARK    3  A    between atoms: C_8  and  C_9
REMARK    4  A    between atoms: C_9  and  C_10
REMARK    5  A    between atoms: C_12  and  C_14
REMARK    6  A    between atoms: C_15  and  C_17
REMARK    7  A    between atoms: C_26  and  O_30
REMARK    8  A    between atoms: C_27  and  O_29
REMARK    9  A    between atoms: O_30  and  C_31
REMARK                            x       y       z     vdW  Elec       q    Type
REMARK                         _______ _______ _______ _____ _____    ______ ____
ROOT
ATOM      1  O   LIG A   1      -2.628   0.550   1.123  0.00  0.00    -0.291 OA
ATOM      2  C   LIG A   1      -1.528   0.014   1.063  0.00  0.00    +0.196 C 
ATOM      3  C   LIG A   1      -1.399  -1.533   1.079  0.00  0.00    +0.187 C 
ATOM      4  C   LIG A   1       0.036  -2.029   0.826  0.00  0.00    +0.049 C 
ATOM      5  C   LIG A   1       1.196  -1.081   1.275  0.00  0.00    +0.009 C 
ATOM      6  C   LIG A   1       1.669  -0.302  -0.013  0.00  0.00    +0.006 C 
ATOM      7  C   LIG A   1       3.107   0.242   0.021  0.00  0.00    +0.009 C 
ATOM      8  C   LIG A   1       0.648   0.878  -0.163  0.00  0.00    +0.065 C 
ATOM      9  C   LIG A   1      -0.230   0.841   1.134  0.00  0.00    +0.162 C 
ATOM     10  C   LIG A   1       0.639   0.057   2.148  0.00  0.00    +0.161 C 
ENDROOT
BRANCH   8  11
ATOM     11  C   LIG A   1      -0.045   0.928  -1.532  0.00  0.00    -0.037 A 
ATOM     12  C   LIG A   1      -0.822  -0.138  -2.041  0.00  0.00    +0.008 A 
ATOM     13  C   LIG A   1      -1.445  -0.089  -3.295  0.00  0.00    +0.050 A 
ATOM     14  C   LIG A   1      -1.254   1.033  -4.057  0.00  0.00    +0.166 A 
ATOM     15  O   LIG A   1      -1.758   1.240  -5.301  0.00  0.00    -0.453 OA
ATOM     16  C   LIG A   1      -1.191   2.528  -5.606  0.00  0.00    +0.466 C 
ATOM     17  O   LIG A   1      -0.407   3.081  -4.524  0.00  0.00    -0.453 OA
ATOM     18  C   LIG A   1      -0.487   2.077  -3.607  0.00  0.00    +0.167 A 
ATOM     19  C   LIG A   1       0.121   2.058  -2.361  0.00  0.00    +0.053 A 
ENDBRANCH   8  11
BRANCH   3  20
ATOM     20  O   LIG A   1      -2.222  -2.238   0.154  0.00  0.00    -0.372 OA
ATOM     21  C   LIG A   1      -3.622  -2.074   0.342  0.00  0.00    +0.195 C 
ENDBRANCH   3  20
BRANCH  10  22
ATOM     22  O   LIG A   1       1.672   0.878   2.686  0.00  0.00    -0.388 OA
ATOM     23  H   LIG A   1       1.227   1.703   2.970  0.00  0.00    +0.210 HD
ENDBRANCH  10  22
BRANCH   9  24
ATOM     24  O   LIG A   1      -0.442   2.136   1.722  0.00  0.00    -0.366 OA
ATOM     25  C   LIG A   1      -1.077   3.092   0.881  0.00  0.00    +0.195 C 
ENDBRANCH   9  24
BRANCH   5  26
ATOM     26  C   LIG A   1       2.314  -1.892   1.982  0.00  0.00    +0.036 C 
BRANCH  26  27
ATOM     27  C   LIG A   1       1.867  -2.607   3.239  0.00  0.00    -0.034 C 
ATOM     28  C   LIG A   1       2.415  -2.439   4.449  0.00  0.00    +0.004 C 
ENDBRANCH  26  27
ENDBRANCH   5  26
TORSDOF 6
