REMARK  Name = NuBBE_1591
REMARK  12 active torsions:
REMARK  status: ('A' for Active; 'I' for Inactive)
REMARK    1  A    between atoms: C_2  and  C_3
REMARK    2  A    between atoms: C_2  and  O_4
REMARK    3  A    between atoms: O_4  and  C_5
REMARK    4  A    between atoms: C_9  and  C_10
REMARK    5  A    between atoms: C_9  and  C_11
REMARK    6  A    between atoms: C_14  and  O_15
REMARK    7  A    between atoms: O_15  and  C_16
REMARK    8  A    between atoms: C_19  and  C_20
REMARK    9  A    between atoms: C_23  and  O_24
REMARK   10  A    between atoms: O_24  and  C_25
REMARK   11  A    between atoms: C_26  and  O_27
REMARK   12  A    between atoms: O_27  and  C_28
REMARK                            x       y       z     vdW  Elec       q    Type
REMARK                         _______ _______ _______ _____ _____    ______ ____
ROOT
ATOM      1  C   LIG A   1      -1.460   0.502  -2.167  0.00  0.00    +0.157 A 
ATOM      2  C   LIG A   1      -0.899  -0.478  -3.008  0.00  0.00    +0.064 A 
ATOM      3  C   LIG A   1      -1.591  -1.067  -4.164  0.00  0.00    +0.015 C 
ATOM      4  C   LIG A   1      -0.864  -1.752  -5.060  0.00  0.00    +0.020 C 
ATOM      5  C   LIG A   1       0.632  -1.864  -4.916  0.00  0.00    +0.124 C 
ATOM      6  C   LIG A   1       1.167  -3.189  -5.482  0.00  0.00    +0.060 C 
ATOM      7  C   LIG A   1       1.345  -0.700  -5.618  0.00  0.00    +0.060 C 
ATOM      8  O   LIG A   1       1.000  -1.873  -3.531  0.00  0.00    -0.478 OA
ATOM      9  C   LIG A   1       0.355  -1.017  -2.675  0.00  0.00    +0.177 A 
ATOM     10  C   LIG A   1       0.962  -0.741  -1.437  0.00  0.00    +0.206 A 
ATOM     11  C   LIG A   1       0.343   0.182  -0.565  0.00  0.00    +0.188 A 
ATOM     12  O   LIG A   1       0.896   0.345   0.696  0.00  0.00    -0.451 OA
ATOM     13  C   LIG A   1       0.265   1.192   1.590  0.00  0.00    +0.140 A 
ATOM     14  C   LIG A   1      -0.792   1.953   1.312  0.00  0.00    +0.098 A 
ATOM     15  C   LIG A   1      -0.839   0.840  -0.947  0.00  0.00    +0.111 A 
ATOM     16  C   LIG A   1      -1.452   1.804   0.011  0.00  0.00    +0.197 A 
ATOM     17  O   LIG A   1      -2.487   2.402  -0.172  0.00  0.00    -0.287 OA
ENDROOT
BRANCH  13  18
ATOM     18  C   LIG A   1       0.759   1.158   2.972  0.00  0.00    +0.021 A 
ATOM     19  C   LIG A   1       1.725   2.050   3.419  0.00  0.00    +0.015 A 
ATOM     20  C   LIG A   1       2.130   2.016   4.753  0.00  0.00    +0.050 A 
ATOM     21  C   LIG A   1       1.546   1.130   5.673  0.00  0.00    +0.162 A 
ATOM     22  C   LIG A   1       0.556   0.227   5.242  0.00  0.00    +0.162 A 
ATOM     23  C   LIG A   1       0.183   0.258   3.885  0.00  0.00    +0.061 A 
BRANCH  21  24
ATOM     24  O   LIG A   1       2.128   1.202   6.910  0.00  0.00    -0.491 OA
ATOM     25  C   LIG A   1       1.263   1.245   8.036  0.00  0.00    +0.277 C 
ENDBRANCH  21  24
BRANCH  22  26
ATOM     26  O   LIG A   1       0.003  -0.657   6.139  0.00  0.00    -0.491 OA
ATOM     27  C   LIG A   1      -0.998  -1.550   5.631  0.00  0.00    +0.277 C 
ENDBRANCH  22  26
ENDBRANCH  13  18
BRANCH  10  28
ATOM     28  O   LIG A   1       2.146  -1.311  -1.014  0.00  0.00    -0.488 OA
ATOM     29  C   LIG A   1       2.436  -2.624  -1.506  0.00  0.00    +0.277 C 
ENDBRANCH  10  28
BRANCH   1  30
ATOM     30  O   LIG A   1      -2.723   1.025  -2.519  0.00  0.00    -0.424 OA
BRANCH  30  32
ATOM     31  O   LIG A   1      -1.817   3.149  -2.889  0.00  0.00    -0.251 OA
ATOM     32  C   LIG A   1      -2.779   2.401  -2.760  0.00  0.00    +0.309 C 
ATOM     33  C   LIG A   1      -4.216   2.824  -2.881  0.00  0.00    +0.136 C 
ENDBRANCH  30  32
ENDBRANCH   1  30
TORSDOF 6
