REMARK  Name = NuBBE_261
REMARK  12 active torsions:
REMARK  status: ('A' for Active; 'I' for Inactive)
REMARK    1  A    between atoms: C_1  and  O_2
REMARK    2  A    between atoms: O_2  and  C_3
REMARK    3  A    between atoms: C_4  and  O_5
REMARK    4  A    between atoms: C_6  and  O_7
REMARK    5  A    between atoms: O_7  and  C_8
REMARK    6  A    between atoms: C_10  and  C_11
REMARK    7  A    between atoms: C_19  and  C_21
REMARK    8  A    between atoms: C_23  and  O_24
REMARK    9  A    between atoms: O_24  and  C_25
REMARK   10  A    between atoms: C_26  and  O_27
REMARK   11  A    between atoms: C_28  and  O_29
REMARK   12  A    between atoms: O_29  and  C_30
REMARK                            x       y       z     vdW  Elec       q    Type
REMARK                         _______ _______ _______ _____ _____    ______ ____
ROOT
ATOM      1  C   LIG A   1       1.024   1.766  -0.963  0.00  0.00    +0.154 C 
ATOM      2  O   LIG A   1       0.893   1.525   0.445  0.00  0.00    -0.371 OA
ATOM      3  C   LIG A   1       2.032   0.759   0.827  0.00  0.00    +0.167 C 
ATOM      4  C   LIG A   1       2.360  -0.167  -0.337  0.00  0.00    +0.056 C 
ATOM      5  C   LIG A   1       1.713   0.518  -1.545  0.00  0.00    +0.056 C 
ATOM      6  C   LIG A   1       0.809  -0.556  -2.132  0.00  0.00    +0.167 C 
ATOM      7  O   LIG A   1       0.523  -1.468  -1.073  0.00  0.00    -0.371 OA
ATOM      8  C   LIG A   1       1.733  -1.578  -0.314  0.00  0.00    +0.154 C 
ENDROOT
BRANCH   1  13
ATOM      9  C   LIG A   1      -2.717   2.048  -1.617  0.00  0.00    +0.165 A 
ATOM     10  C   LIG A   1      -2.730   2.828  -2.776  0.00  0.00    +0.201 A 
ATOM     11  C   LIG A   1      -1.546   3.367  -3.309  0.00  0.00    +0.165 A 
ATOM     12  C   LIG A   1      -0.336   3.022  -2.708  0.00  0.00    +0.056 A 
ATOM     13  C   LIG A   1      -0.300   2.192  -1.567  0.00  0.00    -0.011 A 
ATOM     14  C   LIG A   1      -1.508   1.729  -1.018  0.00  0.00    +0.056 A 
BRANCH   9  16
ATOM     15  C   LIG A   1      -4.117   1.435   0.182  0.00  0.00    +0.277 C 
ATOM     16  O   LIG A   1      -3.952   1.596  -1.223  0.00  0.00    -0.491 OA
ENDBRANCH   9  16
BRANCH  10  17
ATOM     17  O   LIG A   1      -3.943   3.003  -3.383  0.00  0.00    -0.501 OA
ATOM     18  H   LIG A   1      -4.569   2.464  -2.863  0.00  0.00    +0.292 HD
ENDBRANCH  10  17
BRANCH  11  19
ATOM     19  O   LIG A   1      -1.483   4.170  -4.420  0.00  0.00    -0.491 OA
ATOM     20  C   LIG A   1      -2.615   5.012  -4.646  0.00  0.00    +0.277 C 
ENDBRANCH  11  19
ENDBRANCH   1  13
BRANCH   8  21
ATOM     21  C   LIG A   1       1.504  -2.234   1.029  0.00  0.00    -0.011 A 
ATOM     22  C   LIG A   1       2.576  -2.365   1.923  0.00  0.00    +0.056 A 
ATOM     23  C   LIG A   1       2.363  -2.816   3.227  0.00  0.00    +0.165 A 
ATOM     24  C   LIG A   1       1.085  -3.256   3.598  0.00  0.00    +0.201 A 
ATOM     25  C   LIG A   1       0.026  -3.250   2.687  0.00  0.00    +0.165 A 
ATOM     26  C   LIG A   1       0.239  -2.712   1.415  0.00  0.00    +0.056 A 
BRANCH  23  27
ATOM     27  O   LIG A   1       3.333  -2.840   4.200  0.00  0.00    -0.491 OA
ATOM     28  C   LIG A   1       4.419  -1.939   3.984  0.00  0.00    +0.277 C 
ENDBRANCH  23  27
BRANCH  24  29
ATOM     29  O   LIG A   1       0.848  -3.649   4.892  0.00  0.00    -0.501 OA
ATOM     30  H   LIG A   1       1.567  -3.261   5.421  0.00  0.00    +0.292 HD
ENDBRANCH  24  29
BRANCH  25  31
ATOM     31  O   LIG A   1      -1.196  -3.670   3.142  0.00  0.00    -0.491 OA
ATOM     32  C   LIG A   1      -2.040  -4.282   2.174  0.00  0.00    +0.277 C 
ENDBRANCH  25  31
ENDBRANCH   8  21
TORSDOF 8
