@<TRIPOS>MOLECULE
NuBBE_2306
 49 52 0 0 0
SMALL
GASTEIGER

@<TRIPOS>ATOM
      1 C           1.3706    1.5779    3.4436 C.ar    1  LIG1       -0.0158
      2 C           0.6644    1.5099    4.6221 C.ar    1  LIG1        0.1662
      3 C          -0.6939    1.3021    4.6404 C.ar    1  LIG1        0.1666
      4 C          -1.4242    1.1503    3.4784 C.ar    1  LIG1       -0.0095
      5 C          -0.7409    1.2147    2.2495 C.ar    1  LIG1       -0.0031
      6 C          -1.5080    1.0336    0.9488 C.3     1  LIG1        0.1320
      7 H          -2.5099    1.4628    1.0874 H       1  LIG1        0.0790
      8 C          -1.5874   -0.4287    0.4901 C.3     1  LIG1        0.0260
      9 H          -1.1505   -1.1157    1.2254 H       1  LIG1        0.0387
     10 C          -0.7843   -0.4042   -0.7650 C.2     1  LIG1        0.0039
     11 C          -0.3790   -1.4439   -1.5000 C.2     1  LIG1       -0.0375
     12 C           0.3672   -1.2857   -2.8051 C.3     1  LIG1        0.1564
     13 C           0.4928    0.2288   -3.2218 C.2     1  LIG1        0.2366
     14 O           0.8998    0.5592   -4.3486 O.2     1  LIG1       -0.2852
     15 C           0.1742    1.3206   -2.2209 C.2     1  LIG1        0.2079
     16 C          -0.4739    0.9497   -1.0951 C.2     1  LIG1        0.1698
     17 O          -0.8946    1.8109   -0.1070 O.2     1  LIG1       -0.4796
     18 O           0.5737    2.5871   -2.5767 O.2     1  LIG1       -0.4885
     19 C           0.3915    3.6604   -1.6623 C.3     1  LIG1        0.0791
     20 C           1.8301   -1.7986   -2.6418 C.3     1  LIG1        0.0053
     21 C           1.9834   -3.2448   -2.2321 C.2     1  LIG1       -0.0876
     22 C           2.5894   -3.6538   -1.1095 C.2     1  LIG1       -0.1025
     23 O          -0.4262   -2.0905   -3.6873 O.3     1  LIG1       -0.3642
     24 C          -0.0176   -2.2136   -5.0370 C.3     1  LIG1        0.0382
     25 C          -3.0291   -0.8534    0.2123 C.3     1  LIG1       -0.0546
     26 C           0.6597    1.4232    2.2506 C.ar    1  LIG1       -0.0514
     27 O          -1.1934    1.2667    5.9054 O.3     1  LIG1       -0.4526
     28 C           0.0109    1.4589    6.6788 C.3     1  LIG1        0.2332
     29 O           1.1915    1.6303    5.8691 O.3     1  LIG1       -0.4526
     30 H           2.4414    1.7455    3.4406 H       1  LIG1        0.0655
     31 H          -2.4966    0.9894    3.5291 H       1  LIG1        0.0659
     32 H          -0.6314   -2.4559   -1.1979 H       1  LIG1        0.0609
     33 H           0.9030    4.5392   -2.0653 H       1  LIG1        0.0660
     34 H           0.8440    3.4459   -0.6880 H       1  LIG1        0.0660
     35 H          -0.6708    3.9061   -1.5676 H       1  LIG1        0.0660
     36 H           2.3718   -1.6732   -3.5885 H       1  LIG1        0.0343
     37 H           2.3548   -1.1563   -1.9187 H       1  LIG1        0.0343
     38 H           1.5804   -3.9897   -2.9154 H       1  LIG1        0.0567
     39 H           3.0140   -2.9545   -0.3958 H       1  LIG1        0.0532
     40 H           2.6745   -4.7123   -0.8806 H       1  LIG1        0.0532
     41 H          -0.7829   -2.8041   -5.5522 H       1  LIG1        0.0524
     42 H           0.9285   -2.7527   -5.1210 H       1  LIG1        0.0524
     43 H           0.0339   -1.2510   -5.5455 H       1  LIG1        0.0524
     44 H          -3.6313   -0.7888    1.1239 H       1  LIG1        0.0237
     45 H          -3.0720   -1.8880   -0.1462 H       1  LIG1        0.0237
     46 H          -3.4975   -0.2187   -0.5494 H       1  LIG1        0.0237
     47 H           1.2070    1.4730    1.3115 H       1  LIG1        0.0623
     48 H           0.1553    0.5854    7.3254 H       1  LIG1        0.1166
     49 H          -0.1124    2.3465    7.3099 H       1  LIG1        0.1166
@<TRIPOS>BOND
     1     1     2   ar
     2     2     3   ar
     3     3     4   ar
     4     4     5   ar
     5     6     8    1
     6     8     9    1
     7     8    10    1
     8    10    11    2
     9    11    12    1
    10    12    13    1
    11    13    14    2
    12    13    15    1
    13    15    16    2
    14    10    16    1
    15    16    17    1
    16     6    17    1
    17    15    18    1
    18    18    19    1
    19    20    21    1
    20    21    22    2
    21    23    24    1
    22     8    25    1
    23     5    26   ar
    24     1    26   ar
    25     3    27    1
    26    27    28    1
    27    28    29    1
    28     2    29    1
    29     6     7    1
    30     6     5    1
    31    12    23    1
    32    12    20    1
    33     1    30    1
    34     4    31    1
    35    11    32    1
    36    19    33    1
    37    19    34    1
    38    19    35    1
    39    20    36    1
    40    20    37    1
    41    21    38    1
    42    22    39    1
    43    22    40    1
    44    24    41    1
    45    24    42    1
    46    24    43    1
    47    25    44    1
    48    25    45    1
    49    25    46    1
    50    26    47    1
    51    28    48    1
    52    28    49    1
