@<TRIPOS>MOLECULE
NuBBE_1818
 29 30 0 0 0
SMALL
GASTEIGER

@<TRIPOS>ATOM
      1 O          -2.3589    0.5634   -0.1321 O.3     1  LIG1       -0.5053
      2 C          -1.0022    0.3805    0.0115 C.ar    1  LIG1        0.1387
      3 C          -0.4594   -0.9344    0.0204 C.ar    1  LIG1        0.0658
      4 C           0.9373   -1.0703    0.2050 C.ar    1  LIG1       -0.0071
      5 C           1.7365    0.0733    0.3715 C.ar    1  LIG1       -0.0500
      6 C           1.1941    1.3684    0.3500 C.ar    1  LIG1       -0.0359
      7 C          -0.1920    1.5170    0.1714 C.ar    1  LIG1        0.0621
      8 C          -0.8003    2.8758    0.1724 C.2     1  LIG1        0.1639
      9 O          -0.5073    3.6793    1.0559 O.2     1  LIG1       -0.2922
     10 C          -1.7370    3.2443   -0.9488 C.3     1  LIG1       -0.0013
     11 C           2.1130    2.5444    0.5437 C.3     1  LIG1       -0.0389
     12 C           1.5253   -2.3476    0.2262 C.ar    1  LIG1       -0.0121
     13 C           0.7435   -3.4867    0.0656 C.ar    1  LIG1        0.1209
     14 C          -0.6257   -3.3892   -0.1162 C.ar    1  LIG1        0.0220
     15 C          -1.2155   -2.1266   -0.1363 C.ar    1  LIG1        0.1315
     16 O          -2.5777   -2.0307   -0.3122 O.3     1  LIG1       -0.5059
     17 O           1.2914   -4.7352    0.0819 O.3     1  LIG1       -0.5066
     18 H          -2.7623   -0.3277   -0.2005 H       1  LIG1        0.2922
     19 H           2.8099   -0.0424    0.5223 H       1  LIG1        0.0626
     20 H          -1.6268    2.5684   -1.8010 H       1  LIG1        0.0309
     21 H          -1.4899    4.2517   -1.2969 H       1  LIG1        0.0309
     22 H          -2.7684    3.2245   -0.5887 H       1  LIG1        0.0309
     23 H           3.1613    2.2551    0.4113 H       1  LIG1        0.0278
     24 H           2.0023    2.9500    1.5539 H       1  LIG1        0.0278
     25 H           1.9080    3.3262   -0.1947 H       1  LIG1        0.0278
     26 H           2.5986   -2.4436    0.3696 H       1  LIG1        0.0660
     27 H          -1.2094   -4.2958   -0.2371 H       1  LIG1        0.0691
     28 H          -2.9377   -2.9330   -0.3959 H       1  LIG1        0.2922
     29 H           2.2493   -4.6591    0.2276 H       1  LIG1        0.2921
@<TRIPOS>BOND
     1     1     2    1
     2     2     3   ar
     3     3     4   ar
     4     4     5   ar
     5     5     6   ar
     6     6     7   ar
     7     2     7   ar
     8     7     8    1
     9     8     9    2
    10     8    10    1
    11     6    11    1
    12     4    12   ar
    13    12    13   ar
    14    13    14   ar
    15    14    15   ar
    16     3    15   ar
    17    15    16    1
    18    13    17    1
    19     1    18    1
    20     5    19    1
    21    10    20    1
    22    10    21    1
    23    10    22    1
    24    11    23    1
    25    11    24    1
    26    11    25    1
    27    12    26    1
    28    14    27    1
    29    16    28    1
    30    17    29    1
