@<TRIPOS>MOLECULE
NuBBE_1170
 69 73 0 0 0
SMALL
GASTEIGER

@<TRIPOS>ATOM
      1 O          -1.4056    0.3765   -1.8206 O.3     1  LIG1       -0.5058
      2 C          -0.7512   -0.5566   -1.0545 C.ar    1  LIG1        0.1353
      3 C          -0.1109   -0.1321    0.1414 C.ar    1  LIG1        0.0686
      4 C           0.5700   -1.1039    0.8994 C.ar    1  LIG1        0.1520
      5 C           0.6187   -2.4283    0.4497 C.ar    1  LIG1        0.1062
      6 C          -0.0012   -2.8079   -0.7617 C.ar    1  LIG1        0.1404
      7 C          -0.7312   -1.8868   -1.5259 C.ar    1  LIG1        0.0677
      8 C          -1.4799   -2.3375   -2.7930 C.3     1  LIG1        0.1188
      9 H          -1.7482   -3.3938   -2.6636 H       1  LIG1        0.0675
     10 C          -0.6656   -2.1746   -4.1124 C.3     1  LIG1        0.1139
     11 H           0.2547   -2.7671   -4.0618 H       1  LIG1        0.0649
     12 O          -0.2907   -0.8056   -4.3617 O.3     1  LIG1       -0.3862
     13 C          -1.5069   -2.6349   -5.3197 C.3     1  LIG1        0.1117
     14 H          -0.9888   -2.4160   -6.2614 H       1  LIG1        0.0647
     15 O          -1.7139   -4.0549   -5.2941 O.3     1  LIG1       -0.3865
     16 C          -2.8642   -1.9177   -5.3283 C.3     1  LIG1        0.1068
     17 H          -2.7194   -0.8464   -5.5133 H       1  LIG1        0.0643
     18 C          -3.5495   -2.1049   -3.9739 C.3     1  LIG1        0.0770
     19 O          -2.7369   -1.6271   -2.9007 O.3     1  LIG1       -0.3664
     20 O          -3.6812   -2.4467   -6.3813 O.3     1  LIG1       -0.3869
     21 O           0.1013   -4.0955   -1.2310 O.3     1  LIG1       -0.5054
     22 C           1.3217   -3.4115    1.2801 C.ar    1  LIG1        0.1966
     23 O           1.3785   -4.6019    0.9548 O.2     1  LIG1       -0.2869
     24 C           1.9501   -2.9426    2.5132 C.ar    1  LIG1        0.0288
     25 C           1.8766   -1.6449    2.8301 C.ar    1  LIG1        0.1394
     26 O           1.1859   -0.7081    2.0703 O.2     1  LIG1       -0.4540
     27 C           2.5084   -1.1270    4.0686 C.ar    1  LIG1        0.0211
     28 C           1.9512   -0.0291    4.7469 C.ar    1  LIG1       -0.0059
     29 C           2.5335    0.4291    5.9281 C.ar    1  LIG1        0.1589
     30 O           2.0147    1.4842    6.6283 O.3     1  LIG1       -0.5033
     31 C           3.6703   -0.1854    6.4439 C.ar    1  LIG1        0.1583
     32 C           4.2508   -1.2558    5.7887 C.ar    1  LIG1       -0.0159
     33 C           3.6761   -1.7176    4.6012 C.ar    1  LIG1       -0.0474
     34 O           4.2272    0.2645    7.6054 O.3     1  LIG1       -0.5033
     35 C          -0.0847    1.3425    0.5630 C.3     1  LIG1        0.1193
     36 H          -0.0592    1.3996    1.6585 H       1  LIG1        0.0676
     37 O          -1.3304    1.9484    0.1390 O.3     1  LIG1       -0.3609
     38 C          -1.4358    3.3449    0.4443 C.3     1  LIG1        0.1108
     39 H          -1.3769    3.4869    1.5313 H       1  LIG1        0.0646
     40 C          -2.8210    3.8248   -0.0174 C.3     1  LIG1        0.0729
     41 O          -2.9996    5.2085    0.2698 O.3     1  LIG1       -0.3924
     42 C          -0.3153    4.1475   -0.2364 C.3     1  LIG1        0.1117
     43 H          -0.3965    4.0857   -1.3289 H       1  LIG1        0.0647
     44 C           1.0322    3.5854    0.2065 C.3     1  LIG1        0.1121
     45 H           1.2008    3.8008    1.2695 H       1  LIG1        0.0647
     46 C           1.1327    2.0787   -0.0470 C.3     1  LIG1        0.1139
     47 H           1.1968    1.8955   -1.1271 H       1  LIG1        0.0649
     48 O           2.3650    1.6244    0.5296 O.3     1  LIG1       -0.3862
     49 O           2.0977    4.2534   -0.4888 O.3     1  LIG1       -0.3865
     50 O          -0.3356    5.5368    0.1140 O.3     1  LIG1       -0.3865
     51 H          -1.7751    1.0250   -1.1839 H       1  LIG1        0.2922
     52 H          -0.5902   -0.2813   -3.5908 H       1  LIG1        0.2100
     53 H          -2.4358   -4.2329   -5.9302 H       1  LIG1        0.2100
     54 H          -3.8187   -3.1524   -3.7942 H       1  LIG1        0.0587
     55 H          -4.4903   -1.5432   -3.9610 H       1  LIG1        0.0587
     56 H          -3.3649   -2.0434   -7.2110 H       1  LIG1        0.2100
     57 H           0.6054   -4.6336   -0.5773 H       1  LIG1        0.2922
     58 H           2.4480   -3.6962    3.1135 H       1  LIG1        0.0693
     59 H           1.0598    0.4518    4.3571 H       1  LIG1        0.0662
     60 H           1.2293    1.8064    6.1546 H       1  LIG1        0.2923
     61 H           5.1410   -1.7283    6.1934 H       1  LIG1        0.0655
     62 H           4.1646   -2.5496    4.0982 H       1  LIG1        0.0626
     63 H           3.6612    1.0145    7.8753 H       1  LIG1        0.2923
     64 H          -3.6040    3.2501    0.4892 H       1  LIG1        0.0584
     65 H          -2.9466    3.6704   -1.0951 H       1  LIG1        0.0584
     66 H          -3.9378    5.4127    0.0934 H       1  LIG1        0.2095
     67 H           3.0445    2.2541    0.2112 H       1  LIG1        0.2100
     68 H           1.8744    5.2063   -0.4368 H       1  LIG1        0.2100
     69 H          -1.2793    5.8140    0.1233 H       1  LIG1        0.2100
@<TRIPOS>BOND
     1     1     2    1
     2     2     3   ar
     3     3     4   ar
     4     4     5   ar
     5     5     6   ar
     6     6     7   ar
     7     2     7   ar
     8     8    10    1
     9    10    13    1
    10    13    16    1
    11    16    18    1
    12    18    19    1
    13     8    19    1
    14     6    21    1
    15     5    22   ar
    16    22    23    2
    17    22    24   ar
    18    24    25   ar
    19    25    26   ar
    20     4    26   ar
    21    25    27    1
    22    27    28   ar
    23    28    29   ar
    24    29    30    1
    25    29    31   ar
    26    31    32   ar
    27    32    33   ar
    28    27    33   ar
    29    31    34    1
    30     3    35    1
    31    35    36    1
    32    35    37    1
    33    37    38    1
    34    38    39    1
    35    38    40    1
    36    40    41    1
    37    38    42    1
    38    42    44    1
    39    44    45    1
    40    44    46    1
    41    35    46    1
    42    44    49    1
    43     8     9    1
    44     8     7    1
    45    10    12    1
    46    10    11    1
    47    13    15    1
    48    13    14    1
    49    16    20    1
    50    16    17    1
    51    42    50    1
    52    42    43    1
    53    46    48    1
    54    46    47    1
    55     1    51    1
    56    12    52    1
    57    15    53    1
    58    18    54    1
    59    18    55    1
    60    20    56    1
    61    21    57    1
    62    24    58    1
    63    28    59    1
    64    30    60    1
    65    32    61    1
    66    33    62    1
    67    34    63    1
    68    40    64    1
    69    40    65    1
    70    41    66    1
    71    48    67    1
    72    49    68    1
    73    50    69    1
