@<TRIPOS>MOLECULE
NuBBE_1910
 27 30 0 0 0
SMALL
GASTEIGER

@<TRIPOS>ATOM
      1 O          -2.7473    0.8406    0.0085 O.2     1  LIG1       -0.2864
      2 C          -1.5250    0.7991    0.0078 C.ar    1  LIG1        0.2004
      3 C          -0.8007   -0.4776    0.0080 C.ar    1  LIG1        0.0719
      4 C           0.6035   -0.4561    0.0068 C.ar    1  LIG1        0.1843
      5 O           1.3453    0.7049    0.0082 O.2     1  LIG1       -0.4508
      6 C           0.6755    1.9056    0.0070 C.ar    1  LIG1        0.1394
      7 C          -0.7130    2.0217    0.0062 C.ar    1  LIG1        0.0646
      8 C          -1.3283    3.2772    0.0051 C.ar    1  LIG1       -0.0474
      9 C          -0.5436    4.4289    0.0050 C.ar    1  LIG1       -0.0609
     10 C           0.8479    4.3219    0.0060 C.ar    1  LIG1       -0.0582
     11 C           1.4575    3.0631    0.0069 C.ar    1  LIG1       -0.0186
     12 C           1.3089   -1.6648    0.0031 C.ar    1  LIG1        0.2062
     13 O           2.6732   -1.6964    0.0020 O.3     1  LIG1       -0.5008
     14 C           0.5944   -2.8480   -0.0009 C.ar    1  LIG1        0.2111
     15 C          -0.7823   -2.8495    0.0018 C.ar    1  LIG1        0.1708
     16 O          -1.3043   -4.1045   -0.0037 O.3     1  LIG1       -0.4524
     17 C          -0.1015   -4.8994   -0.0259 C.3     1  LIG1        0.2334
     18 O           1.1043   -4.1106   -0.0075 O.3     1  LIG1       -0.4488
     19 C          -1.5135   -1.6829    0.0067 C.ar    1  LIG1       -0.0015
     20 H          -2.4136    3.3566    0.0043 H       1  LIG1        0.0626
     21 H          -1.0181    5.4075    0.0043 H       1  LIG1        0.0618
     22 H           1.4582    5.2224    0.0059 H       1  LIG1        0.0619
     23 H           2.5422    2.9930    0.0072 H       1  LIG1        0.0654
     24 H           2.9900   -0.7760    0.0054 H       1  LIG1        0.2924
     25 H          -0.1069   -5.5138   -0.9338 H       1  LIG1        0.1166
     26 H          -0.1043   -5.5619    0.8473 H       1  LIG1        0.1166
     27 H          -2.5983   -1.7009    0.0082 H       1  LIG1        0.0664
@<TRIPOS>BOND
     1     1     2    2
     2     2     3   ar
     3     3     4   ar
     4     4     5   ar
     5     5     6   ar
     6     6     7   ar
     7     2     7   ar
     8     7     8   ar
     9     8     9   ar
    10     9    10   ar
    11    10    11   ar
    12     6    11   ar
    13     4    12   ar
    14    12    13    1
    15    12    14   ar
    16    14    15   ar
    17    15    16    1
    18    16    17    1
    19    17    18    1
    20    14    18    1
    21    15    19   ar
    22     3    19   ar
    23     8    20    1
    24     9    21    1
    25    10    22    1
    26    11    23    1
    27    13    24    1
    28    17    25    1
    29    17    26    1
    30    19    27    1
