@<TRIPOS>MOLECULE
NuBBE_667
 45 47 0 0 0
SMALL
GASTEIGER

@<TRIPOS>ATOM
      1 O          -2.6673   -1.0419   -0.0979 O.2     1  LIG1       -0.2942
      2 C          -1.4863   -1.3585   -0.0496 C.2     1  LIG1        0.1678
      3 C          -0.6282   -1.2166    1.1690 C.3     1  LIG1        0.0423
      4 C           0.7115   -1.6584    0.5759 C.3     1  LIG1        0.1094
      5 C           1.6839   -2.1317    1.6146 C.2     1  LIG1       -0.0136
      6 C           1.5408   -3.4347    2.3148 C.3     1  LIG1        0.0680
      7 O           2.1714   -4.4485    1.5529 O.3     1  LIG1       -0.3906
      8 C           2.5971   -1.1706    1.8555 C.2     1  LIG1       -0.0513
      9 C           2.3879    0.0283    0.9688 C.3     1  LIG1        0.0829
     10 H           1.8632    0.8239    1.5052 H       1  LIG1        0.0643
     11 O           3.6257    0.5107    0.4908 O.3     1  LIG1       -0.3872
     12 C           1.5811   -0.6191   -0.1463 C.3     1  LIG1        0.0591
     13 H           2.2981   -1.1696   -0.7846 H       1  LIG1        0.0397
     14 C           0.7977    0.2103   -1.1555 C.3     1  LIG1        0.1148
     15 H           1.5041    0.7101   -1.8284 H       1  LIG1        0.0740
     16 O          -0.0731    1.1652   -0.5185 O.3     1  LIG1       -0.4575
     17 C           0.1177    2.4707   -0.8611 C.2     1  LIG1        0.3348
     18 C          -0.9909    3.3616   -0.4040 C.2     1  LIG1        0.0293
     19 C          -0.8507    4.8064   -0.8085 C.3     1  LIG1       -0.0333
     20 C          -2.0534    2.8924    0.2819 C.2     1  LIG1       -0.0774
     21 C          -3.2567    3.6781    0.6995 C.3     1  LIG1       -0.0461
     22 O           1.0593    2.8841   -1.5262 O.2     1  LIG1       -0.2453
     23 C          -0.0674   -0.7530   -2.0155 C.3     1  LIG1        0.0207
     24 C          -0.6727   -1.9184   -1.1995 C.3     1  LIG1        0.1288
     25 C          -1.4146   -2.9347   -2.0422 C.3     1  LIG1       -0.0287
     26 O           0.3637   -2.6087   -0.4325 O.3     1  LIG1       -0.3543
     27 H          -1.0041   -1.9143    1.9234 H       1  LIG1        0.0374
     28 H          -0.6247   -0.1980    1.5602 H       1  LIG1        0.0374
     29 H           0.4886   -3.7009    2.4544 H       1  LIG1        0.0605
     30 H           2.0056   -3.4053    3.3054 H       1  LIG1        0.0605
     31 H           1.8153   -4.3893    0.6489 H       1  LIG1        0.2098
     32 H           3.3880   -1.2395    2.5912 H       1  LIG1        0.0599
     33 H           4.1628   -0.2473    0.2021 H       1  LIG1        0.2102
     34 H           0.1532    5.0522   -1.1672 H       1  LIG1        0.0280
     35 H          -1.0419    5.4734    0.0412 H       1  LIG1        0.0280
     36 H          -1.5549    5.0428   -1.6122 H       1  LIG1        0.0280
     37 H          -2.1077    1.8377    0.5496 H       1  LIG1        0.0574
     38 H          -3.2436    4.7126    0.3403 H       1  LIG1        0.0272
     39 H          -3.3422    3.6955    1.7885 H       1  LIG1        0.0272
     40 H          -4.1582    3.2051    0.2918 H       1  LIG1        0.0272
     41 H           0.5861   -1.1821   -2.7861 H       1  LIG1        0.0333
     42 H          -0.8641   -0.1928   -2.5197 H       1  LIG1        0.0333
     43 H          -2.2563   -2.4831   -2.5760 H       1  LIG1        0.0262
     44 H          -1.8028   -3.7494   -1.4203 H       1  LIG1        0.0262
     45 H          -0.7410   -3.3944   -2.7742 H       1  LIG1        0.0262
@<TRIPOS>BOND
     1     1     2    2
     2     2     3    1
     3     3     4    1
     4     4     5    1
     5     5     6    1
     6     6     7    1
     7     5     8    2
     8     8     9    1
     9     9    12    1
    10    12    13    1
    11     4    12    1
    12    12    14    1
    13    16    17    1
    14    17    18    1
    15    18    19    1
    16    18    20    2
    17    20    21    1
    18    17    22    2
    19    14    23    1
    20    23    24    1
    21    24    25    1
    22     2    24    1
    23    24    26    1
    24     4    26    1
    25     9    11    1
    26     9    10    1
    27    14    16    1
    28    14    15    1
    29     3    27    1
    30     3    28    1
    31     6    29    1
    32     6    30    1
    33     7    31    1
    34     8    32    1
    35    11    33    1
    36    19    34    1
    37    19    35    1
    38    19    36    1
    39    20    37    1
    40    21    38    1
    41    21    39    1
    42    21    40    1
    43    23    41    1
    44    23    42    1
    45    25    43    1
    46    25    44    1
    47    25    45    1
