REMARK  Name = NuBBE_2217
REMARK  5 active torsions:
REMARK  status: ('A' for Active; 'I' for Inactive)
REMARK    1  A    between atoms: C_1  and  C_2
REMARK    2  A    between atoms: C_5  and  O_12
REMARK    3  A    between atoms: C_6  and  C_10
REMARK    4  A    between atoms: C_7  and  O_8
REMARK    5  A    between atoms: O_8  and  C_9
REMARK                            x       y       z     vdW  Elec       q    Type
REMARK                         _______ _______ _______ _____ _____    ______ ____
ROOT
ATOM      1  C   LIG A   1      -2.547   0.195   0.365  0.00  0.00    +0.048 C 
ATOM      2  C   LIG A   1      -1.076  -0.085   0.234  0.00  0.00    -0.001 A 
ATOM      3  C   LIG A   1      -0.618  -1.350  -0.118  0.00  0.00    +0.014 A 
ATOM      4  C   LIG A   1       0.730  -1.583  -0.282  0.00  0.00    +0.108 A 
ATOM      5  C   LIG A   1       1.694  -0.605  -0.119  0.00  0.00    +0.145 A 
ATOM      6  C   LIG A   1       1.271   0.678   0.253  0.00  0.00    +0.098 A 
ATOM      7  C   LIG A   1      -0.114   0.944   0.413  0.00  0.00    +0.137 A 
ATOM      8  C   LIG A   1       0.928  -2.981  -0.607  0.00  0.00    +0.344 C 
ATOM      9  O   LIG A   1       2.016  -3.499  -0.794  0.00  0.00    -0.245 OA
ATOM     10  O   LIG A   1      -0.299  -3.565  -0.648  0.00  0.00    -0.456 OA
ATOM     11  C   LIG A   1      -1.348  -2.617  -0.351  0.00  0.00    +0.269 C 
ENDROOT
BRANCH   7  12
ATOM     12  O   LIG A   1      -0.622   2.143   0.844  0.00  0.00    -0.494 OA
ATOM     13  C   LIG A   1      -0.359   3.252  -0.015  0.00  0.00    +0.277 C 
ENDBRANCH   7  12
BRANCH   6  14
ATOM     14  C   LIG A   1       2.333   1.681   0.506  0.00  0.00    +0.266 C 
ATOM     15  O   LIG A   1       2.190   2.658   1.228  0.00  0.00    -0.295 OA
ENDBRANCH   6  14
BRANCH   5  16
ATOM     16  O   LIG A   1       3.021  -0.891  -0.280  0.00  0.00    -0.505 OA
ATOM     17  H   LIG A   1       3.130  -1.848  -0.481  0.00  0.00    +0.292 HD
ENDBRANCH   5  16
TORSDOF 3
