@<TRIPOS>MOLECULE
NuBBE_271
 80 83 0 0 0
SMALL
GASTEIGER

@<TRIPOS>ATOM
      1 O           1.1822    3.5696    2.6932 O.3     1  LIG1       -0.3924
      2 C           0.1840    4.5697    2.9204 C.3     1  LIG1        0.0731
      3 C          -0.8798    4.5317    1.8160 C.3     1  LIG1        0.1140
      4 H          -0.3572    4.6419    0.8575 H       1  LIG1        0.0647
      5 O          -1.5375    3.2526    1.8349 O.3     1  LIG1       -0.3313
      6 C          -2.5184    3.0736    0.7971 C.3     1  LIG1        0.2310
      7 H          -2.0214    2.4625    0.0469 H       1  LIG1        0.1084
      8 O          -3.6956    2.4159    1.3180 O.3     1  LIG1       -0.4572
      9 C          -3.7803    1.0433    1.2130 C.ar    1  LIG1        0.1657
     10 C          -2.7863    0.2381    0.6575 C.ar    1  LIG1       -0.0090
     11 C          -2.9272   -1.1515    0.5500 C.ar    1  LIG1       -0.0211
     12 C          -1.7982   -1.8796   -0.0141 C.2     1  LIG1       -0.0477
     13 C          -1.8979   -3.0032   -0.7375 C.2     1  LIG1        0.0231
     14 C          -0.6894   -3.6752   -1.2111 C.2     1  LIG1        0.3342
     15 O           0.3440   -2.8101   -1.2999 O.3     1  LIG1       -0.4291
     16 C           1.5426   -3.3559   -1.8386 C.3     1  LIG1        0.2343
     17 H           1.8453   -4.1979   -1.2044 H       1  LIG1        0.1085
     18 O           1.3321   -3.8481   -3.1621 O.3     1  LIG1       -0.3312
     19 C           0.8890   -2.8208   -4.0482 C.3     1  LIG1        0.1140
     20 H           0.0482   -2.2539   -3.6244 H       1  LIG1        0.0647
     21 C           2.0552   -1.8646   -4.2902 C.3     1  LIG1        0.1120
     22 H           2.8885   -2.3968   -4.7655 H       1  LIG1        0.0647
     23 C           2.5226   -1.2724   -2.9519 C.3     1  LIG1        0.1155
     24 H           1.8324   -0.4776   -2.6403 H       1  LIG1        0.0648
     25 C           2.6753   -2.2986   -1.8074 C.3     1  LIG1        0.1495
     26 H           3.6410   -2.7986   -1.9487 H       1  LIG1        0.0686
     27 O           2.7284   -1.5346   -0.5792 O.3     1  LIG1       -0.3596
     28 C           2.8838   -2.2470    0.6547 C.3     1  LIG1        0.1111
     29 H           1.9909   -2.8617    0.8180 H       1  LIG1        0.0646
     30 C           2.9247   -1.1851    1.7685 C.3     1  LIG1        0.1140
     31 H           3.6579   -0.4035    1.5311 H       1  LIG1        0.0648
     32 C           3.2282   -1.8021    3.1352 C.3     1  LIG1        0.1339
     33 H           2.3638   -2.3835    3.4769 H       1  LIG1        0.0671
     34 C           4.4687   -2.7046    3.0471 C.3     1  LIG1        0.1850
     35 H           4.6129   -3.2244    3.9999 H       1  LIG1        0.0935
     36 O           4.3093   -3.6853    2.0251 O.3     1  LIG1       -0.3462
     37 C           4.1426   -3.1126    0.7291 C.3     1  LIG1        0.0795
     38 O           5.6367   -1.9219    2.8257 O.3     1  LIG1       -0.3649
     39 O           3.4521   -0.7539    4.0927 O.3     1  LIG1       -0.3841
     40 O           1.6529   -0.5072    1.8433 O.3     1  LIG1       -0.3864
     41 O           3.7837   -0.6110   -3.1791 O.3     1  LIG1       -0.3863
     42 O           1.7103   -0.7572   -5.1335 O.3     1  LIG1       -0.3865
     43 C           0.3570   -3.4814   -5.3211 C.3     1  LIG1        0.0731
     44 O          -0.0955   -2.4969   -6.2479 O.3     1  LIG1       -0.3924
     45 O          -0.6908   -4.8677   -1.5273 O.2     1  LIG1       -0.2455
     46 C          -4.0619   -1.7760    1.0571 C.ar    1  LIG1       -0.0509
     47 C          -5.0659   -1.0033    1.6328 C.ar    1  LIG1       -0.0160
     48 C          -4.9287    0.3934    1.6982 C.ar    1  LIG1        0.1586
     49 O          -5.9440    1.1224    2.2587 O.3     1  LIG1       -0.5033
     50 C          -2.9362    4.3381   -0.0076 C.3     1  LIG1        0.1454
     51 H          -3.9454    4.2084   -0.4133 H       1  LIG1        0.0683
     52 C          -2.8096    5.6683    0.7476 C.3     1  LIG1        0.1152
     53 H          -2.3563    6.4123    0.0781 H       1  LIG1        0.0648
     54 C          -1.9576    5.5931    2.0162 C.3     1  LIG1        0.1120
     55 H          -2.5914    5.3204    2.8693 H       1  LIG1        0.0647
     56 O          -1.4309    6.8891    2.2995 O.3     1  LIG1       -0.3865
     57 O          -4.0929    6.2178    1.0743 O.3     1  LIG1       -0.3864
     58 O          -2.0531    4.4110   -1.1592 O.3     1  LIG1       -0.3829
     59 H           0.7078    2.7570    2.4386 H       1  LIG1        0.2095
     60 H           0.6968    5.5363    2.9366 H       1  LIG1        0.0584
     61 H          -0.2561    4.3854    3.9053 H       1  LIG1        0.0584
     62 H          -1.8525    0.6475    0.2941 H       1  LIG1        0.0661
     63 H          -0.8262   -1.4355    0.1911 H       1  LIG1        0.0626
     64 H          -2.8375   -3.4861   -0.9747 H       1  LIG1        0.0689
     65 H           4.0580   -3.9460    0.0245 H       1  LIG1        0.0587
     66 H           5.0381   -2.5539    0.4340 H       1  LIG1        0.0587
     67 H           5.5168   -1.1339    3.3920 H       1  LIG1        0.2126
     68 H           2.6945   -0.1425    3.9880 H       1  LIG1        0.2101
     69 H           1.4751   -0.2155    0.9276 H       1  LIG1        0.2100
     70 H           3.6603   -0.0921   -3.9991 H       1  LIG1        0.2100
     71 H           1.0904   -1.0889   -5.8178 H       1  LIG1        0.2100
     72 H          -0.4731   -4.1587   -5.0820 H       1  LIG1        0.0584
     73 H           1.1311   -4.0921   -5.7966 H       1  LIG1        0.0584
     74 H          -0.9890   -2.2231   -5.9674 H       1  LIG1        0.2095
     75 H          -4.1607   -2.8589    1.0347 H       1  LIG1        0.0625
     76 H          -5.9400   -1.5109    2.0318 H       1  LIG1        0.0655
     77 H          -6.6092    0.5037    2.6054 H       1  LIG1        0.2923
     78 H          -2.1869    7.5077    2.2628 H       1  LIG1        0.2100
     79 H          -4.5378    5.6019    1.6860 H       1  LIG1        0.2100
     80 H          -2.4366    5.0502   -1.7861 H       1  LIG1        0.2102
@<TRIPOS>BOND
     1     1     2    1
     2     2     3    1
     3     3     4    1
     4     3     5    1
     5     5     6    1
     6     8     9    1
     7     9    10   ar
     8    10    11   ar
     9    11    12    1
    10    12    13    2
    11    13    14    1
    12    14    15    1
    13    16    18    1
    14    18    19    1
    15    19    20    1
    16    19    21    1
    17    21    23    1
    18    23    24    1
    19    23    25    1
    20    16    25    1
    21    28    30    1
    22    30    31    1
    23    30    32    1
    24    32    33    1
    25    32    34    1
    26    34    35    1
    27    34    36    1
    28    36    37    1
    29    28    37    1
    30    34    38    1
    31    32    39    1
    32    30    40    1
    33    23    41    1
    34    19    43    1
    35    43    44    1
    36    14    45    2
    37    11    46   ar
    38    46    47   ar
    39    47    48   ar
    40     9    48   ar
    41    48    49    1
    42     6    50    1
    43    50    51    1
    44    50    52    1
    45    52    54    1
    46    54    55    1
    47     3    54    1
    48    54    56    1
    49    50    58    1
    50     6     8    1
    51     6     7    1
    52    16    17    1
    53    16    15    1
    54    21    42    1
    55    21    22    1
    56    25    27    1
    57    25    26    1
    58    28    29    1
    59    28    27    1
    60    52    57    1
    61    52    53    1
    62     1    59    1
    63     2    60    1
    64     2    61    1
    65    10    62    1
    66    12    63    1
    67    13    64    1
    68    37    65    1
    69    37    66    1
    70    38    67    1
    71    39    68    1
    72    40    69    1
    73    41    70    1
    74    42    71    1
    75    43    72    1
    76    43    73    1
    77    44    74    1
    78    46    75    1
    79    47    76    1
    80    49    77    1
    81    56    78    1
    82    57    79    1
    83    58    80    1
