REMARK  Name = NuBBE_454
REMARK  18 active torsions:
REMARK  status: ('A' for Active; 'I' for Inactive)
REMARK    1  A    between atoms: C_1  and  C_2
REMARK    2  A    between atoms: C_4  and  O_6
REMARK    3  A    between atoms: O_6  and  C_7
REMARK    4  A    between atoms: C_7  and  C_8
REMARK    5  A    between atoms: C_12  and  C_14
REMARK    6  A    between atoms: C_14  and  C_15
REMARK    7  A    between atoms: C_15  and  C_16
REMARK    8  A    between atoms: C_16  and  C_17
REMARK    9  A    between atoms: C_17  and  C_18
REMARK   10  A    between atoms: C_18  and  C_19
REMARK   11  A    between atoms: C_19  and  C_20
REMARK   12  A    between atoms: C_20  and  C_21
REMARK   13  A    between atoms: C_21  and  C_22
REMARK   14  A    between atoms: C_22  and  C_23
REMARK   15  A    between atoms: C_23  and  C_24
REMARK   16  A    between atoms: C_24  and  O_25
REMARK   17  A    between atoms: C_24  and  C_26
REMARK   18  A    between atoms: C_26  and  O_27
REMARK                            x       y       z     vdW  Elec       q    Type
REMARK                         _______ _______ _______ _____ _____    ______ ____
ROOT
ATOM      1  C   LIG A   1       2.978   1.930   0.191  0.00  0.00    +0.002 C 
ENDROOT
BRANCH   1   2
ATOM      2  C   LIG A   1       1.482   2.148   0.439  0.00  0.00    +0.000 C 
BRANCH   2   3
ATOM      3  C   LIG A   1       0.836   1.020   1.255  0.00  0.00    -0.000 C 
BRANCH   3   4
ATOM      4  C   LIG A   1      -0.655   1.270   1.480  0.00  0.00    -0.000 C 
BRANCH   4   5
ATOM      5  C   LIG A   1      -1.337   0.139   2.271  0.00  0.00    -0.000 C 
BRANCH   5   6
ATOM      6  C   LIG A   1      -2.841   0.413   2.402  0.00  0.00    -0.000 C 
BRANCH   6   7
ATOM      7  C   LIG A   1      -3.622  -0.650   3.193  0.00  0.00    +0.000 C 
BRANCH   7   8
ATOM      8  C   LIG A   1      -5.107  -0.248   3.264  0.00  0.00    +0.003 C 
BRANCH   8   9
ATOM      9  C   LIG A   1      -5.995  -1.237   4.035  0.00  0.00    +0.034 C 
BRANCH   9  10
ATOM     10  C   LIG A   1      -7.465  -0.778   4.060  0.00  0.00    +0.140 C 
BRANCH  10  11
ATOM     11  O   LIG A   1      -7.992  -0.701   2.727  0.00  0.00    -0.390 OA
ATOM     12  H   LIG A   1      -7.818  -1.551   2.286  0.00  0.00    +0.210 HD
ENDBRANCH  10  11
BRANCH  10  13
ATOM     13  C   LIG A   1      -8.377  -1.713   4.870  0.00  0.00    +0.187 C 
BRANCH  13  14
ATOM     14  O   LIG A   1      -9.719  -1.224   4.839  0.00  0.00    -0.393 OA
ATOM     15  H   LIG A   1      -9.887  -0.961   3.912  0.00  0.00    +0.209 HD
ENDBRANCH  13  14
ENDBRANCH  10  13
ENDBRANCH   9  10
ENDBRANCH   8   9
ENDBRANCH   7   8
ENDBRANCH   6   7
ENDBRANCH   5   6
ENDBRANCH   4   5
ENDBRANCH   3   4
ENDBRANCH   2   3
ENDBRANCH   1   2
BRANCH   1  16
ATOM     16  C   LIG A   1       3.228   0.654  -0.624  0.00  0.00    +0.019 C 
BRANCH  16  22
ATOM     17  C   LIG A   1       3.118  -1.579  -3.100  0.00  0.00    +0.028 C 
ATOM     18  C   LIG A   1       4.549  -1.032  -2.987  0.00  0.00    +0.092 C 
ATOM     19  C   LIG A   1       4.877   0.198  -3.893  0.00  0.00    +0.193 C 
ATOM     20  C   LIG A   1       4.740   1.544  -3.179  0.00  0.00    +0.048 C 
ATOM     21  C   LIG A   1       5.347   1.497  -1.784  0.00  0.00    +0.022 C 
ATOM     22  C   LIG A   1       4.709   0.395  -0.941  0.00  0.00    +0.054 C 
ATOM     23  N   LIG A   1       4.932  -0.921  -1.567  0.00  0.00    -0.307 NA
ATOM     24  H   LIG A   1       5.928  -1.135  -1.496  0.00  0.00    +0.123 HD
BRANCH  19  25
ATOM     25  O   LIG A   1       3.992   0.230  -5.030  0.00  0.00    -0.460 OA
BRANCH  25  26
ATOM     26  C   LIG A   1       4.324  -0.602  -6.060  0.00  0.00    +0.304 C 
ATOM     27  C   LIG A   1       3.082  -0.939  -6.842  0.00  0.00    +0.136 C 
ATOM     28  O   LIG A   1       5.419  -1.077  -6.262  0.00  0.00    -0.251 OA
ENDBRANCH  25  26
ENDBRANCH  19  25
ENDBRANCH  16  22
ENDBRANCH   1  16
TORSDOF 16
