REMARK  Name = NuBBE_662
REMARK  6 active torsions:
REMARK  status: ('A' for Active; 'I' for Inactive)
REMARK    1  A    between atoms: C_1  and  O_2
REMARK    2  A    between atoms: O_2  and  C_3
REMARK    3  A    between atoms: C_8  and  C_9
REMARK    4  A    between atoms: C_9  and  C_10
REMARK    5  A    between atoms: C_11  and  C_12
REMARK    6  A    between atoms: C_11  and  C_13
REMARK                            x       y       z     vdW  Elec       q    Type
REMARK                         _______ _______ _______ _____ _____    ______ ____
ROOT
ATOM      1  C   LIG A   1       0.876  -1.573   1.173  0.00  0.00    +0.127 A 
ATOM      2  C   LIG A   1       2.197  -1.407   1.616  0.00  0.00    +0.046 A 
ATOM      3  C   LIG A   1       2.769  -0.137   1.710  0.00  0.00    +0.015 A 
ATOM      4  C   LIG A   1       2.025   0.986   1.364  0.00  0.00    +0.018 A 
ATOM      5  C   LIG A   1       0.704   0.820   0.944  0.00  0.00    +0.146 A 
ATOM      6  C   LIG A   1       0.095  -0.445   0.856  0.00  0.00    +0.041 A 
ATOM      7  O   LIG A   1      -0.064   1.960   0.600  0.00  0.00    -0.422 OA
ATOM      8  C   LIG A   1       0.457   3.242   0.658  0.00  0.00    +0.337 A 
ATOM      9  O   LIG A   1      -0.202   4.236   0.356  0.00  0.00    -0.245 OA
ATOM     10  C   LIG A   1       1.851   3.377   1.108  0.00  0.00    +0.092 A 
ATOM     11  C   LIG A   1       2.595   2.319   1.444  0.00  0.00    +0.018 A 
ENDROOT
BRANCH   1  13
ATOM     12  C   LIG A   1       1.145  -3.901   0.819  0.00  0.00    +0.277 C 
ATOM     13  O   LIG A   1       0.273  -2.803   1.079  0.00  0.00    -0.495 OA
ENDBRANCH   1  13
BRANCH   6  14
ATOM     14  C   LIG A   1      -1.352  -0.565   0.419  0.00  0.00    +0.069 C 
BRANCH  14  15
ATOM     15  C   LIG A   1      -1.516  -0.713  -1.073  0.00  0.00    -0.023 C 
ATOM     16  C   LIG A   1      -2.197   0.092  -1.915  0.00  0.00    -0.079 C 
ATOM     17  C   LIG A   1      -2.947   1.336  -1.520  0.00  0.00    +0.038 C 
ATOM     18  C   LIG A   1      -2.247  -0.200  -3.394  0.00  0.00    +0.038 C 
ENDBRANCH  14  15
ENDBRANCH   6  14
TORSDOF 3
