@<TRIPOS>MOLECULE
NuBBE_1577
 62 65 0 0 0
SMALL
GASTEIGER

@<TRIPOS>ATOM
      1 C          -2.2624    0.4806   -1.3696 C.3     1  LIG1       -0.0589
      2 C          -0.6988    0.5902   -1.2887 C.3     1  LIG1       -0.0217
      3 C          -0.3180    1.3538    0.0591 C.3     1  LIG1       -0.0212
      4 H           0.7104    1.7120   -0.0918 H       1  LIG1        0.0314
      5 C          -0.2859    0.3902    1.2856 C.3     1  LIG1        0.0168
      6 H          -1.2692   -0.1046    1.2987 H       1  LIG1        0.0351
      7 C           0.7317   -0.7329    1.0787 C.3     1  LIG1        0.1440
      8 H           0.7927   -1.3103    2.0041 H       1  LIG1        0.0775
      9 C           0.1911   -1.6600   -0.0367 C.3     1  LIG1        0.1438
     10 H           0.8896   -2.4820   -0.2102 H       1  LIG1        0.0775
     11 C          -0.1320   -0.9276   -1.3986 C.3     1  LIG1        0.0105
     12 H          -1.0277   -1.4715   -1.7318 H       1  LIG1        0.0348
     13 C           0.8661   -1.2953   -2.5832 C.3     1  LIG1       -0.0281
     14 C           0.4654   -2.6832   -3.1636 C.3     1  LIG1       -0.0594
     15 C           2.3483   -1.4133   -2.1704 C.3     1  LIG1       -0.0594
     16 C           0.7742   -0.2912   -3.7459 C.3     1  LIG1       -0.0475
     17 C           0.9393    1.1296   -3.2523 C.3     1  LIG1       -0.0520
     18 C          -0.3024    1.5234   -2.4830 C.3     1  LIG1       -0.0469
     19 O          -1.0579   -2.2827    0.4046 O.3     1  LIG1       -0.4575
     20 C          -1.0062   -3.1403    1.4714 C.2     1  LIG1        0.3043
     21 O          -0.0049   -3.4657    2.0653 O.2     1  LIG1       -0.2512
     22 C          -2.3814   -3.6386    1.7951 C.3     1  LIG1        0.0332
     23 O           2.0434   -0.2528    0.7439 O.3     1  LIG1       -0.4575
     24 C           2.8714   -0.0369    1.8063 C.2     1  LIG1        0.3043
     25 O           2.5614   -0.1926    2.9829 O.2     1  LIG1       -0.2512
     26 C           4.2264    0.4266    1.3760 C.3     1  LIG1        0.0332
     27 C          -0.2364    1.0789    2.6876 C.3     1  LIG1        0.0493
     28 H          -0.2421    0.3112    3.4713 H       1  LIG1        0.0428
     29 C           0.9202    2.0324    2.9687 C.2     1  LIG1        0.1282
     30 O           1.7111    2.4597    2.1313 O.2     1  LIG1       -0.3004
     31 C          -1.4762    1.8971    2.7606 C.ar    1  LIG1        0.0038
     32 C          -1.8720    2.5989    1.6481 C.ar    1  LIG1        0.1090
     33 C          -1.1793    2.6603    0.3325 C.3     1  LIG1        0.0095
     34 O          -3.0316    3.2556    1.8772 O.2     1  LIG1       -0.4675
     35 C          -3.3813    2.9581    3.1633 C.ar    1  LIG1        0.0924
     36 C          -2.4569    2.1158    3.7475 C.ar    1  LIG1       -0.0198
     37 H          -2.7015    0.1339   -0.4311 H       1  LIG1        0.0235
     38 H          -2.5745   -0.2069   -2.1650 H       1  LIG1        0.0235
     39 H          -2.7330    1.4354   -1.6291 H       1  LIG1        0.0235
     40 H           1.1099   -2.9647   -4.0049 H       1  LIG1        0.0235
     41 H          -0.5655   -2.6773   -3.5391 H       1  LIG1        0.0235
     42 H           0.5394   -3.4721   -2.4081 H       1  LIG1        0.0235
     43 H           2.5260   -2.2383   -1.4756 H       1  LIG1        0.0235
     44 H           2.7277   -0.4957   -1.7185 H       1  LIG1        0.0235
     45 H           2.9734   -1.6240   -3.0486 H       1  LIG1        0.0235
     46 H          -0.1900   -0.3899   -4.2638 H       1  LIG1        0.0271
     47 H           1.5416   -0.5049   -4.5012 H       1  LIG1        0.0271
     48 H           1.0563    1.7999   -4.1125 H       1  LIG1        0.0266
     49 H           1.8360    1.2566   -2.6386 H       1  LIG1        0.0266
     50 H          -1.1228    1.5707   -3.2118 H       1  LIG1        0.0271
     51 H          -0.1705    2.5586   -2.1449 H       1  LIG1        0.0271
     52 H          -2.6593   -4.4302    1.0957 H       1  LIG1        0.0342
     53 H          -3.1055   -2.8172    1.7490 H       1  LIG1        0.0342
     54 H          -2.3905   -4.0304    2.8123 H       1  LIG1        0.0342
     55 H           4.3179    0.4398    0.2874 H       1  LIG1        0.0342
     56 H           4.9616   -0.2725    1.7818 H       1  LIG1        0.0342
     57 H           4.4134    1.4343    1.7575 H       1  LIG1        0.0342
     58 H           0.9824    2.3815    4.0157 H       1  LIG1        0.1033
     59 H          -0.4933    3.5166    0.3589 H       1  LIG1        0.0347
     60 H          -1.8950    2.8816   -0.4595 H       1  LIG1        0.0347
     61 H          -4.3014    3.4079    3.5091 H       1  LIG1        0.1029
     62 H          -2.5026    1.7142    4.7508 H       1  LIG1        0.0652
@<TRIPOS>BOND
     1     1     2    1
     2     2     3    1
     3     3     4    1
     4     3     5    1
     5     5     6    1
     6     5     7    1
     7     7     8    1
     8     7     9    1
     9     9    11    1
    10    11    12    1
    11     2    11    1
    12    11    13    1
    13    13    14    1
    14    13    15    1
    15    13    16    1
    16    16    17    1
    17    17    18    1
    18     2    18    1
    19    19    20    1
    20    20    21    2
    21    20    22    1
    22     7    23    1
    23    23    24    1
    24    24    25    2
    25    24    26    1
    26     5    27    1
    27    29    30    2
    28    27    31    1
    29    31    32   ar
    30    32    33    1
    31     3    33    1
    32    32    34   ar
    33    34    35   ar
    34    35    36   ar
    35    31    36   ar
    36     9    19    1
    37     9    10    1
    38    27    29    1
    39    27    28    1
    40     1    37    1
    41     1    38    1
    42     1    39    1
    43    14    40    1
    44    14    41    1
    45    14    42    1
    46    15    43    1
    47    15    44    1
    48    15    45    1
    49    16    46    1
    50    16    47    1
    51    17    48    1
    52    17    49    1
    53    18    50    1
    54    18    51    1
    55    22    52    1
    56    22    53    1
    57    22    54    1
    58    26    55    1
    59    26    56    1
    60    26    57    1
    61    29    58    1
    62    33    59    1
    63    33    60    1
    64    35    61    1
    65    36    62    1
