REMARK  Name = NuBBE_1344
REMARK  8 active torsions:
REMARK  status: ('A' for Active; 'I' for Inactive)
REMARK    1  A    between atoms: C_1  and  O_2
REMARK    2  A    between atoms: O_2  and  C_3
REMARK    3  A    between atoms: N_9  and  C_10
REMARK    4  A    between atoms: C_10  and  O_11
REMARK    5  A    between atoms: O_11  and  C_12
REMARK    6  A    between atoms: C_12  and  C_13
REMARK    7  A    between atoms: C_19  and  C_20
REMARK    8  A    between atoms: C_19  and  C_21
REMARK                            x       y       z     vdW  Elec       q    Type
REMARK                         _______ _______ _______ _____ _____    ______ ____
ROOT
ATOM      1  C   LIG A   1      -2.049   0.873   1.704  0.00  0.00    +0.144 A 
ATOM      2  C   LIG A   1      -0.893   0.295   1.113  0.00  0.00    +0.100 A 
ATOM      3  C   LIG A   1       0.016   1.153   0.456  0.00  0.00    +0.045 A 
ATOM      4  C   LIG A   1      -0.271   2.525   0.329  0.00  0.00    +0.014 A 
ATOM      5  C   LIG A   1      -1.429   3.067   0.867  0.00  0.00    +0.004 A 
ATOM      6  C   LIG A   1      -2.305   2.248   1.569  0.00  0.00    +0.048 A 
ATOM      7  N   LIG A   1      -0.576  -1.108   1.142  0.00  0.00    -0.270 N 
ATOM      8  C   LIG A   1       0.681  -1.595   0.786  0.00  0.00    +0.265 A 
ATOM      9  C   LIG A   1       1.611  -0.660   0.088  0.00  0.00    +0.082 A 
ATOM     10  C   LIG A   1       1.269   0.622  -0.098  0.00  0.00    +0.143 A 
ATOM     11  O   LIG A   1       2.041   1.533  -0.790  0.00  0.00    -0.481 OA
ATOM     12  C   LIG A   1       3.303   1.124  -1.357  0.00  0.00    +0.123 C 
ATOM     13  C   LIG A   1       4.364   2.017  -0.709  0.00  0.00    +0.060 C 
ATOM     14  C   LIG A   1       3.216   1.408  -2.859  0.00  0.00    +0.060 C 
ATOM     15  C   LIG A   1       3.658  -0.327  -1.134  0.00  0.00    +0.020 C 
ATOM     16  C   LIG A   1       2.858  -1.153  -0.453  0.00  0.00    +0.016 C 
ATOM     17  O   LIG A   1       1.026  -2.767   0.953  0.00  0.00    -0.267 OA
ENDROOT
BRANCH   1  19
ATOM     18  C   LIG A   1      -4.225   0.407   2.551  0.00  0.00    +0.277 C 
ATOM     19  O   LIG A   1      -2.828   0.113   2.543  0.00  0.00    -0.493 OA
ENDBRANCH   1  19
BRANCH   7  20
ATOM     20  C   LIG A   1      -1.582  -2.122   1.411  0.00  0.00    +0.362 C 
BRANCH  20  21
ATOM     21  O   LIG A   1      -1.643  -3.036   0.300  0.00  0.00    -0.443 OA
BRANCH  21  22
ATOM     22  C   LIG A   1      -2.532  -2.727  -0.670  0.00  0.00    +0.306 C 
ATOM     23  C   LIG A   1      -2.383  -3.673  -1.816  0.00  0.00    +0.136 C 
ATOM     24  O   LIG A   1      -3.340  -1.802  -0.644  0.00  0.00    -0.251 OA
ENDBRANCH  21  22
ENDBRANCH  20  21
ENDBRANCH   7  20
TORSDOF 4
