REMARK  Name = NuBBE_2013
REMARK  7 active torsions:
REMARK  status: ('A' for Active; 'I' for Inactive)
REMARK    1  A    between atoms: C_1  and  O_2
REMARK    2  A    between atoms: C_1  and  C_4
REMARK    3  A    between atoms: O_2  and  C_3
REMARK    4  A    between atoms: C_8  and  C_15
REMARK    5  A    between atoms: C_10  and  O_14
REMARK    6  A    between atoms: C_15  and  C_17
REMARK    7  A    between atoms: C_18  and  C_21
REMARK                            x       y       z     vdW  Elec       q    Type
REMARK                         _______ _______ _______ _____ _____    ______ ____
ROOT
ATOM      1  C   LIG A   1      -1.242  -1.728  -0.626  0.00  0.00    -0.011 A 
ATOM      2  C   LIG A   1      -0.486  -0.544  -0.461  0.00  0.00    +0.029 A 
ATOM      3  C   LIG A   1       0.918  -0.581  -0.298  0.00  0.00    -0.033 A 
ATOM      4  C   LIG A   1       1.722   0.670   0.012  0.00  0.00    +0.046 C 
ATOM      5  C   LIG A   1       0.982   2.020  -0.065  0.00  0.00    +0.055 C 
ATOM      6  C   LIG A   1      -0.471   1.858   0.398  0.00  0.00    +0.193 C 
ATOM      7  C   LIG A   1      -1.141   0.785  -0.450  0.00  0.00    +0.193 C 
ATOM      8  O   LIG A   1      -2.166   1.010  -1.081  0.00  0.00    -0.289 OA
ATOM      9  C   LIG A   1       1.582  -1.828  -0.358  0.00  0.00    -0.047 A 
ATOM     10  C   LIG A   1       0.838  -2.994  -0.571  0.00  0.00    +0.004 A 
ATOM     11  C   LIG A   1      -0.548  -2.945  -0.696  0.00  0.00    +0.007 A 
ATOM     12  C   LIG A   1       3.079  -1.942  -0.238  0.00  0.00    +0.044 C 
ENDROOT
BRANCH   5  13
ATOM     13  C   LIG A   1       1.777   3.083   0.710  0.00  0.00    -0.073 C 
ATOM     14  C   LIG A   1       2.708   3.849   0.113  0.00  0.00    +0.008 C 
ATOM     15  C   LIG A   1       1.498   3.246   2.182  0.00  0.00    +0.038 C 
ENDBRANCH   5  13
BRANCH   6  16
ATOM     16  O   LIG A   1      -1.187   3.087   0.250  0.00  0.00    -0.383 OA
ATOM     17  H   LIG A   1      -1.946   2.897  -0.339  0.00  0.00    +0.210 HD
ENDBRANCH   6  16
BRANCH   1  18
ATOM     18  C   LIG A   1      -2.755  -1.732  -0.740  0.00  0.00    +0.195 C 
BRANCH  18  19
ATOM     19  O   LIG A   1      -3.281  -2.966  -0.232  0.00  0.00    -0.378 OA
ATOM     20  C   LIG A   1      -4.692  -3.044  -0.381  0.00  0.00    +0.194 C 
ENDBRANCH  18  19
ENDBRANCH   1  18
TORSDOF 4
