REMARK  Name = NuBBE_1825
REMARK  9 active torsions:
REMARK  status: ('A' for Active; 'I' for Inactive)
REMARK    1  A    between atoms: C_5  and  O_6
REMARK    2  A    between atoms: C_7  and  C_8
REMARK    3  A    between atoms: C_8  and  C_9
REMARK    4  A    between atoms: C_10  and  C_11
REMARK    5  A    between atoms: C_10  and  C_12
REMARK    6  A    between atoms: C_13  and  O_14
REMARK    7  A    between atoms: O_14  and  C_15
REMARK    8  A    between atoms: C_19  and  C_20
REMARK    9  A    between atoms: C_19  and  C_21
REMARK                            x       y       z     vdW  Elec       q    Type
REMARK                         _______ _______ _______ _____ _____    ______ ____
ROOT
ATOM      1  O   LIG A   1      -3.246  -1.327  -0.613  0.00  0.00    -0.292 OA
ATOM      2  C   LIG A   1      -2.069  -1.516  -0.298  0.00  0.00    +0.174 C 
ATOM      3  C   LIG A   1      -1.452  -2.883  -0.259  0.00  0.00    +0.132 C 
ATOM      4  C   LIG A   1      -1.196  -0.367  -0.011  0.00  0.00    +0.101 A 
ATOM      5  C   LIG A   1      -1.652   0.956  -0.102  0.00  0.00    +0.138 A 
ATOM      6  C   LIG A   1      -0.792   2.033   0.175  0.00  0.00    +0.040 A 
ATOM      7  C   LIG A   1       0.554   1.757   0.492  0.00  0.00    +0.131 A 
ATOM      8  C   LIG A   1       0.997   0.433   0.591  0.00  0.00    +0.092 A 
ATOM      9  C   LIG A   1       0.118  -0.625   0.361  0.00  0.00    +0.139 A 
ATOM     10  O   LIG A   1       0.634  -1.878   0.526  0.00  0.00    -0.480 OA
ATOM     11  C   LIG A   1      -0.312  -2.943   0.766  0.00  0.00    +0.140 C 
ATOM     12  C   LIG A   1      -0.818  -2.830   2.222  0.00  0.00    +0.061 C 
ENDROOT
BRANCH  11  13
ATOM     13  C   LIG A   1       0.436  -4.285   0.622  0.00  0.00    -0.004 A 
ATOM     14  C   LIG A   1      -0.236  -5.511   0.803  0.00  0.00    +0.007 A 
ATOM     15  C   LIG A   1       0.443  -6.729   0.707  0.00  0.00    +0.000 A 
ATOM     16  C   LIG A   1       1.805  -6.750   0.427  0.00  0.00    +0.000 A 
ATOM     17  C   LIG A   1       2.489  -5.554   0.234  0.00  0.00    +0.000 A 
ATOM     18  C   LIG A   1       1.812  -4.335   0.330  0.00  0.00    +0.007 A 
ENDBRANCH  11  13
BRANCH   5  19
ATOM     19  O   LIG A   1      -2.948   1.243  -0.455  0.00  0.00    -0.505 OA
ATOM     20  H   LIG A   1      -3.424   0.399  -0.620  0.00  0.00    +0.292 HD
ENDBRANCH   5  19
BRANCH   7  21
ATOM     21  O   LIG A   1       1.360   2.834   0.765  0.00  0.00    -0.495 OA
ATOM     22  C   LIG A   1       2.737   2.676   0.440  0.00  0.00    +0.277 C 
ENDBRANCH   7  21
BRANCH   6  23
ATOM     23  C   LIG A   1      -1.299   3.461   0.118  0.00  0.00    +0.069 C 
BRANCH  23  24
ATOM     24  C   LIG A   1      -1.136   4.094  -1.241  0.00  0.00    -0.023 C 
ATOM     25  C   LIG A   1      -0.441   5.204  -1.560  0.00  0.00    -0.079 C 
ATOM     26  C   LIG A   1       0.336   6.047  -0.586  0.00  0.00    +0.038 C 
ATOM     27  C   LIG A   1      -0.395   5.706  -2.979  0.00  0.00    +0.038 C 
ENDBRANCH  23  24
ENDBRANCH   6  23
TORSDOF 5
