REMARK  Name = NuBBE_1893
REMARK  7 active torsions:
REMARK  status: ('A' for Active; 'I' for Inactive)
REMARK    1  A    between atoms: C_1  and  O_2
REMARK    2  A    between atoms: O_2  and  C_3
REMARK    3  A    between atoms: C_4  and  C_5
REMARK    4  A    between atoms: C_10  and  O_11
REMARK    5  A    between atoms: O_11  and  C_12
REMARK    6  A    between atoms: C_13  and  O_14
REMARK    7  A    between atoms: O_14  and  C_15
REMARK                            x       y       z     vdW  Elec       q    Type
REMARK                         _______ _______ _______ _____ _____    ______ ____
ROOT
ATOM      1  C   LIG A   1      -0.612  -0.691  -0.597  0.00  0.00    +0.068 A 
ATOM      2  C   LIG A   1      -1.802  -0.086  -0.503  0.00  0.00    +0.208 A 
ATOM      3  O   LIG A   1      -2.021   1.269  -0.382  0.00  0.00    -0.462 OA
ATOM      4  C   LIG A   1      -0.926   2.076  -0.190  0.00  0.00    +0.142 A 
ATOM      5  C   LIG A   1      -1.162   3.420   0.107  0.00  0.00    +0.096 A 
ATOM      6  C   LIG A   1      -0.085   4.283   0.357  0.00  0.00    +0.165 A 
ATOM      7  C   LIG A   1       1.232   3.780   0.307  0.00  0.00    +0.162 A 
ATOM      8  C   LIG A   1       1.460   2.445  -0.038  0.00  0.00    +0.064 A 
ATOM      9  C   LIG A   1       0.377   1.595  -0.273  0.00  0.00    +0.068 A 
ATOM     10  C   LIG A   1       0.597   0.175  -0.602  0.00  0.00    +0.200 A 
ATOM     11  O   LIG A   1       1.718  -0.247  -0.860  0.00  0.00    -0.286 OA
ENDROOT
BRANCH   1  13
ATOM     12  C   LIG A   1      -0.398  -2.988   0.444  0.00  0.00    +0.132 A 
ATOM     13  C   LIG A   1      -0.500  -2.158  -0.710  0.00  0.00    +0.034 A 
ATOM     14  C   LIG A   1      -0.493  -2.735  -1.993  0.00  0.00    +0.062 A 
ATOM     15  C   LIG A   1      -0.384  -4.106  -2.091  0.00  0.00    +0.167 A 
ATOM     16  C   LIG A   1      -0.279  -4.901  -0.977  0.00  0.00    +0.170 A 
ATOM     17  O   LIG A   1      -0.179  -6.222  -1.284  0.00  0.00    -0.453 OA
ATOM     18  C   LIG A   1      -0.240  -6.169  -2.724  0.00  0.00    +0.466 C 
ATOM     19  O   LIG A   1      -0.367  -4.828  -3.242  0.00  0.00    -0.453 OA
ATOM     20  C   LIG A   1      -0.282  -4.378   0.297  0.00  0.00    +0.095 A 
BRANCH  12  22
ATOM     21  C   LIG A   1      -0.316  -3.183   2.818  0.00  0.00    +0.277 C 
ATOM     22  O   LIG A   1      -0.424  -2.352   1.663  0.00  0.00    -0.494 OA
ENDBRANCH  12  22
ENDBRANCH   1  13
BRANCH   6  23
ATOM     23  O   LIG A   1      -0.209   5.614   0.671  0.00  0.00    -0.491 OA
ATOM     24  C   LIG A   1      -1.520   6.157   0.759  0.00  0.00    +0.277 C 
ENDBRANCH   6  23
BRANCH   7  25
ATOM     25  O   LIG A   1       2.249   4.668   0.567  0.00  0.00    -0.491 OA
ATOM     26  C   LIG A   1       3.420   4.111   1.160  0.00  0.00    +0.277 C 
ENDBRANCH   7  25
TORSDOF 4
