REMARK  Name = NuBBE_161
REMARK  11 active torsions:
REMARK  status: ('A' for Active; 'I' for Inactive)
REMARK    1  A    between atoms: O_1  and  C_2
REMARK    2  A    between atoms: C_4  and  O_5
REMARK    3  A    between atoms: C_8  and  O_9
REMARK    4  A    between atoms: O_9  and  C_10
REMARK    5  A    between atoms: C_12  and  O_24
REMARK    6  A    between atoms: C_14  and  O_23
REMARK    7  A    between atoms: C_16  and  O_22
REMARK    8  A    between atoms: C_18  and  C_21
REMARK    9  A    between atoms: C_25  and  C_29
REMARK   10  A    between atoms: C_31  and  O_32
REMARK   11  A    between atoms: C_33  and  O_36
REMARK                            x       y       z     vdW  Elec       q    Type
REMARK                         _______ _______ _______ _____ _____    ______ ____
ROOT
ATOM      1  C   LIG A   1      -0.461  -5.419   2.550  0.00  0.00    +0.124 A 
ATOM      2  C   LIG A   1       0.090  -5.783   1.325  0.00  0.00    +0.091 A 
ATOM      3  C   LIG A   1       0.311  -4.796   0.364  0.00  0.00    +0.135 A 
ATOM      4  C   LIG A   1      -0.022  -3.455   0.626  0.00  0.00    +0.109 A 
ATOM      5  C   LIG A   1       0.074  -2.386  -0.379  0.00  0.00    +0.238 A 
ATOM      6  C   LIG A   1       0.070  -0.964   0.114  0.00  0.00    +0.214 A 
ATOM      7  C   LIG A   1      -0.424  -0.792   1.365  0.00  0.00    +0.181 A 
ATOM      8  O   LIG A   1      -0.870  -1.818   2.189  0.00  0.00    -0.451 OA
ATOM      9  C   LIG A   1      -0.544  -3.107   1.866  0.00  0.00    +0.146 A 
ATOM     10  C   LIG A   1      -0.774  -4.091   2.829  0.00  0.00    +0.092 A 
ATOM     11  O   LIG A   1       0.068  -2.684  -1.572  0.00  0.00    -0.283 OA
ENDROOT
BRANCH   7  12
ATOM     12  C   LIG A   1      -0.610   0.525   2.013  0.00  0.00    +0.025 A 
ATOM     13  C   LIG A   1       0.410   1.102   2.788  0.00  0.00    +0.060 A 
ATOM     14  C   LIG A   1       0.172   2.303   3.460  0.00  0.00    +0.159 A 
ATOM     15  C   LIG A   1      -1.058   2.946   3.354  0.00  0.00    +0.158 A 
ATOM     16  C   LIG A   1      -2.083   2.383   2.611  0.00  0.00    +0.050 A 
ATOM     17  C   LIG A   1      -1.864   1.165   1.955  0.00  0.00    +0.015 A 
BRANCH  14  18
ATOM     18  O   LIG A   1       1.117   2.886   4.261  0.00  0.00    -0.503 OA
ATOM     19  H   LIG A   1       1.853   2.260   4.369  0.00  0.00    +0.292 HD
ENDBRANCH  14  18
BRANCH  15  20
ATOM     20  O   LIG A   1      -1.275   4.129   4.000  0.00  0.00    -0.503 OA
ATOM     21  H   LIG A   1      -0.436   4.322   4.464  0.00  0.00    +0.292 HD
ENDBRANCH  15  20
ENDBRANCH   7  12
BRANCH   1  22
ATOM     22  O   LIG A   1      -0.707  -6.345   3.519  0.00  0.00    -0.506 OA
ATOM     23  H   LIG A   1      -0.475  -7.230   3.188  0.00  0.00    +0.292 HD
ENDBRANCH   1  22
BRANCH   3  24
ATOM     24  O   LIG A   1       0.891  -5.152  -0.821  0.00  0.00    -0.506 OA
ATOM     25  H   LIG A   1       0.822  -6.109  -0.963  0.00  0.00    +0.292 HD
ENDBRANCH   3  24
BRANCH   6  26
ATOM     26  O   LIG A   1       0.553   0.113  -0.634  0.00  0.00    -0.453 OA
BRANCH  26  27
ATOM     27  C   LIG A   1       0.478   0.075  -2.073  0.00  0.00    +0.340 C 
ATOM     28  C   LIG A   1      -0.840   0.716  -2.553  0.00  0.00    +0.214 C 
ATOM     29  C   LIG A   1      -0.776   2.236  -2.423  0.00  0.00    +0.180 C 
ATOM     30  C   LIG A   1       0.461   2.794  -3.130  0.00  0.00    +0.174 C 
ATOM     31  C   LIG A   1       1.723   2.104  -2.596  0.00  0.00    +0.150 C 
ATOM     32  O   LIG A   1       1.641   0.688  -2.668  0.00  0.00    -0.334 OA
ATOM     33  C   LIG A   1       2.940   2.518  -3.422  0.00  0.00    +0.040 C 
BRANCH  30  34
ATOM     34  O   LIG A   1       0.496   4.216  -2.932  0.00  0.00    -0.387 OA
ATOM     35  H   LIG A   1       0.833   4.391  -2.036  0.00  0.00    +0.210 HD
ENDBRANCH  30  34
BRANCH  29  36
ATOM     36  O   LIG A   1      -1.959   2.808  -3.014  0.00  0.00    -0.386 OA
ATOM     37  H   LIG A   1      -1.750   3.753  -3.156  0.00  0.00    +0.210 HD
ENDBRANCH  29  36
BRANCH  28  38
ATOM     38  O   LIG A   1      -1.110   0.389  -3.928  0.00  0.00    -0.383 OA
ATOM     39  H   LIG A   1      -1.864   0.960  -4.179  0.00  0.00    +0.210 HD
ENDBRANCH  28  38
ENDBRANCH  26  27
ENDBRANCH   6  26
TORSDOF 10
