@<TRIPOS>MOLECULE
NuBBE_2436
 42 46 0 0 0
SMALL
GASTEIGER

@<TRIPOS>ATOM
      1 C          -3.5719   -0.8055   -2.7294 C.3     1  LIG1        0.0788
      2 O          -2.8648   -0.6243   -1.5064 O.3     1  LIG1       -0.4945
      3 C          -1.8733   -1.5462   -1.2685 C.ar    1  LIG1        0.1282
      4 C          -2.0937   -2.9105   -1.5216 C.ar    1  LIG1       -0.0193
      5 C          -1.1556   -3.8664   -1.1412 C.ar    1  LIG1       -0.0580
      6 C          -0.0163   -3.4749   -0.4524 C.ar    1  LIG1       -0.0577
      7 C           0.1963   -2.1197   -0.1620 C.ar    1  LIG1       -0.0342
      8 C           1.3902   -1.7146    0.6744 C.3     1  LIG1       -0.0072
      9 C          -0.6918   -1.1146   -0.6241 C.ar    1  LIG1        0.0309
     10 C          -0.3420    0.3062   -0.3390 C.ar    1  LIG1        0.0363
     11 C           0.4537    0.6133    0.8029 C.ar    1  LIG1       -0.0152
     12 C           1.0151   -0.5496    1.6248 C.3     1  LIG1        0.0403
     13 N           2.1112   -0.1786    2.5593 N.3     1  LIG1       -0.2978
     14 C           3.4205   -0.0248    1.9273 C.3     1  LIG1       -0.0122
     15 C           1.7230    1.0248    3.3114 C.3     1  LIG1        0.0032
     16 C           1.5121    2.2609    2.4293 C.3     1  LIG1       -0.0144
     17 C           0.7129    1.9572    1.1871 C.ar    1  LIG1       -0.0372
     18 C           0.2785    3.0106    0.3782 C.ar    1  LIG1       -0.0126
     19 C          -0.3907    2.6949   -0.7819 C.ar    1  LIG1        0.1671
     20 C          -0.6849    1.3934   -1.1391 C.ar    1  LIG1        0.1743
     21 O          -1.2723    1.3516   -2.3722 O.3     1  LIG1       -0.4520
     22 C          -1.4033    2.7470   -2.6842 C.3     1  LIG1        0.2333
     23 O          -0.8074    3.6092   -1.7011 O.3     1  LIG1       -0.4526
     24 H          -4.3651   -1.5496   -2.6087 H       1  LIG1        0.0660
     25 H          -2.9034   -1.0761   -3.5544 H       1  LIG1        0.0660
     26 H          -4.0473    0.1469   -2.9836 H       1  LIG1        0.0660
     27 H          -3.0141   -3.2530   -1.9834 H       1  LIG1        0.0654
     28 H          -1.3368   -4.9186   -1.3432 H       1  LIG1        0.0619
     29 H           0.6912   -4.2292   -0.1159 H       1  LIG1        0.0621
     30 H           2.1949   -1.4355   -0.0174 H       1  LIG1        0.0332
     31 H           1.7369   -2.5679    1.2707 H       1  LIG1        0.0332
     32 H           0.1831   -0.8966    2.2568 H       1  LIG1        0.0516
     33 H           3.4132    0.6638    1.0761 H       1  LIG1        0.0391
     34 H           3.8008   -0.9924    1.5837 H       1  LIG1        0.0391
     35 H           4.1574    0.3397    2.6526 H       1  LIG1        0.0391
     36 H           2.4712    1.2471    4.0825 H       1  LIG1        0.0430
     37 H           0.7972    0.8097    3.8626 H       1  LIG1        0.0430
     38 H           2.4834    2.6704    2.1256 H       1  LIG1        0.0326
     39 H           0.9972    3.0300    3.0175 H       1  LIG1        0.0326
     40 H           0.4881    4.0450    0.6279 H       1  LIG1        0.0658
     41 H          -2.4687    2.9913   -2.7690 H       1  LIG1        0.1166
     42 H          -0.9246    2.9358   -3.6517 H       1  LIG1        0.1166
@<TRIPOS>BOND
     1     1     2    1
     2     2     3    1
     3     3     4   ar
     4     4     5   ar
     5     5     6   ar
     6     6     7   ar
     7     7     8    1
     8     7     9   ar
     9     3     9   ar
    10     9    10    1
    11    10    11   ar
    12    11    12    1
    13     8    12    1
    14    12    13    1
    15    13    14    1
    16    13    15    1
    17    15    16    1
    18    11    17   ar
    19    16    17    1
    20    17    18   ar
    21    18    19   ar
    22    19    20   ar
    23    10    20   ar
    24    20    21    1
    25    21    22    1
    26    22    23    1
    27    19    23    1
    28     1    24    1
    29     1    25    1
    30     1    26    1
    31     4    27    1
    32     5    28    1
    33     6    29    1
    34     8    30    1
    35     8    31    1
    36    12    32    1
    37    14    33    1
    38    14    34    1
    39    14    35    1
    40    15    36    1
    41    15    37    1
    42    16    38    1
    43    16    39    1
    44    18    40    1
    45    22    41    1
    46    22    42    1
