REMARK  Name = NuBBE_1888
REMARK  13 active torsions:
REMARK  status: ('A' for Active; 'I' for Inactive)
REMARK    1  A    between atoms: C_4  and  O_5
REMARK    2  A    between atoms: O_5  and  C_6
REMARK    3  A    between atoms: C_8  and  O_9
REMARK    4  A    between atoms: O_9  and  C_10
REMARK    5  A    between atoms: C_14  and  C_15
REMARK    6  A    between atoms: C_17  and  O_18
REMARK    7  A    between atoms: O_18  and  C_19
REMARK    8  A    between atoms: C_20  and  O_21
REMARK    9  A    between atoms: O_21  and  C_22
REMARK   10  A    between atoms: C_24  and  O_25
REMARK   11  A    between atoms: O_25  and  C_26
REMARK   12  A    between atoms: C_27  and  O_28
REMARK   13  A    between atoms: O_28  and  C_29
REMARK                            x       y       z     vdW  Elec       q    Type
REMARK                         _______ _______ _______ _____ _____    ______ ____
ROOT
ATOM      1  O   LIG A   1      -3.595  -0.647   1.238  0.00  0.00    -0.283 OA
ATOM      2  C   LIG A   1      -2.481  -0.726   0.697  0.00  0.00    +0.238 A 
ATOM      3  C   LIG A   1      -1.780  -2.007   0.504  0.00  0.00    +0.109 A 
ATOM      4  C   LIG A   1      -2.386  -3.253   0.268  0.00  0.00    +0.138 A 
ATOM      5  C   LIG A   1      -1.567  -4.388   0.134  0.00  0.00    +0.092 A 
ATOM      6  C   LIG A   1      -0.184  -4.305   0.314  0.00  0.00    +0.127 A 
ATOM      7  C   LIG A   1       0.401  -3.064   0.513  0.00  0.00    +0.092 A 
ATOM      8  C   LIG A   1      -0.388  -1.927   0.584  0.00  0.00    +0.147 A 
ATOM      9  O   LIG A   1       0.287  -0.743   0.717  0.00  0.00    -0.451 OA
ATOM     10  C   LIG A   1      -0.387   0.396   0.343  0.00  0.00    +0.184 A 
ATOM     11  C   LIG A   1      -1.728   0.491   0.261  0.00  0.00    +0.211 A 
ENDROOT
BRANCH  10  12
ATOM     12  C   LIG A   1       0.495   1.512  -0.007  0.00  0.00    +0.066 A 
ATOM     13  C   LIG A   1       0.857   1.655  -1.356  0.00  0.00    +0.064 A 
ATOM     14  C   LIG A   1       1.687   2.700  -1.776  0.00  0.00    +0.162 A 
ATOM     15  C   LIG A   1       2.152   3.627  -0.830  0.00  0.00    +0.165 A 
ATOM     16  C   LIG A   1       1.782   3.479   0.511  0.00  0.00    +0.095 A 
ATOM     17  C   LIG A   1       0.964   2.432   0.939  0.00  0.00    +0.135 A 
BRANCH  14  18
ATOM     18  O   LIG A   1       2.054   2.869  -3.090  0.00  0.00    -0.491 OA
ATOM     19  C   LIG A   1       2.097   1.670  -3.864  0.00  0.00    +0.277 C 
ENDBRANCH  14  18
BRANCH  15  20
ATOM     20  O   LIG A   1       2.937   4.672  -1.258  0.00  0.00    -0.491 OA
ATOM     21  C   LIG A   1       3.832   5.210  -0.282  0.00  0.00    +0.277 C 
ENDBRANCH  15  20
BRANCH  17  22
ATOM     22  O   LIG A   1       0.576   2.262   2.246  0.00  0.00    -0.494 OA
ATOM     23  C   LIG A   1       1.055   3.229   3.178  0.00  0.00    +0.277 C 
ENDBRANCH  17  22
ENDBRANCH  10  12
BRANCH   4  24
ATOM     24  O   LIG A   1      -3.750  -3.312   0.107  0.00  0.00    -0.494 OA
ATOM     25  C   LIG A   1      -4.342  -4.586   0.370  0.00  0.00    +0.277 C 
ENDBRANCH   4  24
BRANCH   6  26
ATOM     26  O   LIG A   1       0.527  -5.473   0.237  0.00  0.00    -0.495 OA
ATOM     27  C   LIG A   1       1.726  -5.478   1.016  0.00  0.00    +0.277 C 
ENDBRANCH   6  26
BRANCH  11  28
ATOM     28  O   LIG A   1      -2.343   1.648  -0.180  0.00  0.00    -0.488 OA
ATOM     29  C   LIG A   1      -3.575   1.470  -0.870  0.00  0.00    +0.277 C 
ENDBRANCH  11  28
TORSDOF 7
