REMARK  Name = NuBBE_1445
REMARK  12 active torsions:
REMARK  status: ('A' for Active; 'I' for Inactive)
REMARK    1  A    between atoms: C_1  and  O_2
REMARK    2  A    between atoms: O_2  and  C_3
REMARK    3  A    between atoms: C_8  and  O_9
REMARK    4  A    between atoms: C_10  and  C_12
REMARK    5  A    between atoms: C_14  and  O_15
REMARK    6  A    between atoms: O_15  and  C_16
REMARK    7  A    between atoms: C_17  and  O_22
REMARK    8  A    between atoms: C_18  and  O_19
REMARK    9  A    between atoms: O_19  and  C_20
REMARK   10  A    between atoms: O_22  and  C_23
REMARK   11  A    between atoms: C_25  and  O_26
REMARK   12  A    between atoms: O_26  and  C_27
REMARK                            x       y       z     vdW  Elec       q    Type
REMARK                         _______ _______ _______ _____ _____    ______ ____
ROOT
ATOM      1  C   LIG A   1      -0.569  -4.341  -1.715  0.00  0.00    +0.127 A 
ATOM      2  C   LIG A   1      -0.653  -2.960  -1.606  0.00  0.00    +0.092 A 
ATOM      3  C   LIG A   1       0.001  -2.302  -0.571  0.00  0.00    +0.146 A 
ATOM      4  C   LIG A   1       0.740  -3.009   0.378  0.00  0.00    +0.109 A 
ATOM      5  C   LIG A   1       1.381  -2.220   1.440  0.00  0.00    +0.238 A 
ATOM      6  C   LIG A   1       1.189  -0.748   1.408  0.00  0.00    +0.208 A 
ATOM      7  C   LIG A   1       0.459  -0.195   0.416  0.00  0.00    +0.181 A 
ATOM      8  O   LIG A   1      -0.139  -0.941  -0.579  0.00  0.00    -0.451 OA
ATOM      9  O   LIG A   1       2.067  -2.679   2.361  0.00  0.00    -0.283 OA
ATOM     10  C   LIG A   1       0.857  -4.403   0.263  0.00  0.00    +0.138 A 
ATOM     11  C   LIG A   1       0.188  -5.058  -0.781  0.00  0.00    +0.092 A 
ENDROOT
BRANCH   7  12
ATOM     12  C   LIG A   1       0.183   1.255   0.276  0.00  0.00    +0.028 A 
ATOM     13  C   LIG A   1      -0.011   1.856  -0.977  0.00  0.00    +0.061 A 
ATOM     14  C   LIG A   1      -0.315   3.225  -1.092  0.00  0.00    +0.166 A 
ATOM     15  C   LIG A   1      -0.496   4.006   0.069  0.00  0.00    +0.203 A 
ATOM     16  C   LIG A   1      -0.287   3.415   1.331  0.00  0.00    +0.166 A 
ATOM     17  C   LIG A   1       0.037   2.057   1.408  0.00  0.00    +0.061 A 
BRANCH  14  18
ATOM     18  O   LIG A   1      -0.506   3.638  -2.392  0.00  0.00    -0.491 OA
ATOM     19  C   LIG A   1      -0.072   4.955  -2.725  0.00  0.00    +0.277 C 
ENDBRANCH  14  18
BRANCH  16  20
ATOM     20  O   LIG A   1      -0.415   4.192   2.454  0.00  0.00    -0.491 OA
ATOM     21  C   LIG A   1      -0.192   3.596   3.726  0.00  0.00    +0.277 C 
ENDBRANCH  16  20
BRANCH  15  22
ATOM     22  O   LIG A   1      -0.883   5.304  -0.131  0.00  0.00    -0.488 OA
ATOM     23  C   LIG A   1      -1.539   6.001   0.916  0.00  0.00    +0.277 C 
ENDBRANCH  15  22
ENDBRANCH   7  12
BRANCH   1  25
ATOM     24  C   LIG A   1      -1.973  -4.360  -3.620  0.00  0.00    +0.277 C 
ATOM     25  O   LIG A   1      -1.177  -5.088  -2.687  0.00  0.00    -0.495 OA
ENDBRANCH   1  25
BRANCH   6  26
ATOM     26  O   LIG A   1       1.793  -0.039   2.432  0.00  0.00    -0.501 OA
ATOM     27  H   LIG A   1       2.225  -0.730   2.985  0.00  0.00    +0.292 HD
ENDBRANCH   6  26
BRANCH  10  28
ATOM     28  O   LIG A   1       1.587  -5.069   1.211  0.00  0.00    -0.494 OA
ATOM     29  C   LIG A   1       2.201  -6.285   0.803  0.00  0.00    +0.277 C 
ENDBRANCH  10  28
TORSDOF 7
