@<TRIPOS>MOLECULE
NuBBE_1696
 63 66 0 0 0
SMALL
GASTEIGER

@<TRIPOS>ATOM
      1 C           0.4903   -3.8887    0.0027 C.3     1  LIG1        0.0791
      2 O           0.4382   -2.4778    0.2211 O.3     1  LIG1       -0.4885
      3 C           0.9153   -1.6916   -0.8007 C.ar    1  LIG1        0.2058
      4 C           2.0023   -2.0168   -1.6274 C.ar    1  LIG1        0.1775
      5 O           2.6226   -3.2278   -1.4635 O.3     1  LIG1       -0.4777
      6 C           3.3086   -3.7525   -2.6205 C.3     1  LIG1        0.1237
      7 C           2.3005   -4.3220   -3.6337 C.3     1  LIG1       -0.0215
      8 C           4.1616   -4.8907   -2.0626 C.3     1  LIG1       -0.0215
      9 C           4.1757   -2.6912   -3.2386 C.2     1  LIG1       -0.0408
     10 C           3.7986   -1.4092   -3.1860 C.2     1  LIG1       -0.0476
     11 C           2.4896   -1.1159   -2.5903 C.ar    1  LIG1        0.0635
     12 C           1.7138   -0.0011   -2.9176 C.ar    1  LIG1        0.1568
     13 O           2.1001    0.8727   -3.9594 O.3     1  LIG1       -0.4244
     14 C           2.5348    0.3340   -5.1905 C.2     1  LIG1        0.3092
     15 C           3.2181    1.4261   -5.9707 C.3     1  LIG1        0.0336
     16 O           2.4243   -0.8063   -5.5760 O.2     1  LIG1       -0.2507
     17 C           0.6032    0.3135   -2.1175 C.ar    1  LIG1        0.1107
     18 C           0.2777   -0.4611   -0.9984 C.ar    1  LIG1        0.1879
     19 O          -0.6844   -0.0581   -0.0899 O.2     1  LIG1       -0.4507
     20 C          -1.1432    1.2612   -0.1538 C.ar    1  LIG1        0.1396
     21 C          -1.8180    1.7621    1.0823 C.ar    1  LIG1        0.0245
     22 C          -1.9300    0.9555    2.2255 C.ar    1  LIG1       -0.0054
     23 C          -2.5313    1.4209    3.4122 C.ar    1  LIG1        0.1666
     24 O          -2.7385    0.6011    4.4929 O.3     1  LIG1       -0.4913
     25 C          -1.6776   -0.3075    4.7743 C.3     1  LIG1        0.0790
     26 C          -3.0448    2.7288    3.4742 C.ar    1  LIG1        0.2143
     27 O          -3.8172    3.1431    4.5990 O.3     1  LIG1       -0.4185
     28 C          -3.5198    2.7400    5.9015 C.2     1  LIG1        0.3094
     29 C          -4.7901    2.1635    6.5226 C.3     1  LIG1        0.0336
     30 O          -2.4649    2.8873    6.5005 O.2     1  LIG1       -0.2507
     31 C          -2.9532    3.5520    2.3418 C.ar    1  LIG1        0.1666
     32 O          -3.4159    4.8293    2.1630 O.3     1  LIG1       -0.4913
     33 C          -3.5407    5.6314    3.3230 C.3     1  LIG1        0.0790
     34 C          -2.3515    3.0561    1.1705 C.ar    1  LIG1       -0.0054
     35 C          -1.0053    2.0053   -1.2605 C.ar    1  LIG1        0.0288
     36 C          -0.3259    1.3987   -2.4230 C.ar    1  LIG1        0.1968
     37 O          -0.6019    1.7462   -3.5582 O.2     1  LIG1       -0.2869
     38 H          -0.1071   -4.3750    0.7785 H       1  LIG1        0.0660
     39 H           1.5028   -4.2838    0.1235 H       1  LIG1        0.0660
     40 H           0.0663   -4.1616   -0.9711 H       1  LIG1        0.0660
     41 H           1.6468   -5.0617   -3.1576 H       1  LIG1        0.0271
     42 H           2.8067   -4.7987   -4.4804 H       1  LIG1        0.0271
     43 H           1.6368   -3.5474   -4.0371 H       1  LIG1        0.0271
     44 H           3.5206   -5.6473   -1.5935 H       1  LIG1        0.0271
     45 H           4.8305   -4.5257   -1.2745 H       1  LIG1        0.0271
     46 H           4.7600   -5.3761   -2.8389 H       1  LIG1        0.0271
     47 H           5.0857   -2.9703   -3.7578 H       1  LIG1        0.0611
     48 H           4.3933   -0.6220   -3.6303 H       1  LIG1        0.0624
     49 H           2.4648    2.0322   -6.4685 H       1  LIG1        0.0342
     50 H           3.8854    0.9746   -6.7133 H       1  LIG1        0.0342
     51 H           3.8388    2.0325   -5.3052 H       1  LIG1        0.0342
     52 H          -1.5647   -0.0658    2.1727 H       1  LIG1        0.0662
     53 H          -1.9114   -0.8048    5.7198 H       1  LIG1        0.0660
     54 H          -0.7224    0.2163    4.8913 H       1  LIG1        0.0660
     55 H          -1.6096   -1.0866    4.0105 H       1  LIG1        0.0660
     56 H          -5.2406    2.8661    7.2338 H       1  LIG1        0.0342
     57 H          -4.5455    1.2258    7.0433 H       1  LIG1        0.0342
     58 H          -5.5179    1.9221    5.7486 H       1  LIG1        0.0342
     59 H          -3.7255    6.6620    3.0021 H       1  LIG1        0.0660
     60 H          -2.6201    5.6217    3.9148 H       1  LIG1        0.0660
     61 H          -4.4094    5.3182    3.9031 H       1  LIG1        0.0660
     62 H          -2.3098    3.7358    0.3222 H       1  LIG1        0.0662
     63 H          -1.3757    3.0091   -1.4043 H       1  LIG1        0.0693
@<TRIPOS>BOND
     1     1     2    1
     2     2     3    1
     3     3     4   ar
     4     4     5    1
     5     5     6    1
     6     6     7    1
     7     6     8    1
     8     6     9    1
     9     9    10    2
    10     4    11   ar
    11    10    11    1
    12    11    12   ar
    13    12    13    1
    14    13    14    1
    15    14    15    1
    16    14    16    2
    17    12    17   ar
    18    17    18   ar
    19     3    18   ar
    20    18    19   ar
    21    19    20   ar
    22    20    21    1
    23    21    22   ar
    24    22    23   ar
    25    23    24    1
    26    24    25    1
    27    23    26   ar
    28    26    27    1
    29    27    28    1
    30    28    29    1
    31    28    30    2
    32    26    31   ar
    33    31    32    1
    34    32    33    1
    35    31    34   ar
    36    21    34   ar
    37    20    35   ar
    38    35    36   ar
    39    17    36   ar
    40    36    37    2
    41     1    38    1
    42     1    39    1
    43     1    40    1
    44     7    41    1
    45     7    42    1
    46     7    43    1
    47     8    44    1
    48     8    45    1
    49     8    46    1
    50     9    47    1
    51    10    48    1
    52    15    49    1
    53    15    50    1
    54    15    51    1
    55    22    52    1
    56    25    53    1
    57    25    54    1
    58    25    55    1
    59    29    56    1
    60    29    57    1
    61    29    58    1
    62    33    59    1
    63    33    60    1
    64    33    61    1
    65    34    62    1
    66    35    63    1
