@<TRIPOS>MOLECULE
NuBBE_2194
 52 54 0 0 0
SMALL
GASTEIGER

@<TRIPOS>ATOM
      1 C          -2.0759   -0.5100    1.3448 C.3     1  LIG1       -0.0555
      2 C          -0.6682    0.0830    1.0685 C.3     1  LIG1       -0.0066
      3 C          -0.6604    1.5848    0.6037 C.3     1  LIG1       -0.0198
      4 C          -1.6169    1.7792   -0.5747 C.3     1  LIG1        0.0142
      5 C          -1.2434    0.8440   -1.7078 C.2     1  LIG1        0.1595
      6 C          -0.4072   -0.3716   -1.4133 C.2     1  LIG1       -0.0042
      7 C          -0.1408   -0.7359   -0.1357 C.2     1  LIG1       -0.0544
      8 C           0.6040   -2.0297    0.1480 C.3     1  LIG1       -0.0036
      9 C           0.7330   -2.9848   -1.0551 C.3     1  LIG1        0.0680
     10 H           1.4940   -3.7420   -0.8270 H       1  LIG1        0.0605
     11 O          -0.5036   -3.6951   -1.2189 O.3     1  LIG1       -0.3906
     12 C           1.1026   -2.2436   -2.3674 C.3     1  LIG1        0.0160
     13 C           2.4858   -1.5881   -2.2261 C.2     1  LIG1       -0.0824
     14 C           3.6286   -1.9422   -2.8313 C.2     1  LIG1       -0.1020
     15 C           1.0611   -3.2361   -3.5544 C.3     1  LIG1       -0.0534
     16 C           0.0332   -1.1486   -2.6342 C.3     1  LIG1       -0.0132
     17 O          -1.6391    1.0627   -2.8535 O.2     1  LIG1       -0.2924
     18 H           0.3393    1.7602    0.1657 H       1  LIG1        0.0318
     19 C          -0.7380    2.6494    1.7472 C.3     1  LIG1       -0.0309
     20 C          -0.6166    4.0796    1.1670 C.3     1  LIG1       -0.0595
     21 C          -2.0599    2.6102    2.5357 C.3     1  LIG1       -0.0595
     22 C           0.4575    2.4363    2.7269 C.3     1  LIG1       -0.0476
     23 C           1.1554    1.0796    2.5927 C.3     1  LIG1       -0.0518
     24 C           0.1542   -0.0483    2.3869 C.3     1  LIG1       -0.0436
     25 H          -2.7075   -0.5435    0.4503 H       1  LIG1        0.0238
     26 H          -2.6281    0.0443    2.1040 H       1  LIG1        0.0238
     27 H          -1.9966   -1.5424    1.7084 H       1  LIG1        0.0238
     28 H          -1.5285    2.7941   -0.9751 H       1  LIG1        0.0348
     29 H          -2.6621    1.6119   -0.3006 H       1  LIG1        0.0348
     30 H           0.0888   -2.5689    0.9518 H       1  LIG1        0.0336
     31 H           1.6074   -1.7733    0.5088 H       1  LIG1        0.0336
     32 H          -0.6754   -4.1869   -0.3981 H       1  LIG1        0.2098
     33 H           2.5379   -0.7279   -1.5576 H       1  LIG1        0.0573
     34 H           3.6983   -2.7784   -3.5187 H       1  LIG1        0.0532
     35 H           4.5437   -1.3856   -2.6482 H       1  LIG1        0.0532
     36 H           1.7281   -4.0896   -3.3869 H       1  LIG1        0.0239
     37 H           1.3557   -2.7494   -4.4917 H       1  LIG1        0.0239
     38 H           0.0549   -3.6421   -3.7095 H       1  LIG1        0.0239
     39 H          -0.8677   -1.6057   -3.0666 H       1  LIG1        0.0323
     40 H           0.4200   -0.4522   -3.3910 H       1  LIG1        0.0323
     41 H          -1.5027    4.3607    0.5883 H       1  LIG1        0.0235
     42 H           0.2595    4.1706    0.5154 H       1  LIG1        0.0235
     43 H          -0.5110    4.8216    1.9677 H       1  LIG1        0.0235
     44 H          -2.9284    2.5983    1.8698 H       1  LIG1        0.0235
     45 H          -2.1577    3.4928    3.1798 H       1  LIG1        0.0235
     46 H          -2.1175    1.7456    3.2011 H       1  LIG1        0.0235
     47 H           0.1161    2.5562    3.7635 H       1  LIG1        0.0271
     48 H           1.2224    3.2105    2.5831 H       1  LIG1        0.0271
     49 H           1.7450    0.8919    3.4978 H       1  LIG1        0.0266
     50 H           1.8696    1.1018    1.7607 H       1  LIG1        0.0266
     51 H          -0.5250   -0.0436    3.2502 H       1  LIG1        0.0274
     52 H           0.6819   -1.0035    2.4554 H       1  LIG1        0.0274
@<TRIPOS>BOND
     1     1     2    1
     2     2     3    1
     3     3     4    1
     4     4     5    1
     5     5     6    1
     6     6     7    2
     7     2     7    1
     8     7     8    1
     9     8     9    1
    10     9    10    1
    11     9    11    1
    12     9    12    1
    13    12    13    1
    14    13    14    2
    15    12    15    1
    16    12    16    1
    17     6    16    1
    18     5    17    2
    19     3    18    1
    20     3    19    1
    21    19    20    1
    22    19    21    1
    23    19    22    1
    24    22    23    1
    25    23    24    1
    26     2    24    1
    27     1    25    1
    28     1    26    1
    29     1    27    1
    30     4    28    1
    31     4    29    1
    32     8    30    1
    33     8    31    1
    34    11    32    1
    35    13    33    1
    36    14    34    1
    37    14    35    1
    38    15    36    1
    39    15    37    1
    40    15    38    1
    41    16    39    1
    42    16    40    1
    43    20    41    1
    44    20    42    1
    45    20    43    1
    46    21    44    1
    47    21    45    1
    48    21    46    1
    49    22    47    1
    50    22    48    1
    51    23    49    1
    52    23    50    1
    53    24    51    1
    54    24    52    1
