REMARK  Name = NuBBE_1269
REMARK  11 active torsions:
REMARK  status: ('A' for Active; 'I' for Inactive)
REMARK    1  A    between atoms: C_3  and  C_4
REMARK    2  A    between atoms: C_4  and  C_5
REMARK    3  A    between atoms: C_4  and  C_6
REMARK    4  A    between atoms: C_4  and  C_7
REMARK    5  A    between atoms: C_11  and  O_12
REMARK    6  A    between atoms: C_16  and  C_17
REMARK    7  A    between atoms: C_16  and  C_18
REMARK    8  A    between atoms: C_21  and  C_22
REMARK    9  A    between atoms: C_22  and  C_23
REMARK   10  A    between atoms: C_22  and  C_25
REMARK   11  A    between atoms: C_22  and  C_26
REMARK                            x       y       z     vdW  Elec       q    Type
REMARK                         _______ _______ _______ _____ _____    ______ ____
ROOT
ATOM      1  O   LIG A   1      -3.743   0.996   0.433  0.00  0.00    -0.245 OA
ATOM      2  C   LIG A   1      -2.560   1.100   0.168  0.00  0.00    +0.341 A 
ATOM      3  C   LIG A   1      -1.881   2.420  -0.038  0.00  0.00    +0.047 A 
ATOM      4  C   LIG A   1      -0.544   2.414  -0.212  0.00  0.00    +0.026 A 
ATOM      5  C   LIG A   1       0.278   1.200  -0.150  0.00  0.00    +0.060 A 
ATOM      6  C   LIG A   1       1.679   1.207  -0.148  0.00  0.00    +0.138 A 
ATOM      7  C   LIG A   1       2.405   0.006  -0.073  0.00  0.00    +0.059 A 
ATOM      8  C   LIG A   1       3.868   0.012   0.007  0.00  0.00    +0.015 C 
ATOM      9  C   LIG A   1       4.523  -1.151   0.039  0.00  0.00    +0.020 C 
ATOM     10  C   LIG A   1       3.818  -2.476  -0.008  0.00  0.00    +0.123 C 
ATOM     11  C   LIG A   1       4.096  -3.176  -1.344  0.00  0.00    +0.060 C 
ATOM     12  C   LIG A   1       4.288  -3.368   1.147  0.00  0.00    +0.060 C 
ATOM     13  O   LIG A   1       2.396  -2.393   0.143  0.00  0.00    -0.481 OA
ATOM     14  C   LIG A   1       1.715  -1.223  -0.020  0.00  0.00    +0.140 A 
ATOM     15  C   LIG A   1       0.301  -1.293  -0.057  0.00  0.00    +0.047 A 
ATOM     16  C   LIG A   1      -0.371  -0.040  -0.096  0.00  0.00    +0.150 A 
ATOM     17  O   LIG A   1      -1.783  -0.039  -0.018  0.00  0.00    -0.421 OA
ENDROOT
BRANCH   3  18
ATOM     18  C   LIG A   1      -2.781   3.688  -0.071  0.00  0.00    +0.015 C 
ATOM     19  C   LIG A   1      -3.794   3.592  -1.234  0.00  0.00    +0.020 C 
ATOM     20  C   LIG A   1      -3.578   3.848   1.249  0.00  0.00    +0.020 C 
BRANCH  18  21
ATOM     21  C   LIG A   1      -1.964   4.970  -0.354  0.00  0.00    -0.023 C 
ATOM     22  C   LIG A   1      -1.829   6.061   0.415  0.00  0.00    +0.005 C 
ENDBRANCH  18  21
ENDBRANCH   3  18
BRANCH  15  23
ATOM     23  C   LIG A   1      -0.505  -2.637  -0.039  0.00  0.00    +0.015 C 
ATOM     24  C   LIG A   1      -1.318  -2.777  -1.356  0.00  0.00    +0.020 C 
ATOM     25  C   LIG A   1       0.342  -3.940   0.011  0.00  0.00    +0.020 C 
BRANCH  23  26
ATOM     26  C   LIG A   1      -1.376  -2.696   1.224  0.00  0.00    -0.023 C 
ATOM     27  C   LIG A   1      -2.710  -2.818   1.304  0.00  0.00    +0.005 C 
ENDBRANCH  23  26
ENDBRANCH  15  23
BRANCH   6  28
ATOM     28  O   LIG A   1       2.397   2.379  -0.195  0.00  0.00    -0.505 OA
ATOM     29  H   LIG A   1       1.877   3.095   0.200  0.00  0.00    +0.292 HD
ENDBRANCH   6  28
TORSDOF 5
