@<TRIPOS>MOLECULE
NuBBE_129
 56 59 0 0 0
SMALL
GASTEIGER

@<TRIPOS>ATOM
      1 O          -8.9031   -1.2439    2.7127 O.3     1  LIG1       -0.5033
      2 C          -7.6533   -1.0701    2.1891 C.ar    1  LIG1        0.1583
      3 C          -7.2032    0.1657    1.7442 C.ar    1  LIG1       -0.0159
      4 C          -5.9099    0.2747    1.2153 C.ar    1  LIG1       -0.0474
      5 C          -5.0626   -0.8447    1.1308 C.ar    1  LIG1        0.0211
      6 C          -3.7004   -0.7201    0.5671 C.ar    1  LIG1        0.1393
      7 O          -3.0978    0.5262    0.7247 O.2     1  LIG1       -0.4543
      8 C          -1.8555    0.7244    0.1658 C.ar    1  LIG1        0.1465
      9 C          -1.1542   -0.2780   -0.4836 C.ar    1  LIG1        0.1091
     10 C           0.0989   -0.0314   -1.0610 C.ar    1  LIG1        0.1769
     11 O           0.7262   -1.0241   -1.7695 O.3     1  LIG1       -0.5027
     12 C           0.6882    1.2416   -0.9637 C.ar    1  LIG1        0.2074
     13 O           1.9205    1.5522   -1.4797 O.3     1  LIG1       -0.4535
     14 C           2.9357    0.5353   -1.4883 C.3     1  LIG1        0.2311
     15 H           2.6624   -0.2840   -2.1545 H       1  LIG1        0.1084
     16 C           4.2330    1.1597   -2.0772 C.3     1  LIG1        0.1454
     17 H           4.0288    2.1737   -2.4360 H       1  LIG1        0.0683
     18 O           4.6743    0.4130   -3.2321 O.3     1  LIG1       -0.3829
     19 C           5.3447    1.1812   -1.0145 C.3     1  LIG1        0.1152
     20 H           6.2715    1.5337   -1.4821 H       1  LIG1        0.0648
     21 O           5.0334    2.0828    0.0508 O.3     1  LIG1       -0.3864
     22 C           5.5703   -0.2455   -0.4736 C.3     1  LIG1        0.1120
     23 H           6.2270   -0.2177    0.4035 H       1  LIG1        0.0647
     24 O           6.2203   -1.0179   -1.4979 O.3     1  LIG1       -0.3865
     25 C           4.2202   -0.9225   -0.1346 C.3     1  LIG1        0.1140
     26 H           3.9966   -1.7091   -0.8682 H       1  LIG1        0.0647
     27 C           4.2420   -1.5778    1.2496 C.3     1  LIG1        0.0731
     28 O           5.2525   -2.5736    1.3259 O.3     1  LIG1       -0.3924
     29 O           3.1628    0.0458   -0.1525 O.3     1  LIG1       -0.3313
     30 C          -0.0442    2.2730   -0.3357 C.ar    1  LIG1        0.1688
     31 O           0.3446    3.5801   -0.1628 O.3     1  LIG1       -0.4912
     32 C           1.2056    4.1406   -1.1485 C.3     1  LIG1        0.0790
     33 C          -1.2990    2.0002    0.2440 C.ar    1  LIG1        0.0270
     34 C          -3.1243   -1.7559   -0.0589 C.ar    1  LIG1        0.0288
     35 C          -1.7703   -1.6074   -0.5836 C.ar    1  LIG1        0.1967
     36 O          -1.1820   -2.5488   -1.0887 O.2     1  LIG1       -0.2869
     37 C          -5.5418   -2.0804    1.6006 C.ar    1  LIG1       -0.0059
     38 C          -6.8264   -2.1830    2.1137 C.ar    1  LIG1        0.1589
     39 O          -7.2683   -3.4003    2.5461 O.3     1  LIG1       -0.5033
     40 H          -9.3561   -0.3833    2.7074 H       1  LIG1        0.2923
     41 H          -7.8322    1.0483    1.7949 H       1  LIG1        0.0655
     42 H          -5.5726    1.2466    0.8587 H       1  LIG1        0.0626
     43 H           0.2122   -1.8602   -1.6950 H       1  LIG1        0.2923
     44 H           5.0763   -0.4254   -2.9160 H       1  LIG1        0.2102
     45 H           4.1796    1.7961    0.4351 H       1  LIG1        0.2100
     46 H           7.1508   -0.7253   -1.5242 H       1  LIG1        0.2100
     47 H           4.4191   -0.8295    2.0296 H       1  LIG1        0.0584
     48 H           3.2708   -2.0414    1.4579 H       1  LIG1        0.0584
     49 H           5.2385   -2.9302    2.2306 H       1  LIG1        0.2095
     50 H           1.1758    5.2295   -1.0368 H       1  LIG1        0.0660
     51 H           0.8710    3.9049   -2.1646 H       1  LIG1        0.0660
     52 H           2.2423    3.8361   -0.9805 H       1  LIG1        0.0660
     53 H          -1.8444    2.8005    0.7400 H       1  LIG1        0.0692
     54 H          -3.5845   -2.7215   -0.2130 H       1  LIG1        0.0693
     55 H          -4.9296   -2.9776    1.5819 H       1  LIG1        0.0662
     56 H          -8.1804   -3.2351    2.8576 H       1  LIG1        0.2923
@<TRIPOS>BOND
     1     1     2    1
     2     2     3   ar
     3     3     4   ar
     4     4     5   ar
     5     5     6    1
     6     6     7   ar
     7     7     8   ar
     8     8     9   ar
     9     9    10   ar
    10    10    11    1
    11    10    12   ar
    12    12    13    1
    13    13    14    1
    14    14    15    1
    15    14    16    1
    16    16    19    1
    17    19    22    1
    18    22    23    1
    19    22    24    1
    20    22    25    1
    21    27    28    1
    22    25    29    1
    23    14    29    1
    24    12    30   ar
    25    30    31    1
    26    31    32    1
    27    30    33   ar
    28     8    33   ar
    29     6    34   ar
    30    34    35   ar
    31     9    35   ar
    32    35    36    2
    33     5    37   ar
    34     2    38   ar
    35    37    38   ar
    36    38    39    1
    37    16    18    1
    38    16    17    1
    39    19    21    1
    40    19    20    1
    41    25    27    1
    42    25    26    1
    43     1    40    1
    44     3    41    1
    45     4    42    1
    46    11    43    1
    47    18    44    1
    48    21    45    1
    49    24    46    1
    50    27    47    1
    51    27    48    1
    52    28    49    1
    53    32    50    1
    54    32    51    1
    55    32    52    1
    56    33    53    1
    57    34    54    1
    58    37    55    1
    59    39    56    1
