@<TRIPOS>MOLECULE
NuBBE_280
 72 76 0 0 0
SMALL
GASTEIGER

@<TRIPOS>ATOM
      1 O           0.4354   -0.6025    6.0063 O.3     1  LIG1       -0.5058
      2 C           1.4297   -1.4103    5.5312 C.ar    1  LIG1        0.1348
      3 C           1.8744   -1.3863    4.2067 C.ar    1  LIG1        0.1092
      4 C           1.2856   -0.4802    3.2224 C.ar    1  LIG1        0.2382
      5 C           1.6037   -0.7217    1.7699 C.ar    1  LIG1        0.2138
      6 O           0.8566   -0.1071    0.7652 O.3     1  LIG1       -0.4532
      7 C           0.1409    1.1122    1.0448 C.3     1  LIG1        0.2311
      8 H          -0.5494    0.9627    1.8761 H       1  LIG1        0.1084
      9 O          -0.7746    1.4192   -0.0347 O.3     1  LIG1       -0.3313
     10 C          -0.2870    2.2884   -1.0819 C.3     1  LIG1        0.1144
     11 H          -0.5118    3.3237   -0.7995 H       1  LIG1        0.0647
     12 C           1.2090    2.0946   -1.2592 C.3     1  LIG1        0.1120
     13 H           1.3633    1.0303   -1.4163 H       1  LIG1        0.0647
     14 C           1.9076    2.6172    0.0116 C.3     1  LIG1        0.1152
     15 H           2.0423    3.7008   -0.0859 H       1  LIG1        0.0648
     16 O           3.2338    2.0746    0.0755 O.3     1  LIG1       -0.3864
     17 O           1.7693    2.7212   -2.4075 O.3     1  LIG1       -0.3865
     18 C          -1.0851    1.9803   -2.3471 C.3     1  LIG1        0.0796
     19 O          -2.4649    2.2558   -2.0663 O.3     1  LIG1       -0.3461
     20 C          -3.3411    2.0217   -3.1562 C.3     1  LIG1        0.1879
     21 H          -3.0740    2.6960   -3.9776 H       1  LIG1        0.0937
     22 C          -3.3543    0.5668   -3.6577 C.3     1  LIG1        0.1341
     23 H          -2.3781    0.2476   -4.0318 H       1  LIG1        0.0671
     24 C          -3.7922   -0.3433   -2.5094 C.3     1  LIG1        0.1140
     25 H          -3.0641   -0.3254   -1.6898 H       1  LIG1        0.0648
     26 C          -5.1715    0.0753   -1.9928 C.3     1  LIG1        0.1095
     27 H          -5.9265   -0.1887   -2.7438 H       1  LIG1        0.0646
     28 C          -5.2200    1.5878   -1.7077 C.3     1  LIG1        0.0873
     29 H          -4.6655    1.8224   -0.7901 H       1  LIG1        0.0621
     30 O          -4.6930    2.3683   -2.7976 O.3     1  LIG1       -0.3431
     31 C          -6.6681    2.0337   -1.5061 C.3     1  LIG1       -0.0361
     32 O          -5.4893   -0.6814   -0.8200 O.3     1  LIG1       -0.3866
     33 O          -3.8656   -1.7082   -2.9562 O.3     1  LIG1       -0.3864
     34 O          -4.2733    0.4071   -4.7586 O.3     1  LIG1       -0.3841
     35 C           1.1020    2.3007    1.2881 C.3     1  LIG1        0.1454
     36 H           1.7970    2.0802    2.1034 H       1  LIG1        0.0683
     37 O           0.3836    3.4843    1.6795 O.3     1  LIG1       -0.3829
     38 C           2.6230   -1.5750    1.5108 C.ar    1  LIG1        0.1809
     39 O           3.3595   -2.2299    2.5053 O.2     1  LIG1       -0.4507
     40 C           2.8982   -2.2235    3.7934 C.ar    1  LIG1        0.1465
     41 C           3.5101   -3.0820    4.7075 C.ar    1  LIG1        0.0231
     42 C           3.0545   -3.1060    6.0262 C.ar    1  LIG1        0.1239
     43 O           3.6194   -3.9267    6.9574 O.3     1  LIG1       -0.5065
     44 C           2.0148   -2.2859    6.4442 C.ar    1  LIG1        0.0223
     45 C           3.1463   -1.9395    0.1510 C.ar    1  LIG1        0.0213
     46 C           3.7791   -3.1697   -0.0841 C.ar    1  LIG1       -0.0475
     47 C           4.3437   -3.4798   -1.3339 C.ar    1  LIG1       -0.0195
     48 C           4.2596   -2.5677   -2.3786 C.ar    1  LIG1        0.1169
     49 C           3.6329   -1.3540   -2.1870 C.ar    1  LIG1       -0.0195
     50 C           3.1203   -1.0480   -0.9235 C.ar    1  LIG1       -0.0475
     51 O           4.7958   -2.8168   -3.6045 O.3     1  LIG1       -0.5068
     52 O           0.5784    0.4158    3.6301 O.2     1  LIG1       -0.2830
     53 H           0.1986    0.0408    5.2973 H       1  LIG1        0.2922
     54 H           3.6541    2.4346    0.8793 H       1  LIG1        0.2100
     55 H           2.7280    2.5246   -2.3574 H       1  LIG1        0.2100
     56 H          -0.7542    2.5943   -3.1908 H       1  LIG1        0.0587
     57 H          -0.9621    0.9200   -2.5890 H       1  LIG1        0.0587
     58 H          -7.1619    1.4697   -0.7091 H       1  LIG1        0.0255
     59 H          -7.2426    1.9056   -2.4314 H       1  LIG1        0.0255
     60 H          -6.7118    3.0994   -1.2584 H       1  LIG1        0.0255
     61 H          -5.2031   -1.5965   -1.0132 H       1  LIG1        0.2100
     62 H          -4.1555   -1.6654   -3.8902 H       1  LIG1        0.2100
     63 H          -4.9470    1.1119   -4.6641 H       1  LIG1        0.2101
     64 H          -0.5522    3.3738    1.4222 H       1  LIG1        0.2102
     65 H           4.3208   -3.7234    4.3825 H       1  LIG1        0.0691
     66 H           4.3814   -4.3837    6.5659 H       1  LIG1        0.2921
     67 H           1.6641   -2.3144    7.4718 H       1  LIG1        0.0691
     68 H           3.8568   -3.9082    0.7113 H       1  LIG1        0.0626
     69 H           4.8442   -4.4328   -1.4675 H       1  LIG1        0.0654
     70 H           3.5596   -0.6341   -2.9982 H       1  LIG1        0.0654
     71 H           2.7305   -0.0615   -0.7775 H       1  LIG1        0.0626
     72 H           5.2315   -3.6838   -3.5849 H       1  LIG1        0.2921
@<TRIPOS>BOND
     1     1     2    1
     2     2     3   ar
     3     3     4   ar
     4     4     5   ar
     5     5     6    1
     6     7     9    1
     7     9    10    1
     8    10    12    1
     9    12    13    1
    10    12    14    1
    11    12    17    1
    12    18    19    1
    13    19    20    1
    14    20    21    1
    15    20    22    1
    16    22    24    1
    17    24    25    1
    18    24    26    1
    19    26    28    1
    20    28    29    1
    21    28    30    1
    22    20    30    1
    23    28    31    1
    24    24    33    1
    25     7    35    1
    26    14    35    1
    27     5    38   ar
    28    38    39   ar
    29    39    40   ar
    30     3    40   ar
    31    40    41   ar
    32    41    42   ar
    33    42    43    1
    34    42    44   ar
    35     2    44   ar
    36    38    45    1
    37    45    46   ar
    38    46    47   ar
    39    47    48   ar
    40    48    49   ar
    41    49    50   ar
    42    45    50   ar
    43    48    51    1
    44     4    52    2
    45     7     8    1
    46     7     6    1
    47    10    18    1
    48    10    11    1
    49    14    16    1
    50    14    15    1
    51    22    34    1
    52    22    23    1
    53    26    32    1
    54    26    27    1
    55    35    37    1
    56    35    36    1
    57     1    53    1
    58    16    54    1
    59    17    55    1
    60    18    56    1
    61    18    57    1
    62    31    58    1
    63    31    59    1
    64    31    60    1
    65    32    61    1
    66    33    62    1
    67    34    63    1
    68    37    64    1
    69    41    65    1
    70    43    66    1
    71    44    67    1
    72    46    68    1
    73    47    69    1
    74    49    70    1
    75    50    71    1
    76    51    72    1
