REMARK  Name = NuBBE_84
REMARK  15 active torsions:
REMARK  status: ('A' for Active; 'I' for Inactive)
REMARK    1  A    between atoms: C_1  and  C_2
REMARK    2  A    between atoms: C_4  and  C_34
REMARK    3  A    between atoms: C_6  and  C_23
REMARK    4  A    between atoms: C_9  and  C_11
REMARK    5  A    between atoms: C_13  and  O_14
REMARK    6  A    between atoms: O_14  and  C_15
REMARK    7  A    between atoms: C_16  and  O_21
REMARK    8  A    between atoms: C_17  and  O_18
REMARK    9  A    between atoms: O_18  and  C_19
REMARK   10  A    between atoms: O_21  and  C_22
REMARK   11  A    between atoms: C_25  and  O_26
REMARK   12  A    between atoms: O_26  and  C_27
REMARK   13  A    between atoms: C_28  and  O_33
REMARK   14  A    between atoms: C_29  and  O_30
REMARK   15  A    between atoms: O_30  and  C_31
REMARK                            x       y       z     vdW  Elec       q    Type
REMARK                         _______ _______ _______ _____ _____    ______ ____
ROOT
ATOM      1  C   LIG A   1      -1.546   0.708  -3.481  0.00  0.00    +0.011 C 
ATOM      2  C   LIG A   1      -0.110   0.597  -2.992  0.00  0.00    +0.025 C 
ATOM      3  C   LIG A   1       0.391   1.743  -2.122  0.00  0.00    +0.025 C 
ATOM      4  C   LIG A   1       1.664   1.124  -1.531  0.00  0.00    +0.152 C 
ATOM      5  O   LIG A   1       1.381  -0.276  -1.347  0.00  0.00    -0.364 OA
ATOM      6  C   LIG A   1       0.253  -0.640  -2.164  0.00  0.00    +0.152 C 
ATOM      7  C   LIG A   1       0.652   3.028  -2.893  0.00  0.00    +0.011 C 
ENDROOT
BRANCH   6   8
ATOM      8  C   LIG A   1      -0.762  -1.310  -1.266  0.00  0.00    -0.011 A 
ATOM      9  C   LIG A   1      -1.744  -0.638  -0.533  0.00  0.00    +0.056 A 
ATOM     10  C   LIG A   1      -2.676  -1.329   0.258  0.00  0.00    +0.166 A 
ATOM     11  C   LIG A   1      -2.592  -2.728   0.393  0.00  0.00    +0.203 A 
ATOM     12  C   LIG A   1      -1.585  -3.422  -0.319  0.00  0.00    +0.166 A 
ATOM     13  C   LIG A   1      -0.689  -2.699  -1.121  0.00  0.00    +0.056 A 
BRANCH  10  14
ATOM     14  O   LIG A   1      -3.524  -0.474   0.919  0.00  0.00    -0.491 OA
ATOM     15  C   LIG A   1      -4.875  -0.854   1.145  0.00  0.00    +0.277 C 
ENDBRANCH  10  14
BRANCH  12  16
ATOM     16  O   LIG A   1      -1.526  -4.790  -0.218  0.00  0.00    -0.491 OA
ATOM     17  C   LIG A   1      -0.490  -5.467  -0.925  0.00  0.00    +0.277 C 
ENDBRANCH  12  16
BRANCH  11  18
ATOM     18  O   LIG A   1      -3.516  -3.313   1.220  0.00  0.00    -0.488 OA
ATOM     19  C   LIG A   1      -3.159  -4.513   1.887  0.00  0.00    +0.277 C 
ENDBRANCH  11  18
ENDBRANCH   6   8
BRANCH   4  20
ATOM     20  C   LIG A   1       2.086   1.703  -0.200  0.00  0.00    -0.011 A 
ATOM     21  C   LIG A   1       3.340   2.320  -0.065  0.00  0.00    +0.056 A 
ATOM     22  C   LIG A   1       3.771   2.816   1.176  0.00  0.00    +0.165 A 
ATOM     23  C   LIG A   1       2.921   2.724   2.273  0.00  0.00    +0.201 A 
ATOM     24  C   LIG A   1       1.653   2.127   2.160  0.00  0.00    +0.165 A 
ATOM     25  C   LIG A   1       1.258   1.604   0.922  0.00  0.00    +0.056 A 
BRANCH  22  26
ATOM     26  O   LIG A   1       5.023   3.389   1.127  0.00  0.00    -0.491 OA
ATOM     27  C   LIG A   1       5.775   3.341   2.332  0.00  0.00    +0.277 C 
ENDBRANCH  22  26
BRANCH  24  28
ATOM     28  O   LIG A   1       0.903   2.117   3.302  0.00  0.00    -0.491 OA
ATOM     29  C   LIG A   1      -0.402   1.539   3.201  0.00  0.00    +0.277 C 
ENDBRANCH  24  28
BRANCH  23  30
ATOM     30  O   LIG A   1       3.272   3.228   3.504  0.00  0.00    -0.501 OA
ATOM     31  H   LIG A   1       2.522   3.030   4.078  0.00  0.00    +0.292 HD
ENDBRANCH  23  30
ENDBRANCH   4  20
TORSDOF 8
