@<TRIPOS>MOLECULE
NuBBE_2056
 35 38 0 0 0
SMALL
GASTEIGER

@<TRIPOS>ATOM
      1 O          -6.5460    0.2811    1.1078 O.2     1  LIG1       -0.2452
      2 C          -5.4256    0.7180    0.8458 C.ar    1  LIG1        0.3372
      3 O          -4.3088   -0.0954    0.7658 O.2     1  LIG1       -0.4219
      4 C          -3.0482    0.4197    0.3811 C.ar    1  LIG1        0.1463
      5 C          -1.9920   -0.4912    0.2327 C.ar    1  LIG1        0.0270
      6 C          -0.7301   -0.0520   -0.1942 C.ar    1  LIG1        0.1694
      7 O           0.2026   -1.0406   -0.3092 O.3     1  LIG1       -0.4854
      8 C           1.5171   -0.6933   -0.7575 C.3     1  LIG1        0.1185
      9 C           2.3032   -1.9638   -0.8657 C.3     1  LIG1        0.1216
     10 O           3.6704   -1.8111   -1.2858 O.3     1  LIG1       -0.3618
     11 C           3.4748   -2.3388    0.0345 C.3     1  LIG1        0.0938
     12 C           4.0043   -1.4358    1.1054 C.3     1  LIG1       -0.0335
     13 C           3.7923   -3.7955    0.1822 C.3     1  LIG1       -0.0335
     14 C          -0.5827    1.3039   -0.4448 C.ar    1  LIG1        0.2084
     15 O           0.5380    1.9459   -0.8825 O.3     1  LIG1       -0.4489
     16 C           0.0989    3.3156   -0.9194 C.3     1  LIG1        0.2334
     17 O          -1.2852    3.4764   -0.5686 O.3     1  LIG1       -0.4518
     18 C          -1.6328    2.1912   -0.2728 C.ar    1  LIG1        0.1805
     19 C          -2.8892    1.7790    0.1373 C.ar    1  LIG1        0.0632
     20 C          -4.0229    2.6710    0.2878 C.ar    1  LIG1       -0.0407
     21 C          -5.2152    2.1607    0.6119 C.ar    1  LIG1        0.0237
     22 H          -2.1582   -1.5466    0.4363 H       1  LIG1        0.0692
     23 H           1.9779    0.0011   -0.0493 H       1  LIG1        0.0724
     24 H           1.4644   -0.2396   -1.7539 H       1  LIG1        0.0724
     25 H           1.7381   -2.7458   -1.3585 H       1  LIG1        0.0659
     26 H           4.0551   -0.3910    0.7832 H       1  LIG1        0.0258
     27 H           5.0223   -1.7314    1.3848 H       1  LIG1        0.0258
     28 H           3.3774   -1.4945    1.9999 H       1  LIG1        0.0258
     29 H           4.8615   -3.9472    0.3621 H       1  LIG1        0.0258
     30 H           3.5197   -4.3678   -0.7108 H       1  LIG1        0.0258
     31 H           3.2400   -4.2128    1.0307 H       1  LIG1        0.0258
     32 H           0.7080    3.8950   -0.2165 H       1  LIG1        0.1166
     33 H           0.2531    3.7125   -1.9292 H       1  LIG1        0.1166
     34 H          -3.8857    3.7335    0.1215 H       1  LIG1        0.0628
     35 H          -6.0964    2.7895    0.7078 H       1  LIG1        0.0689
@<TRIPOS>BOND
     1     1     2    2
     2     2     3   ar
     3     3     4   ar
     4     4     5   ar
     5     5     6   ar
     6     6     7    1
     7     7     8    1
     8     8     9    1
     9     9    10    1
    10    10    11    1
    11    11    12    1
    12     9    11    1
    13    11    13    1
    14     6    14   ar
    15    14    15    1
    16    15    16    1
    17    16    17    1
    18    14    18   ar
    19    17    18    1
    20    18    19   ar
    21     4    19   ar
    22    19    20   ar
    23    20    21   ar
    24     2    21   ar
    25     5    22    1
    26     8    23    1
    27     8    24    1
    28     9    25    1
    29    12    26    1
    30    12    27    1
    31    12    28    1
    32    13    29    1
    33    13    30    1
    34    13    31    1
    35    16    32    1
    36    16    33    1
    37    20    34    1
    38    21    35    1
