REMARK  Name = NuBBE_2513
REMARK  4 active torsions:
REMARK  status: ('A' for Active; 'I' for Inactive)
REMARK    1  A    between atoms: C_1  and  O_2
REMARK    2  A    between atoms: O_2  and  C_3
REMARK    3  A    between atoms: C_11  and  O_12
REMARK    4  A    between atoms: O_12  and  C_13
REMARK                            x       y       z     vdW  Elec       q    Type
REMARK                         _______ _______ _______ _____ _____    ______ ____
ROOT
ATOM      1  C   LIG A   1      -1.760   3.904  -0.009  0.00  0.00    +0.124 A 
ATOM      2  C   LIG A   1      -0.364   3.819   0.045  0.00  0.00    +0.046 A 
ATOM      3  C   LIG A   1       0.274   2.576   0.045  0.00  0.00    +0.019 A 
ATOM      4  C   LIG A   1      -0.499   1.416  -0.015  0.00  0.00    +0.059 A 
ATOM      5  C   LIG A   1       0.031   0.091  -0.013  0.00  0.00    +0.146 A 
ATOM      6  O   LIG A   1       1.343  -0.173   0.109  0.00  0.00    -0.454 OA
ATOM      7  C   LIG A   1       1.439  -1.534   0.074  0.00  0.00    +0.140 A 
ATOM      8  C   LIG A   1       2.631  -2.240   0.166  0.00  0.00    +0.092 A 
ATOM      9  C   LIG A   1       2.542  -3.632   0.098  0.00  0.00    +0.124 A 
ATOM     10  C   LIG A   1       1.298  -4.262  -0.041  0.00  0.00    +0.046 A 
ATOM     11  C   LIG A   1       0.104  -3.525  -0.125  0.00  0.00    +0.015 A 
ATOM     12  C   LIG A   1       0.183  -2.124  -0.069  0.00  0.00    +0.027 A 
ATOM     13  C   LIG A   1      -0.727  -1.045  -0.124  0.00  0.00    +0.043 A 
ATOM     14  C   LIG A   1      -2.189  -0.937  -0.279  0.00  0.00    +0.268 C 
ATOM     15  O   LIG A   1      -2.744   0.401  -0.123  0.00  0.00    -0.486 OA
ATOM     16  C   LIG A   1      -1.899   1.492  -0.077  0.00  0.00    +0.135 A 
ATOM     17  C   LIG A   1      -2.523   2.735  -0.068  0.00  0.00    +0.092 A 
ENDROOT
BRANCH   1  19
ATOM     18  C   LIG A   1      -3.688   5.278  -0.041  0.00  0.00    +0.277 C 
ATOM     19  O   LIG A   1      -2.268   5.175   0.003  0.00  0.00    -0.495 OA
ENDBRANCH   1  19
BRANCH   9  20
ATOM     20  O   LIG A   1       3.619  -4.481   0.156  0.00  0.00    -0.495 OA
ATOM     21  C   LIG A   1       4.893  -3.854   0.281  0.00  0.00    +0.277 C 
ENDBRANCH   9  20
TORSDOF 2
