REMARK  Name = NuBBE_576
REMARK  6 active torsions:
REMARK  status: ('A' for Active; 'I' for Inactive)
REMARK    1  A    between atoms: C_5  and  C_6
REMARK    2  A    between atoms: C_5  and  O_7
REMARK    3  A    between atoms: C_13  and  C_15
REMARK    4  A    between atoms: C_22  and  C_23
REMARK    5  A    between atoms: C_22  and  C_24
REMARK    6  A    between atoms: C_26  and  C_28
REMARK                            x       y       z     vdW  Elec       q    Type
REMARK                         _______ _______ _______ _____ _____    ______ ____
ROOT
ATOM      1  O   LIG A   1      -2.737  -0.735  -1.841  0.00  0.00    -0.292 OA
ATOM      2  C   LIG A   1      -1.531  -0.621  -1.582  0.00  0.00    +0.163 C 
ATOM      3  C   LIG A   1      -0.876  -1.775  -0.875  0.00  0.00    +0.008 C 
ATOM      4  C   LIG A   1      -1.272  -2.974  -1.726  0.00  0.00    +0.081 C 
ATOM      5  C   LIG A   1      -0.149  -3.950  -1.509  0.00  0.00    +0.129 C 
ATOM      6  C   LIG A   1       1.136  -3.507  -2.214  0.00  0.00    +0.050 C 
ATOM      7  C   LIG A   1      -0.050  -3.663  -0.033  0.00  0.00    +0.193 C 
ATOM      8  O   LIG A   1       0.089  -4.508   0.861  0.00  0.00    -0.289 OA
ATOM      9  C   LIG A   1      -0.237  -2.179   0.259  0.00  0.00    +0.036 C 
ATOM     10  C   LIG A   1       0.169  -1.788   1.630  0.00  0.00    +0.184 C 
ATOM     11  C   LIG A   1       1.167  -0.887   2.368  0.00  0.00    +0.098 C 
ATOM     12  O   LIG A   1       1.582  -2.136   1.900  0.00  0.00    -0.360 OA
ATOM     13  C   LIG A   1       1.118  -0.843   3.884  0.00  0.00    +0.044 C 
ATOM     14  C   LIG A   1       1.755   0.322   1.716  0.00  0.00    +0.038 C 
ATOM     15  C   LIG A   1       0.635   1.341   1.677  0.00  0.00    +0.007 C 
ATOM     16  C   LIG A   1       0.805   2.455   0.711  0.00  0.00    -0.001 C 
ATOM     17  C   LIG A   1       0.019   2.574  -0.581  0.00  0.00    -0.001 C 
ATOM     18  C   LIG A   1      -0.336   3.456   0.615  0.00  0.00    -0.029 C 
ATOM     19  C   LIG A   1       0.004   4.915   0.552  0.00  0.00    +0.011 C 
ATOM     20  C   LIG A   1      -1.635   3.200   1.375  0.00  0.00    +0.011 C 
ATOM     21  C   LIG A   1      -1.051   1.635  -1.007  0.00  0.00    +0.015 C 
ATOM     22  C   LIG A   1      -0.804   0.617  -2.098  0.00  0.00    +0.057 C 
ATOM     23  C   LIG A   1       0.565   0.427  -2.729  0.00  0.00    +0.016 C 
ENDROOT
BRANCH   5  24
ATOM     24  O   LIG A   1      -0.527  -5.226  -1.961  0.00  0.00    -0.381 OA
ATOM     25  H   LIG A   1      -0.911  -5.133  -2.849  0.00  0.00    +0.211 HD
ENDBRANCH   5  24
TORSDOF 1
