@<TRIPOS>MOLECULE
NuBBE_290
 44 44 0 0 0
SMALL
GASTEIGER

@<TRIPOS>ATOM
      1 O           1.9866    1.0090    0.2764 O.3     1  LIG1       -0.5061
      2 C           2.2716    0.9373   -1.0434 C.ar    1  LIG1        0.1274
      3 C           1.3236    1.2220   -2.0338 C.ar    1  LIG1        0.0596
      4 C          -0.1926    1.2003   -1.8501 C.2     1  LIG1        0.1694
      5 C          -0.8264    1.4397   -0.4713 C.3     1  LIG1        0.0392
      6 C          -1.1540    0.2134    0.4157 C.3     1  LIG1        0.0706
      7 C           0.0962   -0.5773    0.7154 C.3     1  LIG1       -0.0357
      8 O          -1.5611    0.7567    1.6854 O.3     1  LIG1       -0.3884
      9 C          -2.2578   -0.6957   -0.1613 C.3     1  LIG1       -0.0204
     10 C          -2.5670   -1.9916    0.6266 C.3     1  LIG1       -0.0319
     11 C          -3.1500   -1.7855    2.0023 C.2     1  LIG1       -0.0852
     12 C          -2.5104   -1.7804    3.1915 C.2     1  LIG1       -0.0796
     13 C          -1.0452   -2.0113    3.4087 C.3     1  LIG1       -0.0440
     14 C          -3.2388   -1.4785    4.4675 C.3     1  LIG1       -0.0440
     15 O          -0.9004    1.0346   -2.8333 O.2     1  LIG1       -0.2918
     16 C           1.8289    1.5464   -3.2985 C.ar    1  LIG1       -0.0338
     17 C           3.2272    1.5491   -3.5199 C.ar    1  LIG1        0.0597
     18 C           3.7838    2.0706   -4.7655 C.2     1  LIG1        0.3368
     19 O           5.1133    2.0622   -4.7983 O.3     1  LIG1       -0.4771
     20 O           3.1259    2.5090   -5.7209 O.2     1  LIG1       -0.2451
     21 C           4.1150    1.1293   -2.5236 C.ar    1  LIG1       -0.0443
     22 C           3.6272    0.7688   -1.2938 C.ar    1  LIG1       -0.0187
     23 H           2.6508    0.5166    0.7932 H       1  LIG1        0.2922
     24 H          -1.7624    1.9903   -0.6515 H       1  LIG1        0.0373
     25 H          -0.2166    2.1685    0.0747 H       1  LIG1        0.0373
     26 H           0.6857    0.0206    1.4087 H       1  LIG1        0.0257
     27 H           0.5945   -0.9346   -0.1871 H       1  LIG1        0.0257
     28 H           0.0062   -1.4612    1.3053 H       1  LIG1        0.0257
     29 H          -2.4673    1.0955    1.6099 H       1  LIG1        0.2102
     30 H          -1.9668   -0.9973   -1.1756 H       1  LIG1        0.0296
     31 H          -3.1857   -0.1183   -0.2521 H       1  LIG1        0.0296
     32 H          -1.6910   -2.6470    0.6562 H       1  LIG1        0.0308
     33 H          -3.3076   -2.5584    0.0455 H       1  LIG1        0.0308
     34 H          -4.2290   -1.6316    2.0038 H       1  LIG1        0.0571
     35 H          -0.5873   -2.4977    2.5567 H       1  LIG1        0.0274
     36 H          -0.8583   -2.7198    4.2162 H       1  LIG1        0.0274
     37 H          -0.5359   -1.0670    3.6452 H       1  LIG1        0.0274
     38 H          -4.2307   -1.0566    4.2866 H       1  LIG1        0.0274
     39 H          -2.6756   -0.7488    5.0612 H       1  LIG1        0.0274
     40 H          -3.3421   -2.3964    5.0525 H       1  LIG1        0.0274
     41 H           1.1573    1.8571   -4.0987 H       1  LIG1        0.0634
     42 H           5.3641    2.4399   -5.6632 H       1  LIG1        0.2954
     43 H           5.1916    1.1385   -2.6624 H       1  LIG1        0.0627
     44 H           4.3104    0.4796   -0.5006 H       1  LIG1        0.0654
@<TRIPOS>BOND
     1     1     2    1
     2     2     3   ar
     3     3     4    1
     4     4     5    1
     5     5     6    1
     6     6     7    1
     7     6     8    1
     8     6     9    1
     9     9    10    1
    10    10    11    1
    11    11    12    2
    12    12    13    1
    13    12    14    1
    14     4    15    2
    15     3    16   ar
    16    16    17   ar
    17    17    18    1
    18    18    19    1
    19    18    20    2
    20    17    21   ar
    21    21    22   ar
    22     2    22   ar
    23     1    23    1
    24     5    24    1
    25     5    25    1
    26     7    26    1
    27     7    27    1
    28     7    28    1
    29     8    29    1
    30     9    30    1
    31     9    31    1
    32    10    32    1
    33    10    33    1
    34    11    34    1
    35    13    35    1
    36    13    36    1
    37    13    37    1
    38    14    38    1
    39    14    39    1
    40    14    40    1
    41    16    41    1
    42    19    42    1
    43    21    43    1
    44    22    44    1
