REMARK  Name = NuBBE_326
REMARK  4 active torsions:
REMARK  status: ('A' for Active; 'I' for Inactive)
REMARK    1  A    between atoms: C_23  and  C_24
REMARK    2  A    between atoms: C_24  and  O_25
REMARK    3  A    between atoms: O_25  and  C_26
REMARK    4  A    between atoms: C_30  and  C_32
REMARK                            x       y       z     vdW  Elec       q    Type
REMARK                         _______ _______ _______ _____ _____    ______ ____
ROOT
ATOM      1  H   LIG A   1       4.730   0.386   1.059  0.00  0.00    +0.155 HD
ATOM      2  N   LIG A   1       3.763   0.665   1.114  0.00  0.00    -0.284 N 
ATOM      3  C   LIG A   1       3.265   1.929   0.867  0.00  0.00    +0.038 A 
ATOM      4  C   LIG A   1       3.994   3.040   0.499  0.00  0.00    +0.023 A 
ATOM      5  C   LIG A   1       3.287   4.221   0.276  0.00  0.00    +0.002 A 
ATOM      6  C   LIG A   1       1.888   4.256   0.423  0.00  0.00    +0.000 A 
ATOM      7  C   LIG A   1       1.172   3.113   0.805  0.00  0.00    +0.006 A 
ATOM      8  C   LIG A   1       1.878   1.945   1.033  0.00  0.00    -0.010 A 
ATOM      9  C   LIG A   1       1.408   0.572   1.450  0.00  0.00    +0.090 C 
ATOM     10  C   LIG A   1       2.752  -0.227   1.446  0.00  0.00    +0.229 C 
ATOM     11  O   LIG A   1       2.950  -1.401   1.718  0.00  0.00    -0.274 OA
ATOM     12  C   LIG A   1       0.299  -0.055   0.599  0.00  0.00    +0.077 C 
ATOM     13  C   LIG A   1       0.653  -0.508  -0.810  0.00  0.00    +0.029 C 
ATOM     14  C   LIG A   1      -0.456  -1.398  -1.418  0.00  0.00    +0.038 C 
ATOM     15  C   LIG A   1      -0.706  -2.579  -0.446  0.00  0.00    +0.051 C 
ATOM     16  C   LIG A   1      -1.120  -2.045   0.954  0.00  0.00    +0.092 C 
ATOM     17  N   LIG A   1      -0.073  -1.178   1.459  0.00  0.00    -0.298 NA
ATOM     18  C   LIG A   1      -0.256  -0.616   2.790  0.00  0.00    +0.086 C 
ATOM     19  C   LIG A   1       0.796   0.507   2.864  0.00  0.00    +0.038 C 
ATOM     20  C   LIG A   1      -1.806  -0.792  -1.743  0.00  0.00    +0.074 C 
ATOM     21  C   LIG A   1      -2.917  -1.551  -1.727  0.00  0.00    +0.198 C 
ATOM     22  O   LIG A   1      -2.997  -2.873  -1.380  0.00  0.00    -0.496 OA
ATOM     23  C   LIG A   1      -1.773  -3.529  -1.020  0.00  0.00    +0.174 C 
ATOM     24  C   LIG A   1      -1.278  -4.317  -2.234  0.00  0.00    +0.052 C 
ENDROOT
BRANCH  20  25
ATOM     25  C   LIG A   1      -1.954   0.665  -1.995  0.00  0.00    +0.338 C 
ATOM     26  O   LIG A   1      -1.087   1.377  -2.458  0.00  0.00    -0.245 OA
BRANCH  25  27
ATOM     27  O   LIG A   1      -3.147   1.089  -1.494  0.00  0.00    -0.465 OA
ATOM     28  C   LIG A   1      -3.307   2.507  -1.446  0.00  0.00    +0.280 C 
ENDBRANCH  25  27
ENDBRANCH  20  25
TORSDOF 2
