REMARK  Name = NuBBE_1961
REMARK  3 active torsions:
REMARK  status: ('A' for Active; 'I' for Inactive)
REMARK    1  A    between atoms: C_1  and  C_2
REMARK    2  A    between atoms: C_2  and  C_3
REMARK    3  A    between atoms: N_22  and  C_23
REMARK                            x       y       z     vdW  Elec       q    Type
REMARK                         _______ _______ _______ _____ _____    ______ ____
ROOT
ATOM      1  C   LIG A   1      -1.430  -0.905  -0.661  0.00  0.00    +0.018 C 
ATOM      2  C   LIG A   1      -0.362   0.178  -1.057  0.00  0.00    +0.093 C 
ATOM      3  C   LIG A   1       0.395   0.616   0.179  0.00  0.00    +0.003 A 
ATOM      4  C   LIG A   1       1.027   1.847   0.513  0.00  0.00    +0.005 A 
ATOM      5  C   LIG A   1       1.194   3.082  -0.145  0.00  0.00    +0.010 A 
ATOM      6  C   LIG A   1       1.889   4.114   0.495  0.00  0.00    +0.001 A 
ATOM      7  C   LIG A   1       2.417   3.932   1.771  0.00  0.00    +0.002 A 
ATOM      8  C   LIG A   1       2.267   2.717   2.446  0.00  0.00    +0.026 A 
ATOM      9  C   LIG A   1       1.567   1.693   1.795  0.00  0.00    +0.047 A 
ATOM     10  N   LIG A   1       1.275   0.411   2.218  0.00  0.00    -0.354 N 
ATOM     11  H   LIG A   1       1.557   0.027   3.107  0.00  0.00    +0.166 HD
ATOM     12  C   LIG A   1       0.554  -0.234   1.259  0.00  0.00    +0.048 A 
ATOM     13  C   LIG A   1       0.023  -1.554   1.320  0.00  0.00    -0.027 C 
ATOM     14  C   LIG A   1      -0.667  -2.076   0.038  0.00  0.00    +0.026 C 
ATOM     15  C   LIG A   1       0.405  -2.633  -0.929  0.00  0.00    +0.024 C 
ATOM     16  C   LIG A   1       0.563  -1.809  -2.216  0.00  0.00    +0.085 C 
ATOM     17  N   LIG A   1       0.659  -0.367  -1.978  0.00  0.00    -0.298 NA
ATOM     18  C   LIG A   1       0.716   0.377  -3.231  0.00  0.00    +0.105 C 
ATOM     19  C   LIG A   1       0.061  -2.285   2.444  0.00  0.00    +0.014 C 
ENDROOT
BRANCH   1  21
ATOM     20  C   LIG A   1      -3.691  -1.301   0.475  0.00  0.00    +0.004 C 
ATOM     21  C   LIG A   1      -2.588  -0.298   0.165  0.00  0.00    +0.002 C 
ENDBRANCH   1  21
TORSDOF 1
