@<TRIPOS>MOLECULE
NuBBE_2296
 51 54 0 0 0
SMALL
GASTEIGER

@<TRIPOS>ATOM
      1 C          -4.9918    0.5973   -1.2119 C.2     1  LIG1       -0.1026
      2 C          -3.7955    0.5863   -1.8130 C.2     1  LIG1       -0.0902
      3 C          -2.7083    1.6114   -1.5882 C.3     1  LIG1       -0.0230
      4 C          -1.3377    1.0629   -1.1098 C.3     1  LIG1        0.0282
      5 C          -0.7385    0.1283   -2.1633 C.2     1  LIG1       -0.0294
      6 C           0.5811   -0.0673   -2.3210 C.2     1  LIG1        0.1621
      7 O           1.1641   -0.9607   -3.2010 O.2     1  LIG1       -0.4918
      8 C           0.4173   -1.2727   -4.3726 C.3     1  LIG1        0.0789
      9 C           1.5292    0.6673   -1.3765 C.2     1  LIG1        0.2316
     10 C           0.8667    1.5057   -0.2461 C.3     1  LIG1        0.1675
     11 O           1.6208    2.5898    0.3152 O.3     1  LIG1       -0.3654
     12 C           2.8578    2.2621    0.9238 C.3     1  LIG1        0.0379
     13 O           2.7360    0.5637   -1.5021 O.2     1  LIG1       -0.2856
     14 C          -0.3489    2.2203   -0.8839 C.3     1  LIG1        0.1017
     15 O          -0.0327    2.9335   -2.0822 O.3     1  LIG1       -0.3876
     16 H          -0.7664    2.9662   -0.1953 H       1  LIG1        0.0636
     17 C          -1.2732    0.2981    0.2567 C.3     1  LIG1       -0.0219
     18 H          -1.3681   -0.7787    0.0640 H       1  LIG1        0.0314
     19 C          -2.3506    0.6222    1.2937 C.3     1  LIG1       -0.0609
     20 C           0.1529    0.6358    0.8505 C.3     1  LIG1        0.0267
     21 H           0.0025    1.3120    1.7071 H       1  LIG1        0.0385
     22 C           0.8579   -0.6010    1.4173 C.ar    1  LIG1       -0.0371
     23 C           1.1958   -0.6640    2.7871 C.ar    1  LIG1       -0.0126
     24 C           1.7856   -1.8192    3.2792 C.ar    1  LIG1        0.1665
     25 O           2.1979   -2.0305    4.5605 O.3     1  LIG1       -0.4526
     26 C           2.7707   -3.3537    4.4499 C.3     1  LIG1        0.2332
     27 O           2.5903   -3.9463    3.1497 O.3     1  LIG1       -0.4526
     28 C           2.0256   -2.9087    2.4795 C.ar    1  LIG1        0.1662
     29 C           1.7171   -2.8957    1.1439 C.ar    1  LIG1       -0.0159
     30 C           1.1408   -1.7346    0.6187 C.ar    1  LIG1       -0.0545
     31 H          -5.7274   -0.1714   -1.4314 H       1  LIG1        0.0532
     32 H          -5.2657    1.3581   -0.4877 H       1  LIG1        0.0532
     33 H          -3.6094   -0.1929   -2.5480 H       1  LIG1        0.0567
     34 H          -3.0605    2.3797   -0.8874 H       1  LIG1        0.0317
     35 H          -2.5690    2.1327   -2.5469 H       1  LIG1        0.0317
     36 H          -1.4366   -0.4455   -2.7491 H       1  LIG1        0.0616
     37 H           0.9903   -2.0013   -4.9536 H       1  LIG1        0.0660
     38 H           0.2867   -0.3719   -4.9804 H       1  LIG1        0.0660
     39 H          -0.5495   -1.7332   -4.1469 H       1  LIG1        0.0660
     40 H           3.6498    2.2100    0.1738 H       1  LIG1        0.0524
     41 H           2.8131    1.3393    1.5007 H       1  LIG1        0.0524
     42 H           3.1081    3.0769    1.6111 H       1  LIG1        0.0524
     43 H           0.7619    3.4695   -1.8887 H       1  LIG1        0.2100
     44 H          -2.3141    1.6646    1.6230 H       1  LIG1        0.0233
     45 H          -2.2191   -0.0174    2.1746 H       1  LIG1        0.0233
     46 H          -3.3524    0.4151    0.9179 H       1  LIG1        0.0233
     47 H           1.0086    0.1655    3.4626 H       1  LIG1        0.0658
     48 H           2.3081   -4.0037    5.2012 H       1  LIG1        0.1166
     49 H           3.8470   -3.2954    4.6539 H       1  LIG1        0.1166
     50 H           1.9200   -3.7518    0.5106 H       1  LIG1        0.0655
     51 H           0.9111   -1.7567   -0.4394 H       1  LIG1        0.0622
@<TRIPOS>BOND
     1     1     2    2
     2     2     3    1
     3     4     5    1
     4     5     6    2
     5     7     8    1
     6     6     9    1
     7     9    10    1
     8    11    12    1
     9     4    14    1
    10    10    14    1
    11     4    17    1
    12    17    20    1
    13    10    20    1
    14    22    23   ar
    15    23    24   ar
    16    24    25    1
    17    25    26    1
    18    26    27    1
    19    24    28   ar
    20    27    28    1
    21    28    29   ar
    22    29    30   ar
    23    22    30   ar
    24     3     4    1
    25     6     7    1
    26     9    13    2
    27    10    11    1
    28    14    15    1
    29    14    16    1
    30    17    18    1
    31    17    19    1
    32    20    22    1
    33    20    21    1
    34     1    31    1
    35     1    32    1
    36     2    33    1
    37     3    34    1
    38     3    35    1
    39     5    36    1
    40     8    37    1
    41     8    38    1
    42     8    39    1
    43    12    40    1
    44    12    41    1
    45    12    42    1
    46    15    43    1
    47    19    44    1
    48    19    45    1
    49    19    46    1
    50    23    47    1
    51    26    48    1
    52    26    49    1
    53    29    50    1
    54    30    51    1
