@<TRIPOS>MOLECULE
NuBBE_488
 49 53 0 0 0
SMALL
GASTEIGER

@<TRIPOS>ATOM
      1 H           0.7459    2.4563   -1.8532 H       1  LIG1        0.0356
      2 C           0.9716    1.5820   -1.2303 C.3     1  LIG1        0.0205
      3 C           1.7379    0.5326   -1.9926 C.3     1  LIG1        0.0205
      4 H           2.4127    1.0029   -2.7192 H       1  LIG1        0.0356
      5 C           0.6357   -0.2206   -2.6863 C.3     1  LIG1        0.0544
      6 O          -0.4995   -0.1977   -1.8145 O.3     1  LIG1       -0.3712
      7 C          -0.3150    0.8500   -0.8367 C.3     1  LIG1        0.0891
      8 H          -0.2256    0.3477    0.1323 H       1  LIG1        0.0650
      9 C          -1.5299    1.7583   -0.7954 C.ar    1  LIG1       -0.0149
     10 C          -1.8932    2.3872    0.4221 C.ar    1  LIG1       -0.0524
     11 C          -3.0068    3.2335    0.4955 C.ar    1  LIG1       -0.0158
     12 C          -3.7357    3.4396   -0.6508 C.ar    1  LIG1        0.1662
     13 O          -4.8412    4.2249   -0.7648 O.3     1  LIG1       -0.4526
     14 C          -5.1584    4.0478   -2.1607 C.3     1  LIG1        0.2332
     15 O          -4.2408    3.1741   -2.8518 O.3     1  LIG1       -0.4526
     16 C          -3.3943    2.8403   -1.8413 C.ar    1  LIG1        0.1666
     17 C          -2.3029    2.0017   -1.9439 C.ar    1  LIG1       -0.0105
     18 C           2.5989   -0.1484   -0.9193 C.3     1  LIG1        0.0891
     19 H           3.5709   -0.4128   -1.3550 H       1  LIG1        0.0650
     20 O           2.8723    0.9065    0.0373 O.3     1  LIG1       -0.3712
     21 C           1.8956    1.9498   -0.0965 C.3     1  LIG1        0.0544
     22 C           2.1180   -1.3912   -0.1843 C.ar    1  LIG1       -0.0149
     23 C           2.0073   -2.6228   -0.8396 C.ar    1  LIG1       -0.0524
     24 C           1.5910   -3.7661   -0.1464 C.ar    1  LIG1       -0.0160
     25 C           1.2959   -3.7183    1.2217 C.ar    1  LIG1        0.1615
     26 C           1.4758   -2.5142    1.9134 C.ar    1  LIG1        0.1618
     27 O           1.2493   -2.4787    3.2645 O.3     1  LIG1       -0.4914
     28 C           2.0571   -1.5742    4.0118 C.3     1  LIG1        0.0790
     29 C           1.8604   -1.3684    1.1994 C.ar    1  LIG1       -0.0107
     30 O           0.9137   -4.9278    1.7442 O.3     1  LIG1       -0.4915
     31 C           0.0667   -4.8890    2.8871 C.3     1  LIG1        0.0790
     32 H           0.8835   -1.2432   -2.9728 H       1  LIG1        0.0564
     33 H           0.3429    0.3091   -3.6015 H       1  LIG1        0.0564
     34 H          -1.3134    2.2061    1.3242 H       1  LIG1        0.0622
     35 H          -3.2911    3.7093    1.4296 H       1  LIG1        0.0655
     36 H          -5.1429    5.0283   -2.6502 H       1  LIG1        0.1166
     37 H          -6.1692    3.6317   -2.2417 H       1  LIG1        0.1166
     38 H          -2.0661    1.5342   -2.8947 H       1  LIG1        0.0659
     39 H           2.4465    2.8683   -0.3243 H       1  LIG1        0.0564
     40 H           1.3803    2.0947    0.8577 H       1  LIG1        0.0564
     41 H           2.2477   -2.7183   -1.8955 H       1  LIG1        0.0622
     42 H           1.4933   -4.7099   -0.6792 H       1  LIG1        0.0655
     43 H           3.1196   -1.6881    3.7697 H       1  LIG1        0.0660
     44 H           1.9270   -1.8109    5.0721 H       1  LIG1        0.0660
     45 H           1.7272   -0.5409    3.8675 H       1  LIG1        0.0660
     46 H           1.9704   -0.4274    1.7274 H       1  LIG1        0.0659
     47 H          -0.3780   -5.8821    3.0061 H       1  LIG1        0.0660
     48 H          -0.7535   -4.1734    2.7624 H       1  LIG1        0.0660
     49 H           0.6419   -4.6923    3.7964 H       1  LIG1        0.0660
@<TRIPOS>BOND
     1     1     2    1
     2     2     3    1
     3     3     4    1
     4     3     5    1
     5     5     6    1
     6     6     7    1
     7     2     7    1
     8     9    10   ar
     9    10    11   ar
    10    11    12   ar
    11    12    13    1
    12    13    14    1
    13    14    15    1
    14    15    16    1
    15    12    16   ar
    16    16    17   ar
    17     9    17   ar
    18     3    18    1
    19    18    20    1
    20    20    21    1
    21     2    21    1
    22    22    23   ar
    23    23    24   ar
    24    24    25   ar
    25    25    26   ar
    26    26    27    1
    27    27    28    1
    28    26    29   ar
    29    22    29   ar
    30    25    30    1
    31    30    31    1
    32     7     9    1
    33     7     8    1
    34    18    22    1
    35    18    19    1
    36     5    32    1
    37     5    33    1
    38    10    34    1
    39    11    35    1
    40    14    36    1
    41    14    37    1
    42    17    38    1
    43    21    39    1
    44    21    40    1
    45    23    41    1
    46    24    42    1
    47    28    43    1
    48    28    44    1
    49    28    45    1
    50    29    46    1
    51    31    47    1
    52    31    48    1
    53    31    49    1
