@<TRIPOS>MOLECULE
NuBBE_419
 70 73 0 0 0
SMALL
GASTEIGER

@<TRIPOS>ATOM
      1 H          -2.6121    2.6811    2.9305 H       1  LIG1        0.0358
      2 C          -1.6376    3.1728    3.0414 C.3     1  LIG1        0.0050
      3 C          -1.0546    3.5295    1.6589 C.3     1  LIG1        0.0338
      4 C          -0.3756    2.3189    1.0130 C.3     1  LIG1        0.2072
      5 H           0.0935    2.6445    0.0785 H       1  LIG1        0.1059
      6 O           0.6676    1.7968    1.8576 O.2     1  LIG1       -0.4702
      7 C           0.3364    1.6584    3.1810 C.2     1  LIG1        0.0981
      8 C          -0.7207    2.2292    3.7809 C.2     1  LIG1        0.0742
      9 C          -0.9501    1.8715    5.1992 C.2     1  LIG1        0.3360
     10 O          -2.2146    2.1193    5.5636 O.3     1  LIG1       -0.4773
     11 O          -0.1473    1.3666    5.9614 O.2     1  LIG1       -0.2454
     12 O          -1.3644    1.3226    0.6799 O.3     1  LIG1       -0.3084
     13 C          -0.7624    0.2162    0.0064 C.3     1  LIG1        0.2029
     14 H           0.1226   -0.0773    0.5789 H       1  LIG1        0.0951
     15 O          -0.2556    0.5630   -1.2898 O.3     1  LIG1       -0.3394
     16 C          -1.2203    0.7104   -2.3454 C.3     1  LIG1        0.1131
     17 H          -0.6170    0.7922   -3.2591 H       1  LIG1        0.0647
     18 C          -2.0618   -0.5654   -2.4966 C.3     1  LIG1        0.1130
     19 H          -2.8294   -0.4250   -3.2643 H       1  LIG1        0.0647
     20 C          -2.7194   -0.9563   -1.1649 C.3     1  LIG1        0.1251
     21 H          -3.1722   -1.9491   -1.2917 H       1  LIG1        0.0659
     22 O          -3.7798   -0.0433   -0.8719 O.3     1  LIG1       -0.3853
     23 O          -1.2233   -1.6336   -2.9674 O.3     1  LIG1       -0.3864
     24 C          -2.0335    2.0126   -2.2526 C.3     1  LIG1        0.0730
     25 O          -2.9668    2.1311   -3.3227 O.3     1  LIG1       -0.3924
     26 C          -1.6855   -1.0293   -0.0296 C.3     1  LIG1        0.1820
     27 H          -2.2109   -1.1492    0.9287 H       1  LIG1        0.0813
     28 O          -0.8639   -2.1995   -0.2838 O.3     1  LIG1       -0.4504
     29 C          -0.1723   -2.6969    0.7559 C.2     1  LIG1        0.3324
     30 C           0.7694   -3.6999    0.2295 C.2     1  LIG1        0.0231
     31 C           1.7072   -3.3007   -0.6478 C.2     1  LIG1       -0.0478
     32 C           2.6089   -4.1835   -1.3942 C.ar    1  LIG1       -0.0246
     33 C           3.8240   -3.6662   -1.8589 C.ar    1  LIG1       -0.0511
     34 C           4.6449   -4.4256   -2.6968 C.ar    1  LIG1       -0.0194
     35 C           4.2540   -5.7009   -3.1028 C.ar    1  LIG1        0.1201
     36 C           3.0559   -6.2324   -2.6281 C.ar    1  LIG1       -0.0194
     37 C           2.2366   -5.4760   -1.7829 C.ar    1  LIG1       -0.0511
     38 O           5.1248   -6.3420   -3.9397 O.3     1  LIG1       -0.4951
     39 C           4.5425   -7.3122   -4.8037 C.3     1  LIG1        0.0788
     40 O          -0.2597   -2.3648    1.9285 O.2     1  LIG1       -0.2456
     41 H          -1.8705    3.8881    1.0159 H       1  LIG1        0.0370
     42 C          -1.8144    4.5553    3.7068 C.3     1  LIG1       -0.0190
     43 C          -0.8663    5.5276    2.9919 C.3     1  LIG1        0.0588
     44 H          -0.1909    6.0285    3.6943 H       1  LIG1        0.0596
     45 C          -0.0785    4.6812    1.9897 C.3     1  LIG1       -0.0087
     46 H           0.8004    4.2895    2.5178 H       1  LIG1        0.0328
     47 C           0.4329    5.4323    0.7693 C.3     1  LIG1       -0.0596
     48 O          -1.6278    6.5247    2.3242 O.3     1  LIG1       -0.3915
     49 H           1.0597    1.0249    3.6839 H       1  LIG1        0.1029
     50 H          -2.2462    1.8020    6.4905 H       1  LIG1        0.2954
     51 H          -4.2298   -0.3591   -0.0671 H       1  LIG1        0.2101
     52 H          -0.4227   -1.6439   -2.4082 H       1  LIG1        0.2100
     53 H          -2.5716    2.1304   -1.3101 H       1  LIG1        0.0584
     54 H          -1.3480    2.8648   -2.3178 H       1  LIG1        0.0584
     55 H          -3.7669    1.6413   -3.0552 H       1  LIG1        0.2095
     56 H           0.6316   -4.7207    0.5710 H       1  LIG1        0.0689
     57 H           1.8075   -2.2435   -0.8783 H       1  LIG1        0.0626
     58 H           4.1390   -2.6605   -1.5895 H       1  LIG1        0.0625
     59 H           5.5809   -4.0066   -3.0580 H       1  LIG1        0.0654
     60 H           2.7280   -7.2300   -2.8993 H       1  LIG1        0.0654
     61 H           1.2899   -5.9049   -1.4636 H       1  LIG1        0.0625
     62 H           5.3221   -7.6603   -5.4879 H       1  LIG1        0.0660
     63 H           3.7390   -6.8720   -5.4048 H       1  LIG1        0.0660
     64 H           4.1849   -8.1825   -4.2451 H       1  LIG1        0.0660
     65 H          -1.6023    4.5396    4.7806 H       1  LIG1        0.0296
     66 H          -2.8555    4.8826    3.5909 H       1  LIG1        0.0296
     67 H           1.0166    6.3066    1.0769 H       1  LIG1        0.0233
     68 H          -0.3827    5.7717    0.1239 H       1  LIG1        0.0233
     69 H           1.0908    4.7932    0.1714 H       1  LIG1        0.0233
     70 H          -2.0268    7.0921    3.0068 H       1  LIG1        0.2098
@<TRIPOS>BOND
     1     2     3    1
     2     3     4    1
     3     4     6    1
     4     6     7    1
     5     7     8    2
     6     9    10    1
     7     9    11    2
     8    12    13    1
     9    13    14    1
    10    13    15    1
    11    15    16    1
    12    16    18    1
    13    18    19    1
    14    18    20    1
    15    18    23    1
    16    24    25    1
    17    13    26    1
    18    20    26    1
    19    28    29    1
    20    29    30    1
    21    30    31    2
    22    31    32    1
    23    32    33   ar
    24    33    34   ar
    25    34    35   ar
    26    35    36   ar
    27    36    37   ar
    28    32    37   ar
    29    35    38    1
    30    38    39    1
    31    29    40    2
    32     8     2    1
    33     2    42    1
    34    42    43    1
    35    43    45    1
    36     3    45    1
    37     1     2    1
    38     3    41    1
    39     4     5    1
    40     4    12    1
    41     8     9    1
    42    43    44    1
    43    43    48    1
    44    16    24    1
    45    16    17    1
    46    20    22    1
    47    20    21    1
    48    26    28    1
    49    26    27    1
    50    45    47    1
    51    45    46    1
    52     7    49    1
    53    10    50    1
    54    22    51    1
    55    23    52    1
    56    24    53    1
    57    24    54    1
    58    25    55    1
    59    30    56    1
    60    31    57    1
    61    33    58    1
    62    34    59    1
    63    36    60    1
    64    37    61    1
    65    39    62    1
    66    39    63    1
    67    39    64    1
    68    42    65    1
    69    42    66    1
    70    47    67    1
    71    47    68    1
    72    47    69    1
    73    48    70    1
