REMARK  Name = NuBBE_2466
REMARK  12 active torsions:
REMARK  status: ('A' for Active; 'I' for Inactive)
REMARK    1  A    between atoms: C_1  and  O_2
REMARK    2  A    between atoms: O_2  and  C_3
REMARK    3  A    between atoms: C_5  and  C_6
REMARK    4  A    between atoms: C_14  and  C_18
REMARK    5  A    between atoms: C_20  and  O_21
REMARK    6  A    between atoms: O_21  and  C_22
REMARK    7  A    between atoms: C_23  and  O_24
REMARK    8  A    between atoms: O_24  and  C_25
REMARK    9  A    between atoms: C_25  and  C_26
REMARK   10  A    between atoms: C_32  and  O_33
REMARK   11  A    between atoms: O_33  and  C_34
REMARK   12  A    between atoms: C_34  and  C_35
REMARK                            x       y       z     vdW  Elec       q    Type
REMARK                         _______ _______ _______ _____ _____    ______ ____
ROOT
ATOM      1  C   LIG A   1      -1.363  -0.978   1.359  0.00  0.00    +0.154 C 
ATOM      2  C   LIG A   1      -0.112  -1.189   0.502  0.00  0.00    +0.056 C 
ATOM      3  C   LIG A   1      -0.048   0.066  -0.320  0.00  0.00    +0.056 C 
ATOM      4  C   LIG A   1      -0.672   1.108   0.567  0.00  0.00    +0.167 C 
ATOM      5  O   LIG A   1      -1.710   0.425   1.276  0.00  0.00    -0.371 OA
ATOM      6  C   LIG A   1      -0.927  -0.251  -1.531  0.00  0.00    +0.154 C 
ATOM      7  O   LIG A   1      -0.983  -1.692  -1.630  0.00  0.00    -0.371 OA
ATOM      8  C   LIG A   1      -0.259  -2.268  -0.540  0.00  0.00    +0.167 C 
ENDROOT
BRANCH   1  11
ATOM      9  C   LIG A   1      -0.344  -0.682   5.031  0.00  0.00    +0.163 A 
ATOM     10  C   LIG A   1      -0.626  -0.380   3.700  0.00  0.00    +0.055 A 
ATOM     11  C   LIG A   1      -1.109  -1.343   2.802  0.00  0.00    -0.015 A 
ATOM     12  C   LIG A   1      -1.315  -2.643   3.258  0.00  0.00    +0.010 A 
ATOM     13  C   LIG A   1      -1.045  -2.969   4.587  0.00  0.00    +0.050 A 
ATOM     14  C   LIG A   1      -0.533  -2.004   5.461  0.00  0.00    +0.173 A 
BRANCH   9  16
ATOM     15  C   LIG A   1       0.284   1.577   5.430  0.00  0.00    +0.277 C 
ATOM     16  O   LIG A   1       0.125   0.245   5.929  0.00  0.00    -0.491 OA
ENDBRANCH   9  16
BRANCH  14  17
ATOM     17  O   LIG A   1      -0.086  -2.316   6.773  0.00  0.00    -0.422 OA
BRANCH  17  18
ATOM     18  C   LIG A   1       0.056  -3.611   7.274  0.00  0.00    +0.309 C 
ATOM     19  C   LIG A   1       0.977  -3.584   8.453  0.00  0.00    +0.136 C 
ATOM     20  O   LIG A   1      -0.398  -4.647   6.808  0.00  0.00    -0.251 OA
ENDBRANCH  17  18
ENDBRANCH  14  17
ENDBRANCH   1  11
BRANCH   6  21
ATOM     21  C   LIG A   1      -0.427   0.362  -2.821  0.00  0.00    -0.015 A 
ATOM     22  C   LIG A   1       0.246   1.599  -2.849  0.00  0.00    +0.055 A 
ATOM     23  C   LIG A   1       0.686   2.173  -4.047  0.00  0.00    +0.163 A 
ATOM     24  C   LIG A   1       0.443   1.487  -5.240  0.00  0.00    +0.173 A 
ATOM     25  C   LIG A   1      -0.229   0.261  -5.235  0.00  0.00    +0.050 A 
ATOM     26  C   LIG A   1      -0.681  -0.281  -4.036  0.00  0.00    +0.010 A 
BRANCH  23  27
ATOM     27  O   LIG A   1       1.315   3.378  -3.864  0.00  0.00    -0.491 OA
ATOM     28  C   LIG A   1       1.753   4.084  -5.015  0.00  0.00    +0.277 C 
ENDBRANCH  23  27
BRANCH  24  29
ATOM     29  O   LIG A   1       0.947   1.999  -6.458  0.00  0.00    -0.422 OA
BRANCH  29  30
ATOM     30  C   LIG A   1       0.259   1.923  -7.670  0.00  0.00    +0.309 C 
ATOM     31  C   LIG A   1       0.973   2.784  -8.648  0.00  0.00    +0.136 C 
ATOM     32  O   LIG A   1      -0.784   1.370  -7.886  0.00  0.00    -0.251 OA
ENDBRANCH  29  30
ENDBRANCH  24  29
ENDBRANCH   6  21
TORSDOF 8
