REMARK  Name = NuBBE_2147
REMARK  12 active torsions:
REMARK  status: ('A' for Active; 'I' for Inactive)
REMARK    1  A    between atoms: C_1  and  O_2
REMARK    2  A    between atoms: O_2  and  C_3
REMARK    3  A    between atoms: C_10  and  C_11
REMARK    4  A    between atoms: C_13  and  C_15
REMARK    5  A    between atoms: C_16  and  C_17
REMARK    6  A    between atoms: C_17  and  C_18
REMARK    7  A    between atoms: C_20  and  O_21
REMARK    8  A    between atoms: C_24  and  O_26
REMARK    9  A    between atoms: O_26  and  C_27
REMARK   10  A    between atoms: C_28  and  O_30
REMARK   11  A    between atoms: C_31  and  O_32
REMARK   12  A    between atoms: O_32  and  C_33
REMARK                            x       y       z     vdW  Elec       q    Type
REMARK                         _______ _______ _______ _____ _____    ______ ____
ROOT
ATOM      1  C   LIG A   1      -0.118   0.133   0.871  0.00  0.00    +0.060 C 
ATOM      2  C   LIG A   1       1.092  -0.798   0.589  0.00  0.00    +0.005 C 
ATOM      3  C   LIG A   1       1.905  -1.021   1.868  0.00  0.00    +0.009 C 
ATOM      4  C   LIG A   1       1.853  -0.165  -0.639  0.00  0.00    +0.009 C 
ATOM      5  C   LIG A   1       0.764   0.731  -1.282  0.00  0.00    +0.156 C 
ATOM      6  C   LIG A   1       3.065   0.725  -0.239  0.00  0.00    +0.044 C 
ATOM      7  C   LIG A   1       2.716   2.170   0.185  0.00  0.00    +0.150 C 
ATOM      8  C   LIG A   1       1.232   2.381   0.602  0.00  0.00    +0.178 C 
ATOM      9  C   LIG A   1       0.167   1.397  -0.023  0.00  0.00    +0.130 C 
ENDROOT
BRANCH   1  17
ATOM     10  C   LIG A   1      -3.098  -1.910  -0.643  0.00  0.00    +0.166 A 
ATOM     11  C   LIG A   1      -3.928  -1.942   0.458  0.00  0.00    +0.207 A 
ATOM     12  O   LIG A   1      -5.156  -2.522   0.561  0.00  0.00    -0.449 OA
ATOM     13  C   LIG A   1      -5.529  -2.171   1.904  0.00  0.00    +0.467 C 
ATOM     14  O   LIG A   1      -4.485  -1.488   2.622  0.00  0.00    -0.453 OA
ATOM     15  C   LIG A   1      -3.548  -1.349   1.642  0.00  0.00    +0.170 A 
ATOM     16  C   LIG A   1      -2.341  -0.689   1.792  0.00  0.00    +0.053 A 
ATOM     17  C   LIG A   1      -1.463  -0.609   0.695  0.00  0.00    -0.034 A 
ATOM     18  C   LIG A   1      -1.861  -1.251  -0.503  0.00  0.00    +0.053 A 
BRANCH  10  20
ATOM     19  C   LIG A   1      -4.554  -3.118  -2.087  0.00  0.00    +0.277 C 
ATOM     20  O   LIG A   1      -3.319  -2.444  -1.881  0.00  0.00    -0.491 OA
ENDBRANCH  10  20
ENDBRANCH   1  17
BRANCH   5  21
ATOM     21  O   LIG A   1       1.274   1.611  -2.268  0.00  0.00    -0.388 OA
ATOM     22  H   LIG A   1       0.516   2.083  -2.655  0.00  0.00    +0.210 HD
ENDBRANCH   5  21
BRANCH   7  23
ATOM     23  O   LIG A   1       3.149   3.012  -0.905  0.00  0.00    -0.377 OA
ATOM     24  C   LIG A   1       2.944   4.406  -0.766  0.00  0.00    +0.194 C 
ENDBRANCH   7  23
BRANCH   8  25
ATOM     25  O   LIG A   1       1.145   2.363   2.043  0.00  0.00    -0.386 OA
ATOM     26  H   LIG A   1       1.704   3.083   2.383  0.00  0.00    +0.210 HD
ENDBRANCH   8  25
BRANCH   9  27
ATOM     27  O   LIG A   1      -1.043   2.112  -0.348  0.00  0.00    -0.371 OA
ATOM     28  C   LIG A   1      -1.679   2.749   0.763  0.00  0.00    +0.195 C 
ENDBRANCH   9  27
BRANCH   4  29
ATOM     29  C   LIG A   1       2.301  -1.259  -1.649  0.00  0.00    +0.036 C 
BRANCH  29  30
ATOM     30  C   LIG A   1       3.228  -2.313  -1.096  0.00  0.00    -0.034 C 
ATOM     31  C   LIG A   1       4.457  -2.552  -1.548  0.00  0.00    +0.004 C 
ENDBRANCH  29  30
ENDBRANCH   4  29
TORSDOF 8
