@<TRIPOS>MOLECULE
NuBBE_1573
 46 49 0 0 0
SMALL
GASTEIGER

@<TRIPOS>ATOM
      1 C          -1.0644    1.0507    3.3955 C.3     1  LIG1       -0.0613
      2 C          -1.2079    1.1509    1.8660 C.3     1  LIG1       -0.0302
      3 H          -2.2839    1.2801    1.6903 H       1  LIG1        0.0310
      4 C          -0.7132   -0.1700    1.2071 C.3     1  LIG1        0.0125
      5 H          -0.8859   -0.9783    1.9355 H       1  LIG1        0.0400
      6 C           0.7995   -0.2007    0.9667 C.ar    1  LIG1       -0.0328
      7 C           1.5941    0.9755    1.0269 C.ar    1  LIG1       -0.0396
      8 C           1.0228    2.3065    1.4467 C.3     1  LIG1       -0.0244
      9 C          -0.5004    2.4122    1.3255 C.3     1  LIG1       -0.0365
     10 H          -0.8198    3.2673    1.9374 H       1  LIG1        0.0304
     11 C          -0.9116    2.7587   -0.1098 C.3     1  LIG1       -0.0618
     12 C           2.9781    0.9042    0.7751 C.ar    1  LIG1       -0.0127
     13 C           3.5333   -0.3148    0.4688 C.ar    1  LIG1        0.1665
     14 C           2.7744   -1.4586    0.4201 C.ar    1  LIG1        0.1665
     15 C           1.4200   -1.4351    0.6707 C.ar    1  LIG1       -0.0121
     16 O           3.5114   -2.5563    0.1045 O.3     1  LIG1       -0.4526
     17 C           4.8243   -1.9723   -0.0345 C.3     1  LIG1        0.2332
     18 O           4.8447   -0.5486    0.1968 O.3     1  LIG1       -0.4526
     19 C          -1.5864   -0.5668    0.0070 C.ar    1  LIG1       -0.0360
     20 C          -1.0795   -0.6700   -1.3012 C.ar    1  LIG1       -0.0125
     21 C          -1.8689   -1.1547   -2.3460 C.ar    1  LIG1        0.1615
     22 O          -1.4436   -1.3740   -3.6324 O.3     1  LIG1       -0.4914
     23 C          -0.0681   -1.1047   -3.8911 C.3     1  LIG1        0.0790
     24 C          -3.2043   -1.4759   -2.0890 C.ar    1  LIG1        0.1585
     25 C          -3.7522   -1.3265   -0.8238 C.ar    1  LIG1       -0.0162
     26 C          -2.9399   -0.8930    0.2238 C.ar    1  LIG1       -0.0543
     27 O          -4.0025   -1.9725   -3.0831 O.3     1  LIG1       -0.5033
     28 H          -0.0310    0.8659    3.7038 H       1  LIG1        0.0233
     29 H          -1.6785    0.2287    3.7807 H       1  LIG1        0.0233
     30 H          -1.4085    1.9702    3.8797 H       1  LIG1        0.0233
     31 H           1.4924    3.1103    0.8651 H       1  LIG1        0.0316
     32 H           1.3108    2.4684    2.4935 H       1  LIG1        0.0316
     33 H          -0.4704    2.0834   -0.8464 H       1  LIG1        0.0233
     34 H          -0.5760    3.7716   -0.3610 H       1  LIG1        0.0233
     35 H          -2.0002    2.7377   -0.2239 H       1  LIG1        0.0233
     36 H           3.6074    1.7892    0.8292 H       1  LIG1        0.0658
     37 H           0.8449   -2.3566    0.6204 H       1  LIG1        0.0658
     38 H           5.1891   -2.1668   -1.0496 H       1  LIG1        0.1166
     39 H           5.5013   -2.4541    0.6802 H       1  LIG1        0.1166
     40 H          -0.0495   -0.3859   -1.4852 H       1  LIG1        0.0658
     41 H           0.1591   -1.4499   -4.9036 H       1  LIG1        0.0660
     42 H           0.5898   -1.6518   -3.2063 H       1  LIG1        0.0660
     43 H           0.1255   -0.0276   -3.8487 H       1  LIG1        0.0660
     44 H          -4.7957   -1.5711   -0.6491 H       1  LIG1        0.0655
     45 H          -3.3710   -0.8214    1.2207 H       1  LIG1        0.0622
     46 H          -3.4098   -2.0735   -3.8528 H       1  LIG1        0.2923
@<TRIPOS>BOND
     1     2     4    1
     2     4     5    1
     3     4     6    1
     4     6     7   ar
     5     7     8    1
     6     8     9    1
     7     2     9    1
     8     7    12   ar
     9    12    13   ar
    10    13    14   ar
    11    14    15   ar
    12     6    15   ar
    13    14    16    1
    14    16    17    1
    15    17    18    1
    16    13    18    1
    17     4    19    1
    18    19    20   ar
    19    20    21   ar
    20    21    22    1
    21    22    23    1
    22    21    24   ar
    23    24    25   ar
    24    25    26   ar
    25    19    26   ar
    26    24    27    1
    27     9    11    1
    28     9    10    1
    29     2     3    1
    30     2     1    1
    31     1    28    1
    32     1    29    1
    33     1    30    1
    34     8    31    1
    35     8    32    1
    36    11    33    1
    37    11    34    1
    38    11    35    1
    39    12    36    1
    40    15    37    1
    41    17    38    1
    42    17    39    1
    43    20    40    1
    44    23    41    1
    45    23    42    1
    46    23    43    1
    47    25    44    1
    48    26    45    1
    49    27    46    1
