REMARK  Name = NuBBE_1477
REMARK  6 active torsions:
REMARK  status: ('A' for Active; 'I' for Inactive)
REMARK    1  A    between atoms: C_5  and  O_6
REMARK    2  A    between atoms: O_6  and  C_7
REMARK    3  A    between atoms: C_10  and  C_11
REMARK    4  A    between atoms: C_10  and  C_12
REMARK    5  A    between atoms: N_17  and  C_18
REMARK    6  A    between atoms: C_24  and  O_25
REMARK                            x       y       z     vdW  Elec       q    Type
REMARK                         _______ _______ _______ _____ _____    ______ ____
ROOT
ATOM      1  O   LIG A   1      -2.374  -2.248   2.191  0.00  0.00    -0.286 OA
ATOM      2  C   LIG A   1      -1.439  -2.150   1.402  0.00  0.00    +0.197 A 
ATOM      3  C   LIG A   1      -1.075  -0.836   0.831  0.00  0.00    +0.050 A 
ATOM      4  C   LIG A   1      -0.068  -0.769  -0.147  0.00  0.00    +0.099 A 
ATOM      5  C   LIG A   1       0.307   0.524  -0.577  0.00  0.00    +0.186 A 
ATOM      6  C   LIG A   1      -0.369   1.679  -0.134  0.00  0.00    +0.172 A 
ATOM      7  O   LIG A   1       0.049   2.879  -0.644  0.00  0.00    -0.478 OA
ATOM      8  C   LIG A   1      -0.605   4.096  -0.235  0.00  0.00    +0.124 C 
ATOM      9  C   LIG A   1      -1.163   4.738  -1.511  0.00  0.00    +0.060 C 
ATOM     10  C   LIG A   1       0.489   4.991   0.358  0.00  0.00    +0.060 C 
ATOM     11  C   LIG A   1      -1.718   3.936   0.773  0.00  0.00    +0.020 C 
ATOM     12  C   LIG A   1      -2.098   2.754   1.264  0.00  0.00    +0.011 C 
ATOM     13  C   LIG A   1      -1.401   1.568   0.797  0.00  0.00    +0.021 A 
ATOM     14  C   LIG A   1      -1.743   0.309   1.290  0.00  0.00    +0.025 A 
ATOM     15  N   LIG A   1       0.534  -1.968  -0.600  0.00  0.00    -0.337 N 
ATOM     16  C   LIG A   1       0.951  -2.010  -2.009  0.00  0.00    +0.149 C 
ATOM     17  C   LIG A   1       0.352  -3.217   0.044  0.00  0.00    +0.095 A 
ATOM     18  C   LIG A   1      -0.633  -3.336   1.040  0.00  0.00    +0.049 A 
ATOM     19  C   LIG A   1      -0.876  -4.548   1.704  0.00  0.00    +0.014 A 
ATOM     20  C   LIG A   1      -0.114  -5.671   1.402  0.00  0.00    +0.004 A 
ATOM     21  C   LIG A   1       0.898  -5.579   0.451  0.00  0.00    +0.047 A 
ATOM     22  C   LIG A   1       1.133  -4.366  -0.210  0.00  0.00    +0.141 A 
ENDROOT
BRANCH   5  23
ATOM     23  O   LIG A   1       1.359   0.688  -1.456  0.00  0.00    -0.489 OA
ATOM     24  C   LIG A   1       2.569   0.889  -0.725  0.00  0.00    +0.277 C 
ENDBRANCH   5  23
BRANCH  22  25
ATOM     25  O   LIG A   1       2.182  -4.306  -1.093  0.00  0.00    -0.505 OA
ATOM     26  H   LIG A   1       2.669  -5.146  -1.067  0.00  0.00    +0.292 HD
ENDBRANCH  22  25
TORSDOF 2
