REMARK  Name = NuBBE_2206
REMARK  10 active torsions:
REMARK  status: ('A' for Active; 'I' for Inactive)
REMARK    1  A    between atoms: C_1  and  C_3
REMARK    2  A    between atoms: C_1  and  C_7
REMARK    3  A    between atoms: C_4  and  C_5
REMARK    4  A    between atoms: C_4  and  C_6
REMARK    5  A    between atoms: C_9  and  C_10
REMARK    6  A    between atoms: C_10  and  O_11
REMARK    7  A    between atoms: C_10  and  C_15
REMARK    8  A    between atoms: O_11  and  C_12
REMARK    9  A    between atoms: C_12  and  C_14
REMARK   10  A    between atoms: C_18  and  O_19
REMARK                            x       y       z     vdW  Elec       q    Type
REMARK                         _______ _______ _______ _____ _____    ______ ____
ROOT
ATOM      1  C   LIG A   1      -0.041  -0.704   0.154  0.00  0.00    +0.063 A 
ATOM      2  C   LIG A   1       0.671   0.509   0.132  0.00  0.00    +0.022 A 
ATOM      3  C   LIG A   1       2.078   0.534   0.143  0.00  0.00    -0.007 A 
ATOM      4  C   LIG A   1       2.767  -0.686   0.215  0.00  0.00    +0.011 A 
ATOM      5  C   LIG A   1       2.072  -1.899   0.220  0.00  0.00    +0.046 A 
ATOM      6  C   LIG A   1       0.676  -1.908   0.178  0.00  0.00    +0.128 A 
ENDROOT
BRANCH   1   7
ATOM      7  C   LIG A   1      -1.534  -0.627   0.117  0.00  0.00    +0.190 C 
ATOM      8  O   LIG A   1      -2.083   0.310  -0.451  0.00  0.00    -0.287 OA
BRANCH   7   9
ATOM      9  C   LIG A   1      -2.294  -1.662   0.882  0.00  0.00    +0.050 C 
ATOM     10  C   LIG A   1      -3.599  -1.978   0.773  0.00  0.00    -0.072 C 
ATOM     11  C   LIG A   1      -4.588  -1.363  -0.177  0.00  0.00    +0.039 C 
ATOM     12  C   LIG A   1      -4.170  -3.068   1.644  0.00  0.00    +0.039 C 
ENDBRANCH   7   9
ENDBRANCH   1   7
BRANCH   3  13
ATOM     13  C   LIG A   1       2.854   1.839   0.039  0.00  0.00    +0.203 C 
ATOM     14  C   LIG A   1       3.120   2.461   1.407  0.00  0.00    +0.057 C 
BRANCH  13  15
ATOM     15  O   LIG A   1       2.111   2.808  -0.726  0.00  0.00    -0.457 OA
BRANCH  15  16
ATOM     16  C   LIG A   1       2.299   2.781  -2.070  0.00  0.00    +0.304 C 
ATOM     17  O   LIG A   1       3.081   2.048  -2.668  0.00  0.00    -0.251 OA
ATOM     18  C   LIG A   1       1.432   3.805  -2.733  0.00  0.00    +0.136 C 
ENDBRANCH  15  16
ENDBRANCH  13  15
ENDBRANCH   3  13
BRANCH   6  19
ATOM     19  O   LIG A   1       0.032  -3.113   0.138  0.00  0.00    -0.506 OA
ATOM     20  H   LIG A   1       0.684  -3.833   0.177  0.00  0.00    +0.292 HD
ENDBRANCH   6  19
TORSDOF 6
