REMARK  Name = NuBBE_1577
REMARK  10 active torsions:
REMARK  status: ('A' for Active; 'I' for Inactive)
REMARK    1  A    between atoms: C_1  and  C_2
REMARK    2  A    between atoms: C_7  and  O_23
REMARK    3  A    between atoms: C_9  and  O_19
REMARK    4  A    between atoms: C_13  and  C_14
REMARK    5  A    between atoms: C_13  and  C_15
REMARK    6  A    between atoms: O_19  and  C_20
REMARK    7  A    between atoms: C_20  and  C_22
REMARK    8  A    between atoms: O_23  and  C_24
REMARK    9  A    between atoms: C_24  and  C_26
REMARK   10  A    between atoms: C_27  and  C_29
REMARK                            x       y       z     vdW  Elec       q    Type
REMARK                         _______ _______ _______ _____ _____    ______ ____
ROOT
ATOM      1  C   LIG A   1      -2.262   0.481  -1.370  0.00  0.00    +0.012 C 
ATOM      2  C   LIG A   1      -0.699   0.590  -1.289  0.00  0.00    -0.022 C 
ATOM      3  C   LIG A   1      -0.318   1.354   0.059  0.00  0.00    +0.010 C 
ATOM      4  C   LIG A   1      -0.286   0.390   1.286  0.00  0.00    +0.052 C 
ATOM      5  C   LIG A   1       0.732  -0.733   1.079  0.00  0.00    +0.221 C 
ATOM      6  C   LIG A   1       0.191  -1.660  -0.037  0.00  0.00    +0.221 C 
ATOM      7  C   LIG A   1      -0.132  -0.928  -1.399  0.00  0.00    +0.045 C 
ATOM      8  C   LIG A   1       0.866  -1.295  -2.583  0.00  0.00    -0.028 C 
ATOM      9  C   LIG A   1       0.465  -2.683  -3.164  0.00  0.00    +0.011 C 
ATOM     10  C   LIG A   1       2.348  -1.413  -2.170  0.00  0.00    +0.011 C 
ATOM     11  C   LIG A   1       0.774  -0.291  -3.746  0.00  0.00    +0.007 C 
ATOM     12  C   LIG A   1       0.939   1.130  -3.252  0.00  0.00    +0.001 C 
ATOM     13  C   LIG A   1      -0.302   1.523  -2.483  0.00  0.00    +0.007 C 
ATOM     14  C   LIG A   1      -0.236   1.079   2.688  0.00  0.00    +0.092 C 
ATOM     15  C   LIG A   1      -1.476   1.897   2.761  0.00  0.00    +0.004 A 
ATOM     16  C   LIG A   1      -1.872   2.599   1.648  0.00  0.00    +0.109 A 
ATOM     17  C   LIG A   1      -1.179   2.660   0.333  0.00  0.00    +0.079 C 
ATOM     18  O   LIG A   1      -3.032   3.256   1.877  0.00  0.00    -0.468 OA
ATOM     19  C   LIG A   1      -3.381   2.958   3.163  0.00  0.00    +0.195 A 
ATOM     20  C   LIG A   1      -2.457   2.116   3.748  0.00  0.00    +0.045 A 
ENDROOT
BRANCH  14  21
ATOM     21  C   LIG A   1       0.920   2.032   2.969  0.00  0.00    +0.232 C 
ATOM     22  O   LIG A   1       1.711   2.460   2.131  0.00  0.00    -0.300 OA
ENDBRANCH  14  21
BRANCH   6  23
ATOM     23  O   LIG A   1      -1.058  -2.283   0.405  0.00  0.00    -0.458 OA
BRANCH  23  24
ATOM     24  C   LIG A   1      -1.006  -3.140   1.471  0.00  0.00    +0.304 C 
ATOM     25  O   LIG A   1      -0.005  -3.466   2.065  0.00  0.00    -0.251 OA
ATOM     26  C   LIG A   1      -2.381  -3.639   1.795  0.00  0.00    +0.136 C 
ENDBRANCH  23  24
ENDBRANCH   6  23
BRANCH   5  27
ATOM     27  O   LIG A   1       2.043  -0.253   0.744  0.00  0.00    -0.458 OA
BRANCH  27  28
ATOM     28  C   LIG A   1       2.871  -0.037   1.806  0.00  0.00    +0.304 C 
ATOM     29  O   LIG A   1       2.561  -0.193   2.983  0.00  0.00    -0.251 OA
ATOM     30  C   LIG A   1       4.226   0.427   1.376  0.00  0.00    +0.136 C 
ENDBRANCH  27  28
ENDBRANCH   5  27
TORSDOF 5
