REMARK  Name = NuBBE_1620
REMARK  5 active torsions:
REMARK  status: ('A' for Active; 'I' for Inactive)
REMARK    1  A    between atoms: O_1  and  C_2
REMARK    2  A    between atoms: O_1  and  C_3
REMARK    3  A    between atoms: C_6  and  O_7
REMARK    4  A    between atoms: O_7  and  C_8
REMARK    5  A    between atoms: C_17  and  O_18
REMARK                            x       y       z     vdW  Elec       q    Type
REMARK                         _______ _______ _______ _____ _____    ______ ____
ROOT
ATOM      1  C   LIG A   1      -1.420  -1.855  -0.054  0.00  0.00    +0.188 A 
ATOM      2  C   LIG A   1      -0.772  -0.600  -0.045  0.00  0.00    +0.123 A 
ATOM      3  C   LIG A   1       0.651  -0.585  -0.081  0.00  0.00    +0.047 A 
ATOM      4  C   LIG A   1       1.340   0.658  -0.078  0.00  0.00    +0.142 A 
ATOM      5  C   LIG A   1       0.584   1.843  -0.071  0.00  0.00    +0.082 A 
ATOM      6  C   LIG A   1      -0.795   1.683  -0.024  0.00  0.00    +0.231 A 
ATOM      7  N   LIG A   1      -1.481   0.539  -0.001  0.00  0.00    -0.208 NA
ATOM      8  O   LIG A   1      -1.411   2.898  -0.015  0.00  0.00    -0.445 OA
ATOM      9  C   LIG A   1      -0.441   3.841  -0.073  0.00  0.00    +0.198 A 
ATOM     10  C   LIG A   1       0.800   3.249  -0.118  0.00  0.00    +0.055 A 
ATOM     11  C   LIG A   1       1.365  -1.803  -0.109  0.00  0.00    +0.017 A 
ATOM     12  C   LIG A   1       0.715  -3.029  -0.105  0.00  0.00    +0.050 A 
ATOM     13  C   LIG A   1      -0.669  -3.048  -0.079  0.00  0.00    +0.161 A 
ENDROOT
BRANCH   1  14
ATOM     14  O   LIG A   1      -2.781  -2.087  -0.028  0.00  0.00    -0.489 OA
ATOM     15  C   LIG A   1      -3.681  -1.000  -0.169  0.00  0.00    +0.277 C 
ENDBRANCH   1  14
BRANCH   4  16
ATOM     16  O   LIG A   1       2.725   0.599  -0.179  0.00  0.00    -0.494 OA
ATOM     17  C   LIG A   1       3.441   1.619   0.504  0.00  0.00    +0.277 C 
ENDBRANCH   4  16
BRANCH  13  18
ATOM     18  O   LIG A   1      -1.323  -4.254  -0.082  0.00  0.00    -0.503 OA
ATOM     19  H   LIG A   1      -0.675  -4.975  -0.098  0.00  0.00    +0.292 HD
ENDBRANCH  13  18
TORSDOF 3
