REMARK  Name = NuBBE_1417
REMARK  6 active torsions:
REMARK  status: ('A' for Active; 'I' for Inactive)
REMARK    1  A    between atoms: C_1  and  C_3
REMARK    2  A    between atoms: C_1  and  C_4
REMARK    3  A    between atoms: C_6  and  C_7
REMARK    4  A    between atoms: C_6  and  C_9
REMARK    5  A    between atoms: C_13  and  C_14
REMARK    6  A    between atoms: C_13  and  C_15
REMARK                            x       y       z     vdW  Elec       q    Type
REMARK                         _______ _______ _______ _____ _____    ______ ____
ROOT
ATOM      1  C   LIG A   1       0.072   0.137   0.905  0.00  0.00    +0.028 C 
ATOM      2  C   LIG A   1       0.281  -1.352   0.402  0.00  0.00    -0.007 C 
ATOM      3  C   LIG A   1       1.785  -1.714   0.333  0.00  0.00    +0.016 C 
ATOM      4  C   LIG A   1      -0.322  -1.518  -1.026  0.00  0.00    +0.015 C 
ATOM      5  C   LIG A   1       0.191  -0.483  -2.022  0.00  0.00    +0.031 C 
ATOM      6  C   LIG A   1      -0.226   0.893  -1.554  0.00  0.00    -0.070 C 
ATOM      7  C   LIG A   1      -1.031   1.727  -2.260  0.00  0.00    -0.076 C 
ATOM      8  C   LIG A   1      -1.615   1.415  -3.623  0.00  0.00    +0.038 C 
ATOM      9  C   LIG A   1      -1.467   3.100  -1.801  0.00  0.00    +0.038 C 
ATOM     10  C   LIG A   1       0.405   1.193  -0.199  0.00  0.00    +0.039 C 
ENDROOT
BRANCH   1  11
ATOM     11  C   LIG A   1       0.773   0.471   2.245  0.00  0.00    -0.075 C 
ATOM     12  C   LIG A   1       2.009   0.995   2.348  0.00  0.00    +0.007 C 
ATOM     13  C   LIG A   1      -0.017   0.239   3.510  0.00  0.00    +0.038 C 
ENDBRANCH   1  11
BRANCH   2  14
ATOM     14  C   LIG A   1      -0.507  -2.326   1.289  0.00  0.00    -0.027 C 
ATOM     15  C   LIG A   1      -0.046  -3.395   1.966  0.00  0.00    +0.004 C 
ENDBRANCH   2  14
TORSDOF 2
