REMARK  Name = NuBBE_533
REMARK  9 active torsions:
REMARK  status: ('A' for Active; 'I' for Inactive)
REMARK    1  A    between atoms: C_1  and  O_2
REMARK    2  A    between atoms: O_2  and  C_3
REMARK    3  A    between atoms: C_4  and  O_5
REMARK    4  A    between atoms: O_5  and  C_6
REMARK    5  A    between atoms: C_10  and  O_11
REMARK    6  A    between atoms: O_11  and  C_12
REMARK    7  A    between atoms: C_13  and  O_14
REMARK    8  A    between atoms: N_20  and  C_21
REMARK    9  A    between atoms: N_20  and  C_22
REMARK                            x       y       z     vdW  Elec       q    Type
REMARK                         _______ _______ _______ _____ _____    ______ ____
ROOT
ATOM      1  C   LIG A   1      -1.692  -1.687  -1.675  0.00  0.00    +0.162 A 
ATOM      2  C   LIG A   1      -0.690  -1.756  -0.693  0.00  0.00    +0.170 A 
ATOM      3  C   LIG A   1      -0.129  -0.555  -0.174  0.00  0.00    +0.037 A 
ATOM      4  C   LIG A   1       1.029  -0.510   0.778  0.00  0.00    -0.007 A 
ATOM      5  C   LIG A   1       2.044  -1.491   0.806  0.00  0.00    +0.058 A 
ATOM      6  C   LIG A   1       3.119  -1.397   1.697  0.00  0.00    +0.162 A 
ATOM      7  C   LIG A   1       3.217  -0.297   2.536  0.00  0.00    +0.159 A 
ATOM      8  C   LIG A   1       2.254   0.704   2.529  0.00  0.00    +0.053 A 
ATOM      9  C   LIG A   1       1.179   0.602   1.636  0.00  0.00    -0.030 A 
ATOM     10  C   LIG A   1       0.175   1.726   1.556  0.00  0.00    +0.095 C 
ATOM     11  C   LIG A   1      -0.712   0.699  -0.558  0.00  0.00    +0.015 A 
ATOM     12  C   LIG A   1      -0.153   1.974   0.070  0.00  0.00    +0.102 C 
ATOM     13  N   LIG A   1      -1.037   3.252  -0.120  0.00  0.00    +0.245 N 
ATOM     14  C   LIG A   1      -2.239   3.292   0.819  0.00  0.00    +0.193 C 
ATOM     15  C   LIG A   1      -0.196   4.512   0.123  0.00  0.00    +0.193 C 
ATOM     16  C   LIG A   1      -1.492   3.275  -1.589  0.00  0.00    +0.138 C 
ATOM     17  C   LIG A   1      -2.349   2.059  -1.942  0.00  0.00    +0.086 C 
ATOM     18  C   LIG A   1      -1.732   0.746  -1.520  0.00  0.00    -0.030 A 
ATOM     19  C   LIG A   1      -2.218  -0.448  -2.064  0.00  0.00    +0.053 A 
ENDROOT
BRANCH   1  21
ATOM     20  C   LIG A   1      -1.478  -3.390  -3.262  0.00  0.00    +0.277 C 
ATOM     21  O   LIG A   1      -2.277  -2.793  -2.234  0.00  0.00    -0.491 OA
ENDBRANCH   1  21
BRANCH   2  22
ATOM     22  O   LIG A   1      -0.166  -2.936  -0.227  0.00  0.00    -0.491 OA
ATOM     23  C   LIG A   1      -1.062  -3.999   0.084  0.00  0.00    +0.277 C 
ENDBRANCH   2  22
BRANCH   6  24
ATOM     24  O   LIG A   1       4.154  -2.296   1.772  0.00  0.00    -0.491 OA
ATOM     25  C   LIG A   1       3.805  -3.650   1.486  0.00  0.00    +0.277 C 
ENDBRANCH   6  24
BRANCH   7  26
ATOM     26  O   LIG A   1       4.277  -0.153   3.385  0.00  0.00    -0.503 OA
ATOM     27  H   LIG A   1       4.845  -0.934   3.222  0.00  0.00    +0.292 HD
ENDBRANCH   7  26
TORSDOF 4
