@<TRIPOS>MOLECULE
NuBBE_2399
 44 46 0 0 0
SMALL
GASTEIGER

@<TRIPOS>ATOM
      1 O          -2.9650   -0.7107    0.4261 O.3     1  LIG1       -0.5055
      2 C          -1.5918   -0.6980    0.4424 C.ar    1  LIG1        0.1378
      3 C          -0.8691    0.5041    0.5276 C.ar    1  LIG1        0.1009
      4 C           0.5245    0.4894    0.5309 C.ar    1  LIG1        0.1389
      5 O           1.3062    1.6116    0.6324 O.3     1  LIG1       -0.4828
      6 C           0.6365    2.8286    0.2616 C.3     1  LIG1        0.1322
      7 H           0.4488    2.7866   -0.8212 H       1  LIG1        0.0789
      8 C          -0.6779    2.9833    1.0159 C.3     1  LIG1        0.0520
      9 C          -1.5489    1.8035    0.6938 C.2     1  LIG1        0.1740
     10 O          -2.7722    1.8677    0.6548 O.2     1  LIG1       -0.2917
     11 C           1.5796    3.9857    0.5526 C.ar    1  LIG1       -0.0069
     12 C           2.0016    4.8402   -0.4787 C.ar    1  LIG1       -0.0551
     13 C           2.8647    5.9079   -0.2133 C.ar    1  LIG1       -0.0614
     14 C           3.3180    6.1365    1.0840 C.ar    1  LIG1       -0.0617
     15 C           2.9096    5.2982    2.1178 C.ar    1  LIG1       -0.0614
     16 C           2.0489    4.2300    1.8546 C.ar    1  LIG1       -0.0551
     17 C           1.2010   -0.7269    0.4801 C.ar    1  LIG1        0.0228
     18 C           0.4797   -1.9224    0.4183 C.ar    1  LIG1        0.1273
     19 C          -0.9245   -1.9343    0.3979 C.ar    1  LIG1        0.0400
     20 C          -1.6961   -3.2378    0.3327 C.3     1  LIG1       -0.0023
     21 C          -1.9861   -3.6771   -1.0804 C.2     1  LIG1       -0.0807
     22 C          -1.6023   -4.8151   -1.6937 C.2     1  LIG1       -0.0793
     23 C          -0.7827   -5.9062   -1.0620 C.3     1  LIG1       -0.0440
     24 C          -1.9762   -5.0813   -3.1285 C.3     1  LIG1       -0.0440
     25 O           1.1564   -3.1110    0.3986 O.3     1  LIG1       -0.5062
     26 H          -3.2899    0.2154    0.4937 H       1  LIG1        0.2922
     27 H          -1.1926    3.9013    0.7148 H       1  LIG1        0.0385
     28 H          -0.5374    2.9941    2.1029 H       1  LIG1        0.0385
     29 H           1.6657    4.6845   -1.5017 H       1  LIG1        0.0621
     30 H           3.1856    6.5623   -1.0202 H       1  LIG1        0.0618
     31 H           3.9909    6.9655    1.2888 H       1  LIG1        0.0618
     32 H           3.2637    5.4735    3.1306 H       1  LIG1        0.0618
     33 H           1.7503    3.5841    2.6776 H       1  LIG1        0.0621
     34 H           2.2869   -0.7282    0.4983 H       1  LIG1        0.0691
     35 H          -2.6515   -3.1313    0.8623 H       1  LIG1        0.0358
     36 H          -1.1624   -3.9992    0.9082 H       1  LIG1        0.0358
     37 H          -2.5958   -2.9670   -1.6399 H       1  LIG1        0.0575
     38 H          -0.5083   -5.7077   -0.0249 H       1  LIG1        0.0274
     39 H           0.1468   -6.0487   -1.6226 H       1  LIG1        0.0274
     40 H          -1.3410   -6.8486   -1.0735 H       1  LIG1        0.0274
     41 H          -2.5860   -4.2795   -3.5577 H       1  LIG1        0.0274
     42 H          -2.5466   -6.0127   -3.2082 H       1  LIG1        0.0274
     43 H          -1.0723   -5.1748   -3.7398 H       1  LIG1        0.0274
     44 H           2.1113   -2.9355    0.3669 H       1  LIG1        0.2921
@<TRIPOS>BOND
     1     1     2    1
     2     2     3   ar
     3     3     4   ar
     4     4     5    1
     5     5     6    1
     6     6     7    1
     7     6     8    1
     8     8     9    1
     9     3     9    1
    10     9    10    2
    11     6    11    1
    12    11    12   ar
    13    12    13   ar
    14    13    14   ar
    15    14    15   ar
    16    15    16   ar
    17    11    16   ar
    18     4    17   ar
    19    17    18   ar
    20    18    19   ar
    21     2    19   ar
    22    19    20    1
    23    20    21    1
    24    21    22    2
    25    22    23    1
    26    22    24    1
    27    18    25    1
    28     1    26    1
    29     8    27    1
    30     8    28    1
    31    12    29    1
    32    13    30    1
    33    14    31    1
    34    15    32    1
    35    16    33    1
    36    17    34    1
    37    20    35    1
    38    20    36    1
    39    21    37    1
    40    23    38    1
    41    23    39    1
    42    23    40    1
    43    24    41    1
    44    24    42    1
    45    24    43    1
    46    25    44    1
