REMARK  Name = NuBBE_380
REMARK  13 active torsions:
REMARK  status: ('A' for Active; 'I' for Inactive)
REMARK    1  A    between atoms: O_1  and  C_2
REMARK    2  A    between atoms: C_9  and  C_10
REMARK    3  A    between atoms: C_13  and  C_14
REMARK    4  A    between atoms: C_16  and  C_17
REMARK    5  A    between atoms: C_19  and  C_20
REMARK    6  A    between atoms: C_24  and  C_25
REMARK    7  A    between atoms: C_24  and  C_26
REMARK    8  A    between atoms: C_26  and  O_27
REMARK    9  A    between atoms: O_27  and  C_28
REMARK   10  A    between atoms: C_30  and  O_32
REMARK   11  A    between atoms: C_36  and  C_37
REMARK   12  A    between atoms: C_38  and  O_39
REMARK   13  A    between atoms: O_39  and  C_40
REMARK                            x       y       z     vdW  Elec       q    Type
REMARK                         _______ _______ _______ _____ _____    ______ ____
ROOT
ATOM      1  C   LIG A   1      -1.774  -0.349   5.413  0.00  0.00    +0.159 A 
ATOM      2  C   LIG A   1      -1.560  -0.598   4.061  0.00  0.00    +0.054 A 
ATOM      3  C   LIG A   1      -0.369  -0.207   3.421  0.00  0.00    -0.022 A 
ATOM      4  C   LIG A   1       0.609   0.463   4.186  0.00  0.00    +0.032 A 
ATOM      5  C   LIG A   1       1.749   1.115   3.470  0.00  0.00    +0.187 C 
ATOM      6  C   LIG A   1       1.792   1.032   1.999  0.00  0.00    +0.056 C 
ATOM      7  C   LIG A   1       0.975   0.233   1.295  0.00  0.00    -0.030 C 
ATOM      8  C   LIG A   1      -0.114  -0.608   1.953  0.00  0.00    +0.019 C 
ATOM      9  C   LIG A   1       0.377  -2.078   1.989  0.00  0.00    +0.021 C 
ATOM     10  C   LIG A   1      -1.434  -0.512   1.136  0.00  0.00    +0.017 C 
ATOM     11  C   LIG A   1      -1.248  -0.589  -0.378  0.00  0.00    +0.013 C 
ATOM     12  C   LIG A   1      -0.218   0.439  -0.927  0.00  0.00    -0.003 C 
ATOM     13  C   LIG A   1      -0.733   1.872  -0.630  0.00  0.00    +0.016 C 
ATOM     14  C   LIG A   1       1.096   0.167  -0.173  0.00  0.00    -0.038 C 
ATOM     15  C   LIG A   1       2.248  -0.174  -0.800  0.00  0.00    -0.068 C 
ATOM     16  C   LIG A   1       3.525  -0.598  -0.109  0.00  0.00    +0.039 C 
ATOM     17  C   LIG A   1       2.374  -0.205  -2.310  0.00  0.00    +0.045 C 
ATOM     18  C   LIG A   1       1.289   0.594  -3.067  0.00  0.00    +0.036 C 
ATOM     19  C   LIG A   1       1.621   2.093  -2.980  0.00  0.00    +0.019 C 
ATOM     20  C   LIG A   1      -0.082   0.178  -2.479  0.00  0.00    +0.014 C 
ATOM     21  C   LIG A   1      -1.258   0.725  -3.318  0.00  0.00    +0.026 C 
ATOM     22  C   LIG A   1      -1.216   0.289  -4.799  0.00  0.00    +0.098 C 
ATOM     23  C   LIG A   1      -2.333   1.055  -5.549  0.00  0.00    +0.026 C 
ATOM     24  C   LIG A   1       0.153   0.571  -5.456  0.00  0.00    +0.197 C 
ATOM     25  C   LIG A   1       1.347   0.200  -4.554  0.00  0.00    +0.169 C 
ATOM     26  O   LIG A   1       2.357  -0.314  -5.043  0.00  0.00    -0.294 OA
ATOM     27  O   LIG A   1       2.616   1.776   4.028  0.00  0.00    -0.287 OA
ATOM     28  C   LIG A   1       0.463   0.572   5.595  0.00  0.00    +0.006 A 
ATOM     29  C   LIG A   1       1.592   1.069   6.469  0.00  0.00    +0.048 C 
ATOM     30  C   LIG A   1      -0.758   0.192   6.203  0.00  0.00    +0.165 A 
ENDROOT
BRANCH   1  31
ATOM     31  O   LIG A   1      -3.001  -0.660   5.931  0.00  0.00    -0.503 OA
ATOM     32  H   LIG A   1      -3.638  -0.768   5.206  0.00  0.00    +0.292 HD
ENDBRANCH   1  31
BRANCH  22  33
ATOM     33  C   LIG A   1      -1.551  -1.210  -4.918  0.00  0.00    +0.316 C 
ATOM     34  O   LIG A   1      -2.678  -1.660  -5.039  0.00  0.00    -0.250 OA
BRANCH  33  35
ATOM     35  O   LIG A   1      -0.428  -1.970  -4.810  0.00  0.00    -0.468 OA
ATOM     36  C   LIG A   1      -0.608  -3.380  -4.963  0.00  0.00    +0.280 C 
ENDBRANCH  33  35
ENDBRANCH  22  33
BRANCH  24  37
ATOM     37  O   LIG A   1       0.274   1.917  -5.911  0.00  0.00    -0.383 OA
ATOM     38  H   LIG A   1       0.084   2.532  -5.186  0.00  0.00    +0.210 HD
ENDBRANCH  24  37
BRANCH  30  39
ATOM     39  O   LIG A   1      -0.861   0.453   7.547  0.00  0.00    -0.491 OA
ATOM     40  C   LIG A   1      -1.730  -0.381   8.305  0.00  0.00    +0.277 C 
ENDBRANCH  30  39
TORSDOF 5
