@<TRIPOS>MOLECULE
NuBBE_278
 141 150 0 0 0
SMALL
GASTEIGER

@<TRIPOS>ATOM
      1 O          -6.5210    4.5375   -8.3204 O.3     1  LIG1       -0.5068
      2 C          -5.4035    4.0001   -7.7596 C.ar    1  LIG1        0.1169
      3 C          -4.3897    4.8127   -7.2742 C.ar    1  LIG1       -0.0195
      4 C          -3.3042    4.2394   -6.6142 C.ar    1  LIG1       -0.0475
      5 C          -3.2096    2.8538   -6.4365 C.ar    1  LIG1        0.0213
      6 C          -2.1252    2.2038   -5.6499 C.ar    1  LIG1        0.1809
      7 C          -0.8956    2.7285   -5.4127 C.ar    1  LIG1        0.2138
      8 C           0.0787    1.7601   -4.8037 C.ar    1  LIG1        0.2382
      9 C          -0.4852    0.6658   -3.9937 C.ar    1  LIG1        0.1092
     10 C          -1.7889    0.2906   -4.2764 C.ar    1  LIG1        0.1466
     11 O          -2.5295    0.9411   -5.2173 O.2     1  LIG1       -0.4507
     12 C          -2.3799   -0.8018   -3.6386 C.ar    1  LIG1        0.0240
     13 C          -1.6509   -1.5263   -2.7004 C.ar    1  LIG1        0.1354
     14 O          -2.3088   -2.5888   -2.1192 O.3     1  LIG1       -0.4555
     15 C          -1.9825   -2.9286   -0.8293 C.ar    1  LIG1        0.1354
     16 C          -1.9378   -4.2948   -0.5356 C.ar    1  LIG1        0.0231
     17 C          -1.5361   -4.6917    0.7172 C.ar    1  LIG1        0.1348
     18 O          -1.4636   -6.0396    0.9909 O.3     1  LIG1       -0.5058
     19 C          -1.1666   -3.7539    1.7031 C.ar    1  LIG1        0.1092
     20 C          -0.7588   -4.1101    3.0307 C.ar    1  LIG1        0.2382
     21 C          -0.1072   -3.0440    3.8642 C.ar    1  LIG1        0.2138
     22 O           0.3612   -3.3670    5.1588 O.3     1  LIG1       -0.4532
     23 C           1.4787   -4.2739    5.2011 C.3     1  LIG1        0.2311
     24 H           2.2756   -3.8581    4.5707 H       1  LIG1        0.1084
     25 C           2.0331   -4.3732    6.6376 C.3     1  LIG1        0.1454
     26 H           2.3650   -3.3872    6.9822 H       1  LIG1        0.0683
     27 C           0.9254   -4.8756    7.5611 C.3     1  LIG1        0.1152
     28 H           1.3485   -5.1204    8.5418 H       1  LIG1        0.0648
     29 C           0.2269   -6.1332    7.0209 C.3     1  LIG1        0.1120
     30 H           0.4768   -6.9760    7.6783 H       1  LIG1        0.0647
     31 C           0.6527   -6.5755    5.5991 C.3     1  LIG1        0.1144
     32 H           1.4787   -7.2862    5.7272 H       1  LIG1        0.0647
     33 O           1.2228   -5.5869    4.7129 O.3     1  LIG1       -0.3313
     34 C          -0.4819   -7.3352    4.8798 C.3     1  LIG1        0.0796
     35 O          -0.7743   -8.6271    5.4430 O.3     1  LIG1       -0.3461
     36 C          -1.9381   -9.1561    4.7664 C.3     1  LIG1        0.1879
     37 H          -2.7281   -8.3925    4.7772 H       1  LIG1        0.0937
     38 O          -1.6510   -9.4676    3.4029 O.3     1  LIG1       -0.3431
     39 C          -0.8170  -10.5987    3.1465 C.3     1  LIG1        0.0873
     40 H          -1.1822  -10.9423    2.1709 H       1  LIG1        0.0621
     41 C          -0.9444  -11.8049    4.1156 C.3     1  LIG1        0.1095
     42 H          -0.0090  -12.3751    4.1459 H       1  LIG1        0.0646
     43 C          -1.4064  -11.4675    5.5375 C.3     1  LIG1        0.1140
     44 H          -1.8351  -12.3620    6.0057 H       1  LIG1        0.0648
     45 C          -2.4961  -10.3964    5.4803 C.3     1  LIG1        0.1341
     46 H          -3.3384  -10.7790    4.8905 H       1  LIG1        0.0671
     47 O          -3.0066  -10.0985    6.7846 O.3     1  LIG1       -0.3841
     48 O          -0.3189  -11.0849    6.3919 O.3     1  LIG1       -0.3864
     49 O          -1.9510  -12.6923    3.5815 O.3     1  LIG1       -0.3866
     50 C           0.6247  -10.1799    2.8653 C.3     1  LIG1       -0.0361
     51 O          -1.1936   -5.9652    7.1458 O.3     1  LIG1       -0.3865
     52 O          -0.0545   -3.8458    7.8105 O.3     1  LIG1       -0.3864
     53 O           3.1628   -5.2612    6.7008 O.3     1  LIG1       -0.3829
     54 C          -0.2408   -1.7792    3.4489 C.ar    1  LIG1        0.1809
     55 O          -0.8780   -1.4122    2.2830 O.2     1  LIG1       -0.4507
     56 C          -1.2526   -2.3806    1.3995 C.ar    1  LIG1        0.1466
     57 C          -1.7086   -1.9792    0.1608 C.ar    1  LIG1        0.0240
     58 C           0.3150   -0.6517    4.2018 C.ar    1  LIG1        0.0213
     59 C          -0.5073    0.3699    4.6986 C.ar    1  LIG1       -0.0475
     60 C           0.0475    1.4063    5.4533 C.ar    1  LIG1       -0.0195
     61 C           1.4140    1.4175    5.7117 C.ar    1  LIG1        0.1169
     62 C           2.2503    0.4411    5.1836 C.ar    1  LIG1       -0.0195
     63 C           1.6999   -0.5817    4.4149 C.ar    1  LIG1       -0.0475
     64 O           1.9059    2.4086    6.5068 O.3     1  LIG1       -0.5068
     65 O          -0.9890   -5.2500    3.4618 O.2     1  LIG1       -0.2830
     66 C          -0.3215   -1.1765   -2.4312 C.ar    1  LIG1        0.0231
     67 C           0.2454   -0.0616   -3.0522 C.ar    1  LIG1        0.1348
     68 O           1.5079    0.3231   -2.7060 O.3     1  LIG1       -0.5058
     69 O           1.2758    1.7670   -5.0628 O.2     1  LIG1       -0.2830
     70 O          -0.5617    4.0285   -5.7897 O.3     1  LIG1       -0.4532
     71 C           0.8001    4.4293   -6.0137 C.3     1  LIG1        0.2311
     72 H           1.4174    3.5548   -6.1930 H       1  LIG1        0.1084
     73 O           1.3114    5.0865   -4.8481 O.3     1  LIG1       -0.3313
     74 C           2.1897    6.1971   -5.0812 C.3     1  LIG1        0.1144
     75 H           3.0633    5.8817   -5.6671 H       1  LIG1        0.0647
     76 C           1.4124    7.2885   -5.8178 C.3     1  LIG1        0.1120
     77 H           0.5470    7.5890   -5.2158 H       1  LIG1        0.0647
     78 C           0.9283    6.7843   -7.1827 C.3     1  LIG1        0.1152
     79 H           1.5989    7.1906   -7.9551 H       1  LIG1        0.0648
     80 C           0.8938    5.2532   -7.3328 C.3     1  LIG1        0.1454
     81 H           0.0908    4.9547   -8.0184 H       1  LIG1        0.0683
     82 O           2.1419    4.8669   -7.9666 O.3     1  LIG1       -0.3829
     83 O          -0.3612    7.3455   -7.4791 O.3     1  LIG1       -0.3864
     84 O           2.1746    8.4834   -6.0455 O.3     1  LIG1       -0.3865
     85 C           2.6874    6.6641   -3.6931 C.3     1  LIG1        0.0796
     86 O           3.1288    8.0360   -3.6709 O.3     1  LIG1       -0.3461
     87 C           3.5558    8.4269   -2.3608 C.3     1  LIG1        0.1879
     88 H           4.3721    7.7617   -2.0538 H       1  LIG1        0.0937
     89 C           4.0983    9.8769   -2.3296 C.3     1  LIG1        0.1341
     90 H           4.8133   10.0478   -3.1415 H       1  LIG1        0.0671
     91 C           2.9705   10.9117   -2.4276 C.3     1  LIG1        0.1140
     92 H           2.5583   10.9410   -3.4426 H       1  LIG1        0.0648
     93 C           1.8485   10.6232   -1.4249 C.3     1  LIG1        0.1095
     94 H           2.2046   10.8250   -0.4065 H       1  LIG1        0.0646
     95 C           1.4096    9.1615   -1.5568 C.3     1  LIG1        0.0873
     96 H           0.9548    8.9906   -2.5416 H       1  LIG1        0.0621
     97 O           2.5275    8.2795   -1.3750 O.3     1  LIG1       -0.3431
     98 C           0.3741    8.7903   -0.5000 C.3     1  LIG1       -0.0361
     99 O           0.7571   11.5141   -1.6698 O.3     1  LIG1       -0.3866
    100 O           3.4781   12.2326   -2.1560 O.3     1  LIG1       -0.3864
    101 O           4.8068   10.1322   -1.0944 O.3     1  LIG1       -0.3841
    102 C          -4.2268    2.0526   -7.0016 C.ar    1  LIG1       -0.0475
    103 C          -5.3204    2.6219   -7.6550 C.ar    1  LIG1       -0.0195
    104 H          -6.4974    5.4955   -8.1599 H       1  LIG1        0.2921
    105 H          -4.4241    5.8926   -7.3711 H       1  LIG1        0.0654
    106 H          -2.5564    4.9214   -6.2259 H       1  LIG1        0.0626
    107 H          -3.4017   -1.0912   -3.8725 H       1  LIG1        0.0691
    108 H          -2.1853   -5.0204   -1.3064 H       1  LIG1        0.0691
    109 H          -1.9363   -6.5578    0.3197 H       1  LIG1        0.2922
    110 H          -1.4014   -6.7411    4.9164 H       1  LIG1        0.0587
    111 H          -0.2051   -7.4783    3.8304 H       1  LIG1        0.0587
    112 H          -2.3817  -10.4703    7.4332 H       1  LIG1        0.2101
    113 H          -0.1838  -10.1186    6.2865 H       1  LIG1        0.2100
    114 H          -1.6607  -12.9745    2.6973 H       1  LIG1        0.2100
    115 H           1.1279   -9.7701    3.7436 H       1  LIG1        0.0255
    116 H           0.6441   -9.4061    2.0876 H       1  LIG1        0.0255
    117 H           1.2062  -11.0316    2.4920 H       1  LIG1        0.0255
    118 H          -1.3363   -5.3268    7.8731 H       1  LIG1        0.2100
    119 H          -0.4302   -3.5886    6.9411 H       1  LIG1        0.2100
    120 H           3.2233   -5.7321    5.8467 H       1  LIG1        0.2102
    121 H          -1.7954   -0.9150   -0.0438 H       1  LIG1        0.0691
    122 H          -1.5803    0.3560    4.5231 H       1  LIG1        0.0626
    123 H          -0.5867    2.1908    5.8579 H       1  LIG1        0.0654
    124 H           3.3211    0.4574    5.3584 H       1  LIG1        0.0654
    125 H           2.3578   -1.3339    3.9866 H       1  LIG1        0.0626
    126 H           2.8130    2.1742    6.7644 H       1  LIG1        0.2921
    127 H           0.2695   -1.7615   -1.7328 H       1  LIG1        0.0691
    128 H           1.8621   -0.2548   -2.0123 H       1  LIG1        0.2922
    129 H           2.1568    5.2624   -8.8548 H       1  LIG1        0.2102
    130 H          -0.3473    8.2683   -7.1490 H       1  LIG1        0.2100
    131 H           2.6519    8.6746   -5.2110 H       1  LIG1        0.2100
    132 H           3.5031    6.0041   -3.3697 H       1  LIG1        0.0587
    133 H           1.8687    6.5423   -2.9757 H       1  LIG1        0.0587
    134 H          -0.5389    9.3852   -0.5965 H       1  LIG1        0.0255
    135 H           0.7796    8.9297    0.5084 H       1  LIG1        0.0255
    136 H           0.1092    7.7307   -0.5862 H       1  LIG1        0.0255
    137 H           1.1622   12.3940   -1.8111 H       1  LIG1        0.2100
    138 H           4.2146   12.1058   -1.5206 H       1  LIG1        0.2100
    139 H           4.4359    9.5361   -0.4145 H       1  LIG1        0.2101
    140 H          -4.1958    0.9663   -6.9254 H       1  LIG1        0.0626
    141 H          -6.1116    1.9921   -8.0508 H       1  LIG1        0.0654
@<TRIPOS>BOND
     1     1     2    1
     2     2     3   ar
     3     3     4   ar
     4     4     5   ar
     5     5     6    1
     6     6     7   ar
     7     7     8   ar
     8     8     9   ar
     9     9    10   ar
    10    10    11   ar
    11     6    11   ar
    12    10    12   ar
    13    12    13   ar
    14    13    14    1
    15    14    15    1
    16    15    16   ar
    17    16    17   ar
    18    17    18    1
    19    17    19   ar
    20    19    20   ar
    21    20    21   ar
    22    21    22    1
    23    22    23    1
    24    23    24    1
    25    23    25    1
    26    25    27    1
    27    27    29    1
    28    29    31    1
    29    31    33    1
    30    23    33    1
    31    34    35    1
    32    35    36    1
    33    36    37    1
    34    36    38    1
    35    38    39    1
    36    39    41    1
    37    41    42    1
    38    41    43    1
    39    43    45    1
    40    36    45    1
    41    41    49    1
    42    21    54   ar
    43    54    55   ar
    44    55    56   ar
    45    19    56   ar
    46    56    57   ar
    47    15    57   ar
    48    54    58    1
    49    58    59   ar
    50    59    60   ar
    51    60    61   ar
    52    61    62   ar
    53    62    63   ar
    54    58    63   ar
    55    61    64    1
    56    20    65    2
    57    13    66   ar
    58    66    67   ar
    59     9    67   ar
    60    67    68    1
    61     8    69    2
    62     7    70    1
    63    71    73    1
    64    73    74    1
    65    74    75    1
    66    74    76    1
    67    76    78    1
    68    78    79    1
    69    78    80    1
    70    71    80    1
    71    78    83    1
    72    74    85    1
    73    85    86    1
    74    86    87    1
    75    87    88    1
    76    87    89    1
    77    89    91    1
    78    91    92    1
    79    91    93    1
    80    93    95    1
    81    95    96    1
    82    95    97    1
    83    87    97    1
    84    95    98    1
    85    91   100    1
    86     5   102   ar
    87   102   103   ar
    88     2   103   ar
    89    25    53    1
    90    25    26    1
    91    27    52    1
    92    27    28    1
    93    29    51    1
    94    29    30    1
    95    31    34    1
    96    31    32    1
    97    39    50    1
    98    39    40    1
    99    43    48    1
   100    43    44    1
   101    45    47    1
   102    45    46    1
   103    71    72    1
   104    71    70    1
   105    76    84    1
   106    76    77    1
   107    80    82    1
   108    80    81    1
   109    89   101    1
   110    89    90    1
   111    93    99    1
   112    93    94    1
   113     1   104    1
   114     3   105    1
   115     4   106    1
   116    12   107    1
   117    16   108    1
   118    18   109    1
   119    34   110    1
   120    34   111    1
   121    47   112    1
   122    48   113    1
   123    49   114    1
   124    50   115    1
   125    50   116    1
   126    50   117    1
   127    51   118    1
   128    52   119    1
   129    53   120    1
   130    57   121    1
   131    59   122    1
   132    60   123    1
   133    62   124    1
   134    63   125    1
   135    64   126    1
   136    66   127    1
   137    68   128    1
   138    82   129    1
   139    83   130    1
   140    84   131    1
   141    85   132    1
   142    85   133    1
   143    98   134    1
   144    98   135    1
   145    98   136    1
   146    99   137    1
   147   100   138    1
   148   101   139    1
   149   102   140    1
   150   103   141    1
