@<TRIPOS>MOLECULE
NuBBE_1452
 70 74 0 0 0
SMALL
GASTEIGER

@<TRIPOS>ATOM
      1 C          -1.8431    0.6590   -1.3667 C.3     1  LIG1       -0.0530
      2 C          -0.4701    0.5385   -0.6475 C.3     1  LIG1        0.0244
      3 C          -0.6285    0.3166    0.9150 C.3     1  LIG1       -0.0066
      4 H          -1.4693    0.9410    1.2498 H       1  LIG1        0.0325
      5 C           0.6047    0.8725    1.6996 C.3     1  LIG1        0.0495
      6 C           0.5990    0.7278    3.2124 C.2     1  LIG1        0.3071
      7 O           1.3105   -0.0591    3.8093 O.2     1  LIG1       -0.2509
      8 O          -0.2958    1.5821    3.7676 O.3     1  LIG1       -0.4679
      9 C          -0.4087    1.4944    5.1919 C.3     1  LIG1        0.0817
     10 C          -0.9999   -1.1964    1.2507 C.3     1  LIG1        0.0409
     11 C          -2.3736   -1.5959    0.6051 C.3     1  LIG1       -0.0518
     12 C           0.0671   -2.2032    0.6994 C.3     1  LIG1        0.0191
     13 H          -0.5141   -2.8722    0.0520 H       1  LIG1        0.0350
     14 C           1.0353   -1.5856   -0.3349 C.3     1  LIG1        0.0872
     15 H           1.8865   -1.0929    0.1355 H       1  LIG1        0.0623
     16 C           0.3424   -0.6166   -1.3118 C.3     1  LIG1        0.0949
     17 H          -0.2822   -1.2091   -1.9915 H       1  LIG1        0.0631
     18 O           1.3736   -0.0360   -2.1618 O.3     1  LIG1       -0.3656
     19 C           1.6342    1.2761   -1.6817 C.3     1  LIG1        0.0819
     20 H           2.4295    1.2523   -0.9286 H       1  LIG1        0.0644
     21 C           0.3427    1.7206   -1.1128 C.2     1  LIG1       -0.0329
     22 C           0.0415    2.9870   -1.4489 C.2     1  LIG1       -0.0628
     23 C          -1.1764    3.7693   -1.0834 C.3     1  LIG1       -0.0429
     24 C           1.0829    3.5405   -2.4106 C.3     1  LIG1        0.0109
     25 H           1.7104    4.2586   -1.8671 H       1  LIG1        0.0396
     26 C           1.9066    2.2853   -2.7843 C.3     1  LIG1       -0.0121
     27 C           0.5201    4.1927   -3.6455 C.ar    1  LIG1       -0.0025
     28 C          -0.6557    3.8513   -4.3842 C.ar    1  LIG1       -0.0202
     29 C          -0.7435    4.7392   -5.4292 C.ar    1  LIG1        0.0920
     30 O           0.3149    5.5858   -5.4151 O.2     1  LIG1       -0.4707
     31 C           1.0779    5.2471   -4.3449 C.ar    1  LIG1        0.0954
     32 O           1.6072   -2.6549   -1.1019 O.3     1  LIG1       -0.3889
     33 C           0.7647   -3.1763    1.7308 C.3     1  LIG1        0.0894
     34 C           0.7623   -4.5999    1.1096 C.2     1  LIG1        0.3170
     35 O           1.7419   -5.3004    0.9103 O.2     1  LIG1       -0.2499
     36 O          -0.5264   -4.9692    0.8206 O.3     1  LIG1       -0.4673
     37 C          -0.6422   -6.0283   -0.1231 C.3     1  LIG1        0.0817
     38 C           2.2142   -2.7953    2.0823 C.3     1  LIG1       -0.0455
     39 C           0.0357   -3.3145    3.0491 C.2     1  LIG1       -0.0639
     40 C          -0.9212   -2.5066    3.5036 C.2     1  LIG1       -0.0215
     41 C          -1.3911   -1.3527    2.7258 C.2     1  LIG1        0.1623
     42 O          -2.1954   -0.5895    3.2629 O.2     1  LIG1       -0.2921
     43 H          -2.3097   -0.3006   -1.5820 H       1  LIG1        0.0239
     44 H          -1.7548    1.1321   -2.3529 H       1  LIG1        0.0239
     45 H          -2.5527    1.2503   -0.7786 H       1  LIG1        0.0239
     46 H           1.5444    0.4311    1.3616 H       1  LIG1        0.0381
     47 H           0.7198    1.9465    1.5050 H       1  LIG1        0.0381
     48 H          -1.2659    0.8665    5.4529 H       1  LIG1        0.0661
     49 H          -0.5823    2.5024    5.5734 H       1  LIG1        0.0661
     50 H           0.4943    1.1026    5.6728 H       1  LIG1        0.0661
     51 H          -2.2830   -1.8897   -0.4428 H       1  LIG1        0.0239
     52 H          -3.1056   -0.7838    0.6851 H       1  LIG1        0.0239
     53 H          -2.8161   -2.4677    1.1055 H       1  LIG1        0.0239
     54 H          -1.6567    3.3655   -0.1872 H       1  LIG1        0.0275
     55 H          -1.9144    3.7614   -1.8905 H       1  LIG1        0.0275
     56 H          -0.9123    4.8091   -0.8679 H       1  LIG1        0.0275
     57 H           2.9742    2.5291   -2.8423 H       1  LIG1        0.0302
     58 H           1.6294    1.8751   -3.7646 H       1  LIG1        0.0302
     59 H          -1.3626    3.0616   -4.1703 H       1  LIG1        0.0652
     60 H          -1.4544    4.8876   -6.2305 H       1  LIG1        0.1029
     61 H           1.9750    5.8369   -4.2170 H       1  LIG1        0.1032
     62 H           2.0951   -2.2319   -1.8372 H       1  LIG1        0.2099
     63 H          -0.0486   -5.8090   -1.0165 H       1  LIG1        0.0661
     64 H          -1.6931   -6.0797   -0.4225 H       1  LIG1        0.0661
     65 H          -0.3517   -6.9815    0.3233 H       1  LIG1        0.0661
     66 H           2.2825   -1.7737    2.4606 H       1  LIG1        0.0243
     67 H           2.8906   -2.8793    1.2264 H       1  LIG1        0.0243
     68 H           2.6245   -3.4540    2.8593 H       1  LIG1        0.0243
     69 H           0.3459   -4.1381    3.6938 H       1  LIG1        0.0584
     70 H          -1.3802   -2.6516    4.4753 H       1  LIG1        0.0650
@<TRIPOS>BOND
     1     2     3    1
     2     5     6    1
     3     6     7    2
     4     6     8    1
     5     8     9    1
     6     3    10    1
     7    10    12    1
     8    12    14    1
     9    14    16    1
    10     2    16    1
    11    16    18    1
    12    18    19    1
    13    19    21    1
    14     2    21    1
    15    21    22    2
    16    22    24    1
    17    24    26    1
    18    19    26    1
    19    27    28   ar
    20    28    29   ar
    21    29    30   ar
    22    30    31   ar
    23    27    31   ar
    24    12    33    1
    25    34    35    2
    26    34    36    1
    27    36    37    1
    28    33    39    1
    29    39    40    2
    30    40    41    1
    31    10    41    1
    32     1     2    1
    33     3     4    1
    34     3     5    1
    35    10    11    1
    36    12    13    1
    37    16    17    1
    38    19    20    1
    39    22    23    1
    40    33    34    1
    41    33    38    1
    42    41    42    2
    43    14    32    1
    44    14    15    1
    45    24    27    1
    46    24    25    1
    47     1    43    1
    48     1    44    1
    49     1    45    1
    50     5    46    1
    51     5    47    1
    52     9    48    1
    53     9    49    1
    54     9    50    1
    55    11    51    1
    56    11    52    1
    57    11    53    1
    58    23    54    1
    59    23    55    1
    60    23    56    1
    61    26    57    1
    62    26    58    1
    63    28    59    1
    64    29    60    1
    65    31    61    1
    66    32    62    1
    67    37    63    1
    68    37    64    1
    69    37    65    1
    70    38    66    1
    71    38    67    1
    72    38    68    1
    73    39    69    1
    74    40    70    1
