REMARK  Name = NuBBE_1129
REMARK  6 active torsions:
REMARK  status: ('A' for Active; 'I' for Inactive)
REMARK    1  A    between atoms: C_1  and  S_2
REMARK    2  A    between atoms: S_2  and  C_3
REMARK    3  A    between atoms: N_16  and  C_17
REMARK    4  A    between atoms: C_17  and  C_18
REMARK    5  A    between atoms: C_18  and  C_19
REMARK    6  A    between atoms: N_25  and  C_26
REMARK                            x       y       z     vdW  Elec       q    Type
REMARK                         _______ _______ _______ _____ _____    ______ ____
ROOT
ATOM      1  C   LIG A   1      -1.301   2.651  -3.447  0.00  0.00    +0.009 A 
ATOM      2  C   LIG A   1      -2.108   3.713  -3.054  0.00  0.00    +0.016 A 
ATOM      3  C   LIG A   1      -2.125   4.101  -1.720  0.00  0.00    +0.020 A 
ATOM      4  C   LIG A   1      -0.549   1.962  -2.483  0.00  0.00    +0.039 A 
ATOM      5  C   LIG A   1      -0.598   2.297  -1.109  0.00  0.00    +0.051 A 
ATOM      6  C   LIG A   1      -1.346   3.428  -0.753  0.00  0.00    +0.065 A 
ATOM      7  S   LIG A   1      -1.336   4.189   0.858  0.00  0.00    +0.089 S 
ATOM      8  C   LIG A   1      -0.259   3.083   1.745  0.00  0.00    +0.065 A 
ATOM      9  C   LIG A   1      -0.000   3.441   3.088  0.00  0.00    +0.019 A 
ATOM     10  C   LIG A   1       0.968   2.784   3.842  0.00  0.00    +0.001 A 
ATOM     11  C   LIG A   1       1.727   1.799   3.239  0.00  0.00    +0.002 A 
ATOM     12  C   LIG A   1       1.482   1.469   1.910  0.00  0.00    +0.024 A 
ATOM     13  C   LIG A   1       0.413   2.005   1.158  0.00  0.00    +0.050 A 
ATOM     14  N   LIG A   1       0.139   1.522  -0.145  0.00  0.00    -0.298 N 
ATOM     15  O   LIG A   1      -2.716   4.008   1.426  0.00  0.00    -0.247 OA
ENDROOT
BRANCH   1  17
ATOM     16  C   LIG A   1      -2.896   1.650  -5.442  0.00  0.00    +0.090 C 
ATOM     17  S   LIG A   1      -1.189   2.198  -5.168  0.00  0.00    -0.129 S 
ENDBRANCH   1  17
BRANCH  14  18
ATOM     18  C   LIG A   1      -0.246   0.040  -0.264  0.00  0.00    +0.112 C 
BRANCH  18  19
ATOM     19  C   LIG A   1       0.345  -0.930   0.782  0.00  0.00    +0.038 C 
BRANCH  19  20
ATOM     20  C   LIG A   1      -0.021  -2.433   0.695  0.00  0.00    +0.058 C 
ATOM     21  C   LIG A   1       0.514  -3.103  -0.582  0.00  0.00    +0.019 C 
ATOM     22  C   LIG A   1       2.036  -3.267  -0.580  0.00  0.00    +0.003 C 
ATOM     23  C   LIG A   1       2.559  -3.880   0.717  0.00  0.00    +0.015 C 
ATOM     24  C   LIG A   1       1.955  -3.216   1.953  0.00  0.00    +0.084 C 
ATOM     25  N   LIG A   1       0.486  -3.130   1.913  0.00  0.00    -0.302 NA
ATOM     26  C   LIG A   1      -0.119  -4.454   2.085  0.00  0.00    +0.105 C 
ENDBRANCH  19  20
ENDBRANCH  18  19
ENDBRANCH  14  18
TORSDOF 4
