@<TRIPOS>MOLECULE
NuBBE_2421
 48 51 0 0 0
SMALL
GASTEIGER

@<TRIPOS>ATOM
      1 O          -2.0032    1.5693   -0.8682 O.3     1  LIG1       -0.4908
      2 C          -2.9297    2.5581   -0.4334 C.3     1  LIG1        0.0790
      3 C          -0.7536    1.5614   -0.2888 C.ar    1  LIG1        0.1696
      4 C          -0.2040    0.2750   -0.0304 C.ar    1  LIG1        0.0362
      5 C           1.1082    0.2120    0.5151 C.ar    1  LIG1       -0.0152
      6 C           1.6461   -1.1644    0.9272 C.3     1  LIG1        0.0403
      7 H           1.8239   -1.7121   -0.0119 H       1  LIG1        0.0516
      8 C           0.5006   -1.8374    1.7293 C.3     1  LIG1       -0.0072
      9 C          -0.6822   -2.0263    0.7941 C.ar    1  LIG1       -0.0340
     10 C          -0.9488   -1.0174   -0.1749 C.ar    1  LIG1        0.0344
     11 C          -1.8298   -1.3682   -1.2269 C.ar    1  LIG1        0.1667
     12 O          -1.9270   -0.5712   -2.3435 O.3     1  LIG1       -0.5029
     13 C          -2.5312   -2.5826   -1.2176 C.ar    1  LIG1        0.1619
     14 C          -2.3375   -3.4873   -0.1676 C.ar    1  LIG1       -0.0160
     15 C          -1.4072   -3.2164    0.8302 C.ar    1  LIG1       -0.0542
     16 O          -3.3937   -3.0611   -2.1732 O.3     1  LIG1       -0.4914
     17 C          -4.0615   -2.0990   -2.9775 C.3     1  LIG1        0.0790
     18 N           2.9203   -1.1235    1.6926 N.3     1  LIG1       -0.2978
     19 C           3.5662   -2.4424    1.6938 C.3     1  LIG1       -0.0122
     20 C           3.8385   -0.1448    1.0839 C.3     1  LIG1        0.0032
     21 C           3.2773    1.2711    1.2264 C.3     1  LIG1       -0.0144
     22 C           1.8760    1.3684    0.6872 C.ar    1  LIG1       -0.0372
     23 C           1.3133    2.6202    0.4191 C.ar    1  LIG1       -0.0127
     24 C           0.0060    2.7290   -0.0666 C.ar    1  LIG1        0.1624
     25 O          -0.5836    3.9436   -0.3010 O.3     1  LIG1       -0.4914
     26 C           0.2664    5.0189   -0.6804 C.3     1  LIG1        0.0790
     27 H          -3.9269    2.2254   -0.7414 H       1  LIG1        0.0660
     28 H          -2.7598    3.5120   -0.9397 H       1  LIG1        0.0660
     29 H          -2.9335    2.6694    0.6550 H       1  LIG1        0.0660
     30 H           0.1927   -1.2309    2.5906 H       1  LIG1        0.0332
     31 H           0.8147   -2.8154    2.1084 H       1  LIG1        0.0332
     32 H          -1.6204    0.3202   -2.1035 H       1  LIG1        0.2923
     33 H          -2.8830   -4.4244   -0.1570 H       1  LIG1        0.0655
     34 H          -1.2235   -3.9611    1.6018 H       1  LIG1        0.0622
     35 H          -4.8951   -2.6080   -3.4720 H       1  LIG1        0.0660
     36 H          -3.4082   -1.7234   -3.7700 H       1  LIG1        0.0660
     37 H          -4.4831   -1.2874   -2.3748 H       1  LIG1        0.0660
     38 H           2.9497   -3.1918    2.1984 H       1  LIG1        0.0391
     39 H           4.5116   -2.4054    2.2470 H       1  LIG1        0.0391
     40 H           3.7814   -2.7993    0.6793 H       1  LIG1        0.0391
     41 H           4.0135   -0.3801    0.0245 H       1  LIG1        0.0430
     42 H           4.8137   -0.1724    1.5856 H       1  LIG1        0.0430
     43 H           3.9316    1.9644    0.6839 H       1  LIG1        0.0326
     44 H           3.2715    1.5676    2.2824 H       1  LIG1        0.0326
     45 H           1.9122    3.4997    0.6238 H       1  LIG1        0.0658
     46 H          -0.3718    5.8783   -0.9084 H       1  LIG1        0.0660
     47 H           0.8312    4.7674   -1.5839 H       1  LIG1        0.0660
     48 H           0.9314    5.3223    0.1332 H       1  LIG1        0.0660
@<TRIPOS>BOND
     1     1     2    1
     2     1     3    1
     3     3     4   ar
     4     4     5   ar
     5     5     6    1
     6     6     7    1
     7     6     8    1
     8     8     9    1
     9     9    10   ar
    10     4    10    1
    11    10    11   ar
    12    11    12    1
    13    11    13   ar
    14    13    14   ar
    15    14    15   ar
    16     9    15   ar
    17    13    16    1
    18    16    17    1
    19     6    18    1
    20    18    19    1
    21    18    20    1
    22    20    21    1
    23    21    22    1
    24     5    22   ar
    25    22    23   ar
    26    23    24   ar
    27     3    24   ar
    28    24    25    1
    29    25    26    1
    30     2    27    1
    31     2    28    1
    32     2    29    1
    33     8    30    1
    34     8    31    1
    35    12    32    1
    36    14    33    1
    37    15    34    1
    38    17    35    1
    39    17    36    1
    40    17    37    1
    41    19    38    1
    42    19    39    1
    43    19    40    1
    44    20    41    1
    45    20    42    1
    46    21    43    1
    47    21    44    1
    48    23    45    1
    49    26    46    1
    50    26    47    1
    51    26    48    1
