@<TRIPOS>MOLECULE
NuBBE_2199
 52 54 0 0 0
SMALL
GASTEIGER

@<TRIPOS>ATOM
      1 C          -1.6974   -0.6647    1.6587 C.3     1  LIG1       -0.0552
      2 C          -0.4003   -0.0881    1.0401 C.3     1  LIG1       -0.0003
      3 C          -0.5555    1.4180    0.6097 C.3     1  LIG1       -0.0237
      4 C          -1.4887    1.5501   -0.6001 C.3     1  LIG1       -0.0189
      5 C          -0.9270    0.7895   -1.8009 C.3     1  LIG1        0.0772
      6 H          -0.1687    1.4128   -2.2904 H       1  LIG1        0.0640
      7 O          -1.9810    0.5914   -2.7381 O.3     1  LIG1       -0.3875
      8 C          -0.3028   -0.5448   -1.4731 C.2     1  LIG1       -0.0336
      9 C           0.1005   -1.3527   -2.6912 C.3     1  LIG1       -0.0194
     10 C           1.2153   -2.3836   -2.4113 C.3     1  LIG1       -0.0036
     11 C           2.5597   -1.6671   -2.2641 C.2     1  LIG1       -0.0845
     12 C           3.4382   -1.7563   -1.2556 C.2     1  LIG1       -0.1021
     13 C           1.3427   -3.3221   -3.6280 C.3     1  LIG1       -0.0554
     14 C           0.7792   -3.2115   -1.1977 C.3     1  LIG1        0.0193
     15 C          -0.0908   -0.9578   -0.2021 C.2     1  LIG1        0.0029
     16 C           0.4407   -2.3563    0.0047 C.2     1  LIG1        0.1606
     17 O           0.5285   -2.8417    1.1327 O.2     1  LIG1       -0.2923
     18 H           0.4409    1.7103    0.2355 H       1  LIG1        0.0315
     19 C          -0.8755    2.4237    1.7764 C.3     1  LIG1       -0.0312
     20 C          -0.2607    3.8018    1.4139 C.3     1  LIG1       -0.0595
     21 C          -2.3822    2.6658    2.0035 C.3     1  LIG1       -0.0595
     22 C          -0.2381    1.9475    3.1064 C.3     1  LIG1       -0.0476
     23 C           1.0224    1.1286    2.8760 C.3     1  LIG1       -0.0518
     24 C           0.7596   -0.1575    2.0847 C.3     1  LIG1       -0.0432
     25 H          -2.5520   -0.5716    0.9807 H       1  LIG1        0.0238
     26 H          -1.9646   -0.1843    2.6008 H       1  LIG1        0.0238
     27 H          -1.5996   -1.7310    1.8913 H       1  LIG1        0.0238
     28 H          -1.6114    2.5998   -0.8928 H       1  LIG1        0.0296
     29 H          -2.4997    1.1982   -0.3632 H       1  LIG1        0.0296
     30 H          -2.6425    0.0204   -2.3112 H       1  LIG1        0.2102
     31 H           0.4311   -0.6728   -3.4885 H       1  LIG1        0.0319
     32 H          -0.7973   -1.8597   -3.0707 H       1  LIG1        0.0319
     33 H           2.8309   -1.0123   -3.0945 H       1  LIG1        0.0572
     34 H           3.2841   -2.3831   -0.3834 H       1  LIG1        0.0532
     35 H           4.3651   -1.1897   -1.2847 H       1  LIG1        0.0532
     36 H           1.5979   -2.7675   -4.5390 H       1  LIG1        0.0238
     37 H           0.4035   -3.8535   -3.8211 H       1  LIG1        0.0238
     38 H           2.1216   -4.0770   -3.4676 H       1  LIG1        0.0238
     39 H           1.5643   -3.9216   -0.9106 H       1  LIG1        0.0353
     40 H          -0.1185   -3.7997   -1.4294 H       1  LIG1        0.0353
     41 H          -0.6794    4.1979    0.4828 H       1  LIG1        0.0235
     42 H           0.8257    3.7367    1.2886 H       1  LIG1        0.0235
     43 H          -0.4560    4.5415    2.1991 H       1  LIG1        0.0235
     44 H          -2.8501    3.1543    1.1420 H       1  LIG1        0.0235
     45 H          -2.5439    3.3214    2.8676 H       1  LIG1        0.0235
     46 H          -2.9292    1.7400    2.1944 H       1  LIG1        0.0235
     47 H          -0.9461    1.3476    3.6893 H       1  LIG1        0.0271
     48 H           0.0023    2.8075    3.7446 H       1  LIG1        0.0271
     49 H           1.4801    0.8713    3.8386 H       1  LIG1        0.0266
     50 H           1.7630    1.7373    2.3428 H       1  LIG1        0.0266
     51 H           0.5563   -0.9577    2.8084 H       1  LIG1        0.0274
     52 H           1.7052   -0.4277    1.5961 H       1  LIG1        0.0274
@<TRIPOS>BOND
     1     1     2    1
     2     2     3    1
     3     3     4    1
     4     4     5    1
     5     5     8    1
     6     8     9    1
     7     9    10    1
     8    10    11    1
     9    11    12    2
    10    10    13    1
    11    10    14    1
    12     8    15    2
    13     2    15    1
    14    15    16    1
    15    14    16    1
    16    16    17    2
    17     3    18    1
    18     3    19    1
    19    19    20    1
    20    19    21    1
    21    19    22    1
    22    22    23    1
    23    23    24    1
    24     2    24    1
    25     5     7    1
    26     5     6    1
    27     1    25    1
    28     1    26    1
    29     1    27    1
    30     4    28    1
    31     4    29    1
    32     7    30    1
    33     9    31    1
    34     9    32    1
    35    11    33    1
    36    12    34    1
    37    12    35    1
    38    13    36    1
    39    13    37    1
    40    13    38    1
    41    14    39    1
    42    14    40    1
    43    20    41    1
    44    20    42    1
    45    20    43    1
    46    21    44    1
    47    21    45    1
    48    21    46    1
    49    22    47    1
    50    22    48    1
    51    23    49    1
    52    23    50    1
    53    24    51    1
    54    24    52    1
