@<TRIPOS>MOLECULE
NuBBE_44
 22 21 0 0 0
SMALL
GASTEIGER

@<TRIPOS>ATOM
      1 N          -0.5622   -2.6371   -2.3143 N.pl3   1  LIG1       -0.1298
      2 C          -1.2463   -1.6025   -1.9877 C.cat   1  LIG1        0.3765
      3 N          -2.3992   -1.2593   -2.5943 N.pl3   1  LIG1       -0.2893
      4 N          -0.9019   -0.6941   -1.0514 N.pl3   1  LIG1       -0.2727
      5 C           0.3021   -0.8285   -0.2587 C.3     1  LIG1        0.0833
      6 C           0.7214    0.5684    0.1025 C.2     1  LIG1       -0.0521
      7 C           0.9292    1.1114    1.3186 C.2     1  LIG1       -0.0767
      8 C           0.7767    0.3927    2.6289 C.3     1  LIG1       -0.0440
      9 C           1.3713    2.5468    1.4490 C.3     1  LIG1       -0.0440
     10 H          -1.0530   -3.1550   -3.0417 H       1  LIG1        0.3062
     11 H          -2.5295   -1.6784   -3.5062 H       1  LIG1        0.2546
     12 H          -2.5140   -0.2530   -2.6455 H       1  LIG1        0.2546
     13 H          -1.6865   -0.3608   -0.5043 H       1  LIG1        0.2582
     14 H           1.1135   -1.2865   -0.8357 H       1  LIG1        0.0700
     15 H           0.1045   -1.4621    0.6090 H       1  LIG1        0.0700
     16 H           0.8851    1.1970   -0.7735 H       1  LIG1        0.0603
     17 H           0.5908   -0.6774    2.5182 H       1  LIG1        0.0274
     18 H          -0.0556    0.8217    3.1965 H       1  LIG1        0.0274
     19 H           1.6899    0.5002    3.2242 H       1  LIG1        0.0274
     20 H           1.4313    3.0552    0.4808 H       1  LIG1        0.0274
     21 H           2.3632    2.5943    1.9107 H       1  LIG1        0.0274
     22 H           0.6690    3.1071    2.0747 H       1  LIG1        0.0274
@<TRIPOS>BOND
     1     1     2    2
     2     2     3    1
     3     2     4    1
     4     4     5    1
     5     5     6    1
     6     6     7    2
     7     7     8    1
     8     7     9    1
     9     1    10    1
    10     3    11    1
    11     3    12    1
    12     4    13    1
    13     5    14    1
    14     5    15    1
    15     6    16    1
    16     8    17    1
    17     8    18    1
    18     8    19    1
    19     9    20    1
    20     9    21    1
    21     9    22    1
