REMARK  Name = NuBBE_1111
REMARK  11 active torsions:
REMARK  status: ('A' for Active; 'I' for Inactive)
REMARK    1  A    between atoms: C_1  and  O_2
REMARK    2  A    between atoms: C_1  and  C_15
REMARK    3  A    between atoms: O_2  and  C_3
REMARK    4  A    between atoms: C_3  and  C_5
REMARK    5  A    between atoms: C_6  and  C_7
REMARK    6  A    between atoms: C_9  and  O_10
REMARK    7  A    between atoms: C_11  and  O_14
REMARK    8  A    between atoms: C_17  and  O_19
REMARK    9  A    between atoms: C_20  and  O_22
REMARK   10  A    between atoms: C_23  and  O_29
REMARK   11  A    between atoms: C_25  and  O_28
REMARK                            x       y       z     vdW  Elec       q    Type
REMARK                         _______ _______ _______ _____ _____    ______ ____
ROOT
ATOM      1  C   LIG A   1      -2.653   0.850   1.601  0.00  0.00    +0.267 C 
ENDROOT
BRANCH   1   2
ATOM      2  C   LIG A   1      -3.185   0.659   0.165  0.00  0.00    +0.190 C 
ATOM      3  C   LIG A   1      -2.655  -0.616  -0.502  0.00  0.00    +0.178 C 
ATOM      4  C   LIG A   1      -3.120  -0.735  -1.952  0.00  0.00    +0.179 C 
ATOM      5  C   LIG A   1      -2.750   0.539  -2.716  0.00  0.00    +0.201 C 
ATOM      6  C   LIG A   1      -3.252   1.782  -1.953  0.00  0.00    +0.279 C 
ATOM      7  O   LIG A   1      -2.827   1.819  -0.598  0.00  0.00    -0.340 OA
BRANCH   3   8
ATOM      8  O   LIG A   1      -3.075  -1.791   0.197  0.00  0.00    -0.386 OA
ATOM      9  H   LIG A   1      -2.408  -1.941   0.906  0.00  0.00    +0.210 HD
ENDBRANCH   3   8
BRANCH   4  10
ATOM     10  O   LIG A   1      -2.469  -1.883  -2.523  0.00  0.00    -0.386 OA
ATOM     11  H   LIG A   1      -2.617  -2.608  -1.885  0.00  0.00    +0.210 HD
ENDBRANCH   4  10
BRANCH   6  12
ATOM     12  O   LIG A   1      -4.667   1.927  -2.048  0.00  0.00    -0.365 OA
ATOM     13  H   LIG A   1      -5.087   1.076  -1.851  0.00  0.00    +0.213 HD
ENDBRANCH   6  12
BRANCH   5  14
ATOM     14  O   LIG A   1      -3.286   0.508  -4.046  0.00  0.00    -0.384 OA
ATOM     15  H   LIG A   1      -4.131   0.993  -4.037  0.00  0.00    +0.210 HD
ENDBRANCH   5  14
ENDBRANCH   1   2
BRANCH   1  16
ATOM     16  O   LIG A   1      -1.213   0.957   1.641  0.00  0.00    -0.459 OA
BRANCH  16  17
ATOM     17  C   LIG A   1      -0.519  -0.201   1.736  0.00  0.00    +0.332 C 
ATOM     18  O   LIG A   1      -0.995  -1.325   1.796  0.00  0.00    -0.246 OA
BRANCH  17  19
ATOM     19  C   LIG A   1       0.916   0.109   1.640  0.00  0.00    +0.092 C 
ATOM     20  C   LIG A   1       1.811  -0.887   1.585  0.00  0.00    +0.015 C 
BRANCH  20  21
ATOM     21  C   LIG A   1       3.239  -0.594   1.469  0.00  0.00    -0.021 A 
ATOM     22  C   LIG A   1       3.844  -0.577   0.209  0.00  0.00    +0.057 A 
ATOM     23  C   LIG A   1       5.195  -0.262   0.108  0.00  0.00    +0.159 A 
ATOM     24  C   LIG A   1       5.935   0.028   1.253  0.00  0.00    +0.158 A 
ATOM     25  C   LIG A   1       5.348   0.010   2.507  0.00  0.00    +0.050 A 
ATOM     26  C   LIG A   1       3.987  -0.303   2.618  0.00  0.00    +0.012 A 
BRANCH  23  27
ATOM     27  O   LIG A   1       5.843  -0.222  -1.095  0.00  0.00    -0.503 OA
ATOM     28  H   LIG A   1       5.200  -0.454  -1.792  0.00  0.00    +0.292 HD
ENDBRANCH  23  27
BRANCH  24  29
ATOM     29  O   LIG A   1       7.261   0.342   1.147  0.00  0.00    -0.503 OA
ATOM     30  H   LIG A   1       7.450   0.293   0.186  0.00  0.00    +0.292 HD
ENDBRANCH  24  29
ENDBRANCH  20  21
ENDBRANCH  17  19
ENDBRANCH  16  17
ENDBRANCH   1  16
TORSDOF 11
