REMARK  Name = NuBBE_1512
REMARK  7 active torsions:
REMARK  status: ('A' for Active; 'I' for Inactive)
REMARK    1  A    between atoms: C_1  and  C_2
REMARK    2  A    between atoms: C_9  and  C_12
REMARK    3  A    between atoms: C_13  and  C_18
REMARK    4  A    between atoms: C_18  and  C_19
REMARK    5  A    between atoms: C_24  and  O_26
REMARK    6  A    between atoms: C_27  and  O_33
REMARK    7  A    between atoms: C_29  and  O_32
REMARK                            x       y       z     vdW  Elec       q    Type
REMARK                         _______ _______ _______ _____ _____    ______ ____
ROOT
ATOM      1  C   LIG A   1      -2.803  -1.763  -0.973  0.00  0.00    +0.012 C 
ATOM      2  C   LIG A   1      -1.252  -1.726  -0.761  0.00  0.00    -0.021 C 
ATOM      3  C   LIG A   1      -0.751  -0.274  -1.112  0.00  0.00    -0.001 C 
ATOM      4  C   LIG A   1      -1.458   0.811  -0.255  0.00  0.00    -0.003 C 
ATOM      5  C   LIG A   1      -0.952   2.260  -0.569  0.00  0.00    +0.006 C 
ATOM      6  C   LIG A   1       0.582   2.435  -0.723  0.00  0.00    -0.019 C 
ATOM      7  C   LIG A   1       1.220   1.276  -1.502  0.00  0.00    +0.008 C 
ATOM      8  C   LIG A   1       0.776  -0.113  -1.071  0.00  0.00    +0.005 C 
ATOM      9  C   LIG A   1       0.895   3.732  -1.520  0.00  0.00    +0.012 C 
ATOM     10  C   LIG A   1       1.059   2.551   0.753  0.00  0.00    +0.061 C 
ATOM     11  C   LIG A   1      -0.095   3.349   1.356  0.00  0.00    +0.137 C 
ATOM     12  O   LIG A   1      -0.045   3.950   2.422  0.00  0.00    -0.297 OA
ATOM     13  C   LIG A   1      -1.335   3.306   0.489  0.00  0.00    +0.079 C 
ATOM     14  C   LIG A   1      -1.635   0.396   1.226  0.00  0.00    +0.004 C 
ATOM     15  C   LIG A   1      -0.878  -0.848   1.667  0.00  0.00    +0.007 C 
ATOM     16  C   LIG A   1      -0.973  -2.083   0.739  0.00  0.00    +0.026 C 
ATOM     17  C   LIG A   1       0.273  -2.963   1.008  0.00  0.00    +0.149 C 
ATOM     18  C   LIG A   1       0.434  -4.114   0.023  0.00  0.00    +0.172 C 
ATOM     19  C   LIG A   1       0.543  -3.557  -1.389  0.00  0.00    +0.146 C 
ATOM     20  C   LIG A   1      -0.711  -2.780  -1.782  0.00  0.00    +0.041 C 
ENDROOT
BRANCH  10  21
ATOM     21  C   LIG A   1       2.427   3.205   0.960  0.00  0.00    +0.008 C 
ATOM     22  C   LIG A   1       3.007   2.906   2.338  0.00  0.00    +0.004 C 
ENDBRANCH  10  21
BRANCH  17  23
ATOM     23  O   LIG A   1       0.150  -3.519   2.327  0.00  0.00    -0.389 OA
ATOM     24  H   LIG A   1       1.021  -3.874   2.580  0.00  0.00    +0.210 HD
ENDBRANCH  17  23
BRANCH  19  25
ATOM     25  O   LIG A   1       0.712  -4.641  -2.308  0.00  0.00    -0.389 OA
ATOM     26  H   LIG A   1       0.051  -5.312  -2.040  0.00  0.00    +0.210 HD
ENDBRANCH  19  25
BRANCH  18  27
ATOM     27  O   LIG A   1      -0.681  -5.014   0.109  0.00  0.00    -0.387 OA
ATOM     28  H   LIG A   1      -0.907  -5.061   1.060  0.00  0.00    +0.210 HD
ENDBRANCH  18  27
TORSDOF 4
