REMARK  Name = NuBBE_1060
REMARK  10 active torsions:
REMARK  status: ('A' for Active; 'I' for Inactive)
REMARK    1  A    between atoms: C_1  and  C_2
REMARK    2  A    between atoms: C_5  and  C_6
REMARK    3  A    between atoms: C_13  and  C_14
REMARK    4  A    between atoms: C_13  and  C_23
REMARK    5  A    between atoms: C_14  and  C_15
REMARK    6  A    between atoms: C_25  and  O_27
REMARK    7  A    between atoms: O_27  and  C_28
REMARK    8  A    between atoms: C_28  and  C_29
REMARK    9  A    between atoms: C_36  and  C_44
REMARK   10  A    between atoms: C_39  and  O_41
REMARK                            x       y       z     vdW  Elec       q    Type
REMARK                         _______ _______ _______ _____ _____    ______ ____
ROOT
ATOM      1  C   LIG A   1       0.473  -1.969   2.383  0.00  0.00    +0.020 C 
ATOM      2  C   LIG A   1       1.213  -1.368   1.158  0.00  0.00    +0.039 C 
ATOM      3  C   LIG A   1       0.181  -0.509   0.236  0.00  0.00    +0.053 C 
ATOM      4  C   LIG A   1       0.914   0.609  -0.568  0.00  0.00    +0.016 C 
ATOM      5  C   LIG A   1       1.894  -0.049  -1.600  0.00  0.00    +0.015 C 
ATOM      6  C   LIG A   1       1.612   1.567   0.444  0.00  0.00    +0.183 C 
ATOM      7  O   LIG A   1       2.595   2.337  -0.264  0.00  0.00    -0.461 OA
ATOM      8  C   LIG A   1       2.154   3.013  -1.360  0.00  0.00    +0.308 C 
ATOM      9  C   LIG A   1       0.659   2.946  -1.609  0.00  0.00    +0.126 C 
ATOM     10  C   LIG A   1      -0.005   1.538  -1.468  0.00  0.00    +0.023 C 
ATOM     11  C   LIG A   1      -1.521   1.596  -1.066  0.00  0.00    +0.034 C 
ATOM     12  C   LIG A   1      -2.162   2.991  -1.301  0.00  0.00    +0.019 C 
ATOM     13  C   LIG A   1      -1.687   1.342   0.444  0.00  0.00    +0.059 C 
ATOM     14  C   LIG A   1      -1.019   0.096   1.050  0.00  0.00    +0.182 C 
ATOM     15  O   LIG A   1       2.905   3.690  -2.051  0.00  0.00    -0.251 OA
ATOM     16  C   LIG A   1       2.220   0.932   1.711  0.00  0.00    +0.050 C 
ATOM     17  C   LIG A   1       2.506  -0.550   1.532  0.00  0.00    +0.009 C 
ATOM     18  C   LIG A   1       3.322  -1.261   2.639  0.00  0.00    -0.007 C 
ATOM     19  C   LIG A   1       3.883  -2.564   2.027  0.00  0.00    +0.042 C 
ATOM     20  C   LIG A   1       2.883  -3.410   1.223  0.00  0.00    +0.181 C 
ATOM     21  C   LIG A   1       1.809  -2.603   0.446  0.00  0.00    +0.168 C 
ATOM     22  O   LIG A   1       1.431  -2.991  -0.661  0.00  0.00    -0.294 OA
ATOM     23  C   LIG A   1       4.476  -0.424   3.201  0.00  0.00    +0.008 C 
ENDROOT
BRANCH  11  24
ATOM     24  C   LIG A   1      -2.340   0.545  -1.902  0.00  0.00    +0.146 C 
ATOM     25  O   LIG A   1      -2.462  -0.618  -1.515  0.00  0.00    -0.296 OA
BRANCH  24  26
ATOM     26  C   LIG A   1      -3.002   0.977  -3.217  0.00  0.00    +0.104 C 
ATOM     27  C   LIG A   1      -4.381   1.522  -2.919  0.00  0.00    +0.243 C 
ATOM     28  O   LIG A   1      -5.221   1.202  -4.023  0.00  0.00    -0.464 OA
ATOM     29  C   LIG A   1      -4.637   0.237  -4.764  0.00  0.00    +0.308 C 
ATOM     30  C   LIG A   1      -3.304  -0.139  -4.205  0.00  0.00    +0.135 C 
ATOM     31  O   LIG A   1      -5.160  -0.259  -5.757  0.00  0.00    -0.251 OA
ENDBRANCH  24  26
ENDBRANCH  11  24
BRANCH  20  32
ATOM     32  O   LIG A   1       3.631  -4.231   0.327  0.00  0.00    -0.384 OA
ATOM     33  H   LIG A   1       3.031  -4.437  -0.419  0.00  0.00    +0.210 HD
ENDBRANCH  20  32
BRANCH  14  34
ATOM     34  O   LIG A   1      -1.997  -0.942   1.305  0.00  0.00    -0.461 OA
BRANCH  34  35
ATOM     35  C   LIG A   1      -2.870  -0.729   2.331  0.00  0.00    +0.304 C 
ATOM     36  C   LIG A   1      -3.547  -2.001   2.747  0.00  0.00    +0.136 C 
ATOM     37  O   LIG A   1      -3.020   0.335   2.916  0.00  0.00    -0.251 OA
ENDBRANCH  34  35
ENDBRANCH  14  34
TORSDOF 5
