REMARK  Name = NuBBE_1283
REMARK  11 active torsions:
REMARK  status: ('A' for Active; 'I' for Inactive)
REMARK    1  A    between atoms: O_1  and  C_2
REMARK    2  A    between atoms: C_4  and  O_5
REMARK    3  A    between atoms: C_8  and  O_9
REMARK    4  A    between atoms: O_9  and  C_10
REMARK    5  A    between atoms: C_11  and  O_13
REMARK    6  A    between atoms: C_14  and  O_16
REMARK    7  A    between atoms: C_17  and  O_19
REMARK    8  A    between atoms: C_20  and  C_22
REMARK    9  A    between atoms: C_24  and  C_28
REMARK   10  A    between atoms: C_31  and  O_35
REMARK   11  A    between atoms: C_32  and  O_33
REMARK                            x       y       z     vdW  Elec       q    Type
REMARK                         _______ _______ _______ _____ _____    ______ ____
ROOT
ATOM      1  C   LIG A   1      -5.172   1.579  -0.422  0.00  0.00    +0.124 A 
ATOM      2  C   LIG A   1      -5.104   0.377   0.280  0.00  0.00    +0.091 A 
ATOM      3  C   LIG A   1      -3.857  -0.104   0.684  0.00  0.00    +0.135 A 
ATOM      4  C   LIG A   1      -2.697   0.620   0.387  0.00  0.00    +0.109 A 
ATOM      5  C   LIG A   1      -1.369   0.283   0.914  0.00  0.00    +0.238 A 
ATOM      6  C   LIG A   1      -0.200   0.746   0.098  0.00  0.00    +0.214 A 
ATOM      7  C   LIG A   1      -0.422   1.842  -0.669  0.00  0.00    +0.181 A 
ATOM      8  O   LIG A   1      -1.664   2.473  -0.760  0.00  0.00    -0.451 OA
ATOM      9  C   LIG A   1      -2.778   1.776  -0.377  0.00  0.00    +0.146 A 
ATOM     10  C   LIG A   1      -4.019   2.275  -0.769  0.00  0.00    +0.092 A 
ATOM     11  O   LIG A   1      -1.249  -0.235   2.022  0.00  0.00    -0.283 OA
ENDROOT
BRANCH   7  12
ATOM     12  C   LIG A   1       0.625   2.568  -1.448  0.00  0.00    +0.025 A 
ATOM     13  C   LIG A   1       0.513   3.967  -1.617  0.00  0.00    +0.015 A 
ATOM     14  C   LIG A   1       1.458   4.703  -2.346  0.00  0.00    +0.050 A 
ATOM     15  C   LIG A   1       2.537   4.042  -2.908  0.00  0.00    +0.158 A 
ATOM     16  C   LIG A   1       2.662   2.665  -2.758  0.00  0.00    +0.159 A 
ATOM     17  C   LIG A   1       1.713   1.927  -2.057  0.00  0.00    +0.060 A 
BRANCH  16  18
ATOM     18  O   LIG A   1       3.735   2.018  -3.305  0.00  0.00    -0.503 OA
ATOM     19  H   LIG A   1       4.275   2.730  -3.703  0.00  0.00    +0.292 HD
ENDBRANCH  16  18
BRANCH  15  20
ATOM     20  O   LIG A   1       3.499   4.698  -3.623  0.00  0.00    -0.503 OA
ATOM     21  H   LIG A   1       3.247   5.635  -3.683  0.00  0.00    +0.292 HD
ENDBRANCH  15  20
ENDBRANCH   7  12
BRANCH   1  22
ATOM     22  O   LIG A   1      -6.369   2.112  -0.799  0.00  0.00    -0.506 OA
ATOM     23  H   LIG A   1      -7.091   1.589  -0.412  0.00  0.00    +0.292 HD
ENDBRANCH   1  22
BRANCH   3  24
ATOM     24  O   LIG A   1      -3.773  -1.301   1.334  0.00  0.00    -0.506 OA
ATOM     25  H   LIG A   1      -4.657  -1.671   1.482  0.00  0.00    +0.292 HD
ENDBRANCH   3  24
BRANCH   6  26
ATOM     26  O   LIG A   1       1.049   0.150   0.179  0.00  0.00    -0.453 OA
BRANCH  26  27
ATOM     27  C   LIG A   1       1.218  -0.985   1.046  0.00  0.00    +0.340 C 
ATOM     28  C   LIG A   1       2.697  -1.429   0.921  0.00  0.00    +0.214 C 
ATOM     29  C   LIG A   1       2.953  -2.640   1.818  0.00  0.00    +0.180 C 
ATOM     30  C   LIG A   1       1.916  -3.746   1.557  0.00  0.00    +0.174 C 
ATOM     31  C   LIG A   1       0.492  -3.156   1.607  0.00  0.00    +0.150 C 
ATOM     32  C   LIG A   1      -0.567  -4.204   1.282  0.00  0.00    +0.040 C 
ATOM     33  O   LIG A   1       0.380  -2.086   0.656  0.00  0.00    -0.334 OA
BRANCH  28  34
ATOM     34  O   LIG A   1       3.011  -1.797  -0.436  0.00  0.00    -0.383 OA
ATOM     35  H   LIG A   1       2.501  -1.191  -1.006  0.00  0.00    +0.210 HD
ENDBRANCH  28  34
BRANCH  29  36
ATOM     36  O   LIG A   1       2.902  -2.257   3.200  0.00  0.00    -0.386 OA
ATOM     37  H   LIG A   1       2.851  -3.106   3.689  0.00  0.00    +0.210 HD
ENDBRANCH  29  36
BRANCH  30  38
ATOM     38  O   LIG A   1       2.099  -4.770   2.546  0.00  0.00    -0.387 OA
ATOM     39  H   LIG A   1       1.722  -5.589   2.176  0.00  0.00    +0.210 HD
ENDBRANCH  30  38
ENDBRANCH  26  27
ENDBRANCH   6  26
TORSDOF 10
