REMARK  Name = NuBBE_655
REMARK  4 active torsions:
REMARK  status: ('A' for Active; 'I' for Inactive)
REMARK    1  A    between atoms: O_1  and  C_2
REMARK    2  A    between atoms: C_5  and  C_6
REMARK    3  A    between atoms: C_6  and  C_7
REMARK    4  A    between atoms: C_6  and  O_8
REMARK                            x       y       z     vdW  Elec       q    Type
REMARK                         _______ _______ _______ _____ _____    ______ ____
ROOT
ATOM      1  C   LIG A   1      -1.138   0.300   1.841  0.00  0.00    +0.115 C 
ATOM      2  C   LIG A   1      -0.599  -1.088   1.510  0.00  0.00    +0.032 C 
ATOM      3  C   LIG A   1      -0.740  -1.419   0.024  0.00  0.00    +0.009 C 
ATOM      4  C   LIG A   1      -0.135  -0.361  -0.920  0.00  0.00    +0.017 C 
ATOM      5  C   LIG A   1      -0.625   1.047  -0.534  0.00  0.00    +0.009 C 
ATOM      6  C   LIG A   1      -0.517   1.377   0.957  0.00  0.00    +0.032 C 
ENDROOT
BRANCH   1   7
ATOM      7  O   LIG A   1      -2.553   0.324   1.656  0.00  0.00    -0.392 OA
ATOM      8  H   LIG A   1      -2.933  -0.355   2.239  0.00  0.00    +0.210 HD
ENDBRANCH   1   7
BRANCH   4   9
ATOM      9  C   LIG A   1       1.402  -0.513  -1.050  0.00  0.00    +0.115 C 
ATOM     10  C   LIG A   1       1.988   0.296  -2.205  0.00  0.00    +0.038 C 
BRANCH   9  11
ATOM     11  O   LIG A   1       2.081  -0.172   0.152  0.00  0.00    -0.392 OA
ATOM     12  H   LIG A   1       2.251   0.785   0.144  0.00  0.00    +0.210 HD
ENDBRANCH   9  11
ENDBRANCH   4   9
TORSDOF 3
