@<TRIPOS>MOLECULE
NuBBE_1408
 20 22 0 0 0
SMALL
GASTEIGER

@<TRIPOS>ATOM
      1 O          -3.9761   -0.9336    0.0002 O.2     1  LIG1       -0.2452
      2 C          -2.7522   -0.9916    0.0005 C.ar    1  LIG1        0.3372
      3 C          -2.0611   -2.2916    0.0014 C.ar    1  LIG1        0.0236
      4 C          -0.7292   -2.3972    0.0014 C.ar    1  LIG1       -0.0443
      5 O          -1.9532    0.1418    0.0001 O.2     1  LIG1       -0.4214
      6 C          -0.5407    0.0567   -0.0000 C.ar    1  LIG1        0.1498
      7 C           0.0921   -1.1954    0.0005 C.ar    1  LIG1        0.0184
      8 C           1.4903   -1.2744    0.0002 C.ar    1  LIG1       -0.0476
      9 C           2.2836   -0.1187   -0.0006 C.ar    1  LIG1       -0.0180
     10 C           1.6122    1.1024   -0.0009 C.ar    1  LIG1        0.1383
     11 C           0.2286    1.2323   -0.0006 C.ar    1  LIG1        0.0630
     12 C          -0.0277    2.6292   -0.0010 C.ar    1  LIG1       -0.0126
     13 C           1.2008    3.2493   -0.0014 C.ar    1  LIG1        0.0932
     14 O           2.2017    2.3297   -0.0014 O.2     1  LIG1       -0.4628
     15 H          -2.7025   -3.1646    0.0021 H       1  LIG1        0.0689
     16 H          -0.2461   -3.3683    0.0021 H       1  LIG1        0.0627
     17 H           1.9864   -2.2433    0.0006 H       1  LIG1        0.0626
     18 H           3.3663   -0.1642   -0.0008 H       1  LIG1        0.0655
     19 H          -0.9913    3.1189   -0.0008 H       1  LIG1        0.0656
     20 H           1.5183    4.2829   -0.0017 H       1  LIG1        0.1030
@<TRIPOS>BOND
     1     1     2    2
     2     2     3   ar
     3     3     4   ar
     4     2     5   ar
     5     5     6   ar
     6     6     7   ar
     7     4     7   ar
     8     7     8   ar
     9     8     9   ar
    10     9    10   ar
    11    10    11   ar
    12     6    11   ar
    13    11    12   ar
    14    12    13   ar
    15    13    14   ar
    16    10    14   ar
    17     3    15    1
    18     4    16    1
    19     8    17    1
    20     9    18    1
    21    12    19    1
    22    13    20    1
