@<TRIPOS>MOLECULE
NuBBE_510
 69 73 0 0 0
SMALL
GASTEIGER

@<TRIPOS>ATOM
      1 O          -2.9967    1.0434    3.0227 O.2     1  LIG1       -0.2505
      2 C          -1.8478    1.0362    2.5935 C.2     1  LIG1        0.3114
      3 C          -0.9271    2.2238    2.7186 C.3     1  LIG1        0.0606
      4 H          -1.5845    3.1028    2.7975 H       1  LIG1        0.0417
      5 C          -0.1287    2.1864    4.0366 C.3     1  LIG1       -0.0146
      6 C           0.7964    1.0116    4.2530 C.ar    1  LIG1       -0.0429
      7 C           2.1183    1.0339    3.7772 C.ar    1  LIG1       -0.0549
      8 C           2.9477   -0.0860    3.9045 C.ar    1  LIG1       -0.0163
      9 C           2.4698   -1.2113    4.5624 C.ar    1  LIG1        0.1582
     10 O           3.2291   -2.3380    4.7149 O.3     1  LIG1       -0.5033
     11 C           1.1845   -1.2185    5.0946 C.ar    1  LIG1        0.1585
     12 O           0.7406   -2.3073    5.7888 O.3     1  LIG1       -0.5033
     13 C           0.3410   -0.1274    4.9342 C.ar    1  LIG1       -0.0133
     14 C          -0.1093    2.4488    1.4555 C.3     1  LIG1       -0.0358
     15 C           0.3944    1.1697    0.8015 C.3     1  LIG1       -0.0051
     16 O          -1.2582   -0.0838    2.1147 O.3     1  LIG1       -0.4503
     17 C          -0.6018   -0.0216    0.8155 C.3     1  LIG1        0.1679
     18 C           0.2752   -1.3198    0.7050 C.3     1  LIG1        0.1418
     19 C           1.1024   -1.5749   -0.5761 C.3     1  LIG1        0.1612
     20 H           2.1735   -1.4980   -0.3279 H       1  LIG1        0.0789
     21 O           0.7894   -0.7392   -1.7113 O.3     1  LIG1       -0.4524
     22 C           1.7878   -0.0369   -2.2831 C.2     1  LIG1        0.3398
     23 C           1.3548    0.5719   -3.5676 C.ar    1  LIG1        0.0659
     24 C           2.3192    0.9640   -4.5115 C.ar    1  LIG1       -0.0060
     25 C           1.9113    1.4829   -5.7391 C.ar    1  LIG1        0.1211
     26 O           2.8092    1.8501   -6.6989 O.3     1  LIG1       -0.5066
     27 C           0.5644    1.6496   -6.0445 C.ar    1  LIG1        0.0213
     28 C          -0.3819    1.3089   -5.0914 C.ar    1  LIG1        0.1211
     29 O          -1.7134    1.4976   -5.3080 O.3     1  LIG1       -0.5066
     30 C          -0.0011    0.7566   -3.8733 C.ar    1  LIG1       -0.0060
     31 O           2.9394    0.0757   -1.8396 O.2     1  LIG1       -0.2449
     32 C           0.7582   -3.0251   -0.9268 C.3     1  LIG1        0.1179
     33 H          -0.0748   -3.0620   -1.6398 H       1  LIG1        0.0654
     34 O           1.8533   -3.7392   -1.4803 O.3     1  LIG1       -0.3857
     35 C           0.3215   -3.5997    0.4022 C.3     1  LIG1        0.0779
     36 O          -0.4450   -2.5474    0.9929 O.3     1  LIG1       -0.3658
     37 C          -1.7599    0.0432   -0.1956 C.ar    1  LIG1        0.0021
     38 C          -2.7304   -0.9842   -0.2394 C.ar    1  LIG1       -0.0095
     39 C          -3.8407   -0.8817   -1.0768 C.ar    1  LIG1        0.1586
     40 O          -4.8047   -1.8514   -1.1259 O.3     1  LIG1       -0.5033
     41 C          -4.0154    0.2393   -1.8761 C.ar    1  LIG1        0.1582
     42 O          -5.1227    0.3618   -2.6635 O.3     1  LIG1       -0.5033
     43 C          -3.0850    1.2593   -1.8615 C.ar    1  LIG1       -0.0161
     44 C          -1.9691    1.1607   -1.0246 C.ar    1  LIG1       -0.0510
     45 H          -0.8378    2.2197    4.8756 H       1  LIG1        0.0321
     46 H           0.4572    3.1108    4.1256 H       1  LIG1        0.0321
     47 H           2.5037    1.9200    3.2762 H       1  LIG1        0.0621
     48 H           3.9497   -0.0573    3.4886 H       1  LIG1        0.0655
     49 H           4.0798   -2.1957    4.2659 H       1  LIG1        0.2923
     50 H           1.5007   -2.9215    5.7960 H       1  LIG1        0.2923
     51 H          -0.6679   -0.1747    5.3382 H       1  LIG1        0.0658
     52 H           0.7371    3.1169    1.6565 H       1  LIG1        0.0275
     53 H          -0.7345    2.9937    0.7400 H       1  LIG1        0.0275
     54 H           1.2996    0.8780    1.3400 H       1  LIG1        0.0308
     55 H           0.7449    1.3950   -0.2101 H       1  LIG1        0.0308
     56 H           0.9950   -1.2792    1.5364 H       1  LIG1        0.0678
     57 H           3.3753    0.8283   -4.2879 H       1  LIG1        0.0662
     58 H           3.6744    2.0039   -6.2785 H       1  LIG1        0.2921
     59 H           0.2775    2.0454   -7.0128 H       1  LIG1        0.0691
     60 H          -1.8466    1.8502   -6.2040 H       1  LIG1        0.2921
     61 H          -0.7721    0.4594   -3.1793 H       1  LIG1        0.0662
     62 H           1.9880   -3.4038   -2.3848 H       1  LIG1        0.2100
     63 H           1.1707   -3.8501    1.0512 H       1  LIG1        0.0587
     64 H          -0.2954   -4.4958    0.2924 H       1  LIG1        0.0587
     65 H          -2.6404   -1.8443    0.4196 H       1  LIG1        0.0659
     66 H          -4.5908   -2.5197   -0.4514 H       1  LIG1        0.2923
     67 H          -5.6674   -0.4177   -2.4366 H       1  LIG1        0.2923
     68 H          -3.2182    2.1283   -2.4988 H       1  LIG1        0.0655
     69 H          -1.2659    1.9853   -1.0616 H       1  LIG1        0.0623
@<TRIPOS>BOND
     1     1     2    2
     2     2     3    1
     3     3     4    1
     4     3     5    1
     5     5     6    1
     6     6     7   ar
     7     7     8   ar
     8     8     9   ar
     9     9    10    1
    10     9    11   ar
    11    11    12    1
    12    11    13   ar
    13     6    13   ar
    14     3    14    1
    15    14    15    1
    16     2    16    1
    17    16    17    1
    18    15    17    1
    19    18    19    1
    20    21    22    1
    21    22    23    1
    22    23    24   ar
    23    24    25   ar
    24    25    26    1
    25    25    27   ar
    26    27    28   ar
    27    28    29    1
    28    28    30   ar
    29    23    30   ar
    30    22    31    2
    31    19    32    1
    32    32    35    1
    33    35    36    1
    34    18    36    1
    35    37    38   ar
    36    38    39   ar
    37    39    40    1
    38    39    41   ar
    39    41    42    1
    40    41    43   ar
    41    43    44   ar
    42    37    44   ar
    43    17    37    1
    44    17    18    1
    45    32    34    1
    46    32    33    1
    47    19    21    1
    48    19    20    1
    49     5    45    1
    50     5    46    1
    51     7    47    1
    52     8    48    1
    53    10    49    1
    54    12    50    1
    55    13    51    1
    56    14    52    1
    57    14    53    1
    58    15    54    1
    59    15    55    1
    60    18    56    1
    61    24    57    1
    62    26    58    1
    63    27    59    1
    64    29    60    1
    65    30    61    1
    66    34    62    1
    67    35    63    1
    68    35    64    1
    69    38    65    1
    70    40    66    1
    71    42    67    1
    72    43    68    1
    73    44    69    1
