@<TRIPOS>MOLECULE
NuBBE_276
 30 31 0 0 0
SMALL
GASTEIGER

@<TRIPOS>ATOM
      1 O          -3.1433   -0.9976    0.0022 O.3     1  LIG1       -0.5056
      2 C          -1.7711   -0.9486   -0.0397 C.ar    1  LIG1        0.1375
      3 C          -1.0634    0.2691   -0.0227 C.ar    1  LIG1        0.1056
      4 C           0.3469    0.2779   -0.0263 C.ar    1  LIG1       -0.0060
      5 C           1.0491    1.6168    0.0245 C.3     1  LIG1        0.0406
      6 C           1.3717    2.0102    1.4700 C.3     1  LIG1       -0.0514
      7 C           0.2084    2.6790   -0.6321 C.2     1  LIG1        0.1092
      8 O          -1.1661    2.6919   -0.3157 O.3     1  LIG1       -0.4267
      9 C          -1.8248    1.5472    0.0196 C.2     1  LIG1        0.3480
     10 O          -3.0188    1.5440    0.3049 O.2     1  LIG1       -0.2444
     11 C           0.6783    3.5956   -1.4875 C.2     1  LIG1       -0.0597
     12 C           1.0308   -0.9587   -0.0374 C.ar    1  LIG1        0.0607
     13 C           2.5147   -1.0198    0.0117 C.2     1  LIG1        0.1540
     14 O           3.1109   -2.0906   -0.0684 O.2     1  LIG1       -0.2956
     15 C           0.3045   -2.1671   -0.0782 C.ar    1  LIG1        0.1337
     16 O           0.9286   -3.3913   -0.0843 O.3     1  LIG1       -0.5057
     17 C          -1.0973   -2.1756   -0.0988 C.ar    1  LIG1        0.0338
     18 C          -1.8608   -3.4741   -0.1031 C.3     1  LIG1       -0.0327
     19 H          -3.5030   -0.0954    0.1534 H       1  LIG1        0.2922
     20 H           1.9849    1.5542   -0.5429 H       1  LIG1        0.0425
     21 H           0.4657    2.1020    2.0808 H       1  LIG1        0.0240
     22 H           1.8969    2.9713    1.5056 H       1  LIG1        0.0240
     23 H           2.0137    1.2645    1.9514 H       1  LIG1        0.0240
     24 H           1.7250    3.6385   -1.7695 H       1  LIG1        0.0568
     25 H           0.0143    4.3358   -1.9255 H       1  LIG1        0.0568
     26 H           3.0799   -0.0852    0.1321 H       1  LIG1        0.1083
     27 H           1.9032   -3.2585   -0.0959 H       1  LIG1        0.2922
     28 H          -1.3152   -4.2603   -0.6350 H       1  LIG1        0.0280
     29 H          -2.8218   -3.3730   -0.6179 H       1  LIG1        0.0280
     30 H          -2.0421   -3.8023    0.9251 H       1  LIG1        0.0280
@<TRIPOS>BOND
     1     1     2    1
     2     2     3   ar
     3     3     4   ar
     4     4     5    1
     5     5     6    1
     6     5     7    1
     7     7     8    1
     8     8     9    1
     9     3     9    1
    10     9    10    2
    11     7    11    2
    12     4    12   ar
    13    12    13    1
    14    13    14    2
    15    12    15   ar
    16    15    16    1
    17    15    17   ar
    18     2    17   ar
    19    17    18    1
    20     1    19    1
    21     5    20    1
    22     6    21    1
    23     6    22    1
    24     6    23    1
    25    11    24    1
    26    11    25    1
    27    13    26    1
    28    16    27    1
    29    18    28    1
    30    18    29    1
    31    18    30    1
