REMARK  Name = NuBBE_1068
REMARK  4 active torsions:
REMARK  status: ('A' for Active; 'I' for Inactive)
REMARK    1  A    between atoms: C_1  and  O_2
REMARK    2  A    between atoms: O_2  and  C_3
REMARK    3  A    between atoms: C_4  and  O_5
REMARK    4  A    between atoms: O_5  and  C_6
REMARK                            x       y       z     vdW  Elec       q    Type
REMARK                         _______ _______ _______ _____ _____    ______ ____
ROOT
ATOM      1  C   LIG A   1      -0.459   0.370   0.886  0.00  0.00    +0.176 A 
ATOM      2  C   LIG A   1      -0.367  -0.986   0.481  0.00  0.00    +0.205 A 
ATOM      3  C   LIG A   1       0.143  -1.216  -0.812  0.00  0.00    +0.183 A 
ATOM      4  O   LIG A   1       0.269  -2.427  -1.437  0.00  0.00    -0.459 OA
ATOM      5  C   LIG A   1       0.800  -2.207  -2.665  0.00  0.00    +0.196 A 
ATOM      6  C   LIG A   1       1.024  -0.866  -2.856  0.00  0.00    +0.053 A 
ATOM      7  C   LIG A   1       0.596  -0.217  -1.667  0.00  0.00    +0.067 A 
ATOM      8  C   LIG A   1       0.545   1.110  -1.221  0.00  0.00    +0.153 A 
ATOM      9  C   LIG A   1       0.013   1.408   0.042  0.00  0.00    +0.064 A 
ATOM     10  C   LIG A   1      -0.029   2.821   0.433  0.00  0.00    +0.022 A 
ATOM     11  C   LIG A   1       0.451   3.771  -0.371  0.00  0.00    +0.093 A 
ATOM     12  C   LIG A   1       1.035   3.468  -1.685  0.00  0.00    +0.337 A 
ATOM     13  O   LIG A   1       1.493   4.356  -2.395  0.00  0.00    -0.245 OA
ATOM     14  O   LIG A   1       1.033   2.135  -2.065  0.00  0.00    -0.421 OA
ENDROOT
BRANCH   1  16
ATOM     15  C   LIG A   1      -1.605  -0.057   2.981  0.00  0.00    +0.277 C 
ATOM     16  O   LIG A   1      -0.955   0.831   2.087  0.00  0.00    -0.491 OA
ENDBRANCH   1  16
BRANCH   2  17
ATOM     17  O   LIG A   1      -0.836  -1.979   1.315  0.00  0.00    -0.488 OA
ATOM     18  C   LIG A   1      -0.161  -3.231   1.228  0.00  0.00    +0.277 C 
ENDBRANCH   2  17
TORSDOF 2
