@<TRIPOS>MOLECULE
NuBBE_319
 79 83 0 0 0
SMALL
GASTEIGER

@<TRIPOS>ATOM
      1 C          -5.8631   -3.3013    4.8934 C.3     1  LIG1        0.0788
      2 O          -5.9590   -2.2571    3.9173 O.3     1  LIG1       -0.4951
      3 C          -4.7850   -1.7627    3.4332 C.ar    1  LIG1        0.1201
      4 C          -4.7059   -0.4669    2.9180 C.ar    1  LIG1       -0.0193
      5 C          -3.5686    0.0116    2.2077 C.ar    1  LIG1       -0.0475
      6 C          -2.5639   -0.8561    1.8514 C.ar    1  LIG1        0.0213
      7 C          -1.4287   -0.5691    0.9484 C.ar    1  LIG1        0.1809
      8 O          -0.6673    0.5091    1.4166 O.2     1  LIG1       -0.4507
      9 C           0.3740    0.9841    0.6365 C.ar    1  LIG1        0.1466
     10 C           1.0276    2.0935    1.1727 C.ar    1  LIG1        0.0241
     11 C           1.7027    2.8761    0.2737 C.ar    1  LIG1        0.1386
     12 C           1.8352    2.3984   -1.0166 C.ar    1  LIG1        0.0236
     13 C           1.4401    1.2102   -1.5705 C.ar    1  LIG1        0.1419
     14 O           1.8378    0.7764   -2.8076 O.3     1  LIG1       -0.4599
     15 C           2.4955    1.4920   -3.9545 C.3     1  LIG1        0.2307
     16 H           2.8260    0.6611   -4.5896 H       1  LIG1        0.1084
     17 C           1.4618    2.2475   -4.8043 C.3     1  LIG1        0.1454
     18 H           0.6202    1.5887   -5.0456 H       1  LIG1        0.0683
     19 C           0.9987    3.4195   -3.9892 C.3     1  LIG1        0.1151
     20 H           0.3937    3.0325   -3.1613 H       1  LIG1        0.0648
     21 C           2.1989    4.3143   -3.4733 C.3     1  LIG1        0.1096
     22 H           2.4123    5.1312   -4.1634 H       1  LIG1        0.0646
     23 C           3.6325    3.4925   -3.1414 C.3     1  LIG1        0.0883
     24 H           3.7186    3.0651   -2.1520 H       1  LIG1        0.0621
     25 O           3.7260    2.2601   -3.8586 O.3     1  LIG1       -0.3339
     26 C           4.9837    4.2889   -3.0563 C.3     1  LIG1       -0.0360
     27 O           1.5745    4.9350   -2.3122 O.3     1  LIG1       -0.3866
     28 O           0.0494    4.1827   -4.7676 O.3     1  LIG1       -0.3864
     29 O           1.9466    2.7731   -6.0500 O.3     1  LIG1       -0.3829
     30 O           2.0563    4.2022    0.5653 O.3     1  LIG1       -0.4258
     31 C           3.2122    4.7175    0.0037 C.2     1  LIG1        0.3092
     32 C           3.0566    6.2423   -0.1822 C.3     1  LIG1        0.0336
     33 O           4.1602    4.1188   -0.2364 O.2     1  LIG1       -0.2507
     34 C           0.5598    0.5548   -0.7106 C.ar    1  LIG1        0.1095
     35 C          -0.6631   -0.1220   -1.1586 C.ar    1  LIG1        0.2382
     36 O          -1.4055    0.5231   -1.9067 O.2     1  LIG1       -0.2830
     37 C          -1.0989   -1.2416   -0.1957 C.ar    1  LIG1        0.2138
     38 O          -1.5017   -2.4996   -0.6452 O.3     1  LIG1       -0.4532
     39 C          -1.0463   -3.8918   -0.2054 C.3     1  LIG1        0.2311
     40 H          -1.1746   -4.4151   -1.1569 H       1  LIG1        0.1084
     41 C           0.4205   -4.2957    0.2534 C.3     1  LIG1        0.1454
     42 H           1.1744   -4.0282   -0.4872 H       1  LIG1        0.0683
     43 C           0.6714   -3.6495    1.5860 C.3     1  LIG1        0.1151
     44 H           0.6567   -2.5733    1.3896 H       1  LIG1        0.0648
     45 C          -0.3679   -4.1247    2.5973 C.3     1  LIG1        0.1096
     46 H           0.0094   -4.6660    3.4707 H       1  LIG1        0.0646
     47 C          -1.6269   -4.8881    2.0012 C.3     1  LIG1        0.0883
     48 H          -2.4533   -4.4399    2.4982 H       1  LIG1        0.0621
     49 O          -1.9917   -4.6456    0.6210 O.3     1  LIG1       -0.3339
     50 C          -2.0153   -6.2887    2.5249 C.3     1  LIG1       -0.0360
     51 O          -0.6239   -2.8410    3.1831 O.3     1  LIG1       -0.3866
     52 O           1.9540   -3.8496    2.1883 O.3     1  LIG1       -0.3864
     53 O           0.5441   -5.7303    0.4855 O.3     1  LIG1       -0.3829
     54 C          -2.8565   -2.1416    2.1771 C.ar    1  LIG1       -0.0475
     55 C          -3.7862   -2.6060    3.0968 C.ar    1  LIG1       -0.0193
     56 H          -6.6620   -4.0298    4.7169 H       1  LIG1        0.0660
     57 H          -6.0107   -2.8299    5.8641 H       1  LIG1        0.0660
     58 H          -4.9261   -3.8701    4.9398 H       1  LIG1        0.0660
     59 H          -5.6037    0.1362    2.9130 H       1  LIG1        0.0654
     60 H          -3.5918    0.9865    1.7332 H       1  LIG1        0.0626
     61 H           0.8664    2.4364    2.1780 H       1  LIG1        0.0691
     62 H           2.1369    3.1418   -1.6722 H       1  LIG1        0.0691
     63 H           5.0547    4.9601   -2.1861 H       1  LIG1        0.0255
     64 H           5.2024    4.9054   -3.9243 H       1  LIG1        0.0255
     65 H           5.8384    3.5998   -2.9208 H       1  LIG1        0.0255
     66 H           1.5712    5.9015   -2.3838 H       1  LIG1        0.2100
     67 H          -0.8248    3.7690   -4.6026 H       1  LIG1        0.2100
     68 H           1.3013    3.4761   -6.2856 H       1  LIG1        0.2102
     69 H           3.3269    6.7214    0.7473 H       1  LIG1        0.0342
     70 H           2.0423    6.5212   -0.4691 H       1  LIG1        0.0342
     71 H           3.7199    6.5696   -0.9873 H       1  LIG1        0.0342
     72 H          -2.3355   -6.2169    3.5796 H       1  LIG1        0.0255
     73 H          -1.2145   -7.0238    2.4767 H       1  LIG1        0.0255
     74 H          -2.8919   -6.6840    1.9887 H       1  LIG1        0.0255
     75 H          -1.4394   -2.9117    3.6922 H       1  LIG1        0.2100
     76 H           1.9747   -3.1678    2.8999 H       1  LIG1        0.2100
     77 H           1.0853   -5.8510    1.2964 H       1  LIG1        0.2102
     78 H          -2.3368   -2.8307    1.5727 H       1  LIG1        0.0626
     79 H          -3.8611   -3.6600    3.3214 H       1  LIG1        0.0654
@<TRIPOS>BOND
     1     1     2    1
     2     2     3    1
     3     3     4   ar
     4     4     5   ar
     5     5     6   ar
     6     6     7    1
     7     7     8   ar
     8     8     9   ar
     9     9    10   ar
    10    10    11   ar
    11    11    12   ar
    12    12    13   ar
    13    13    14    1
    14    14    15    1
    15    15    16    1
    16    15    17    1
    17    17    19    1
    18    19    20    1
    19    19    21    1
    20    21    23    1
    21    23    24    1
    22    23    25    1
    23    15    25    1
    24    23    26    1
    25    19    28    1
    26    11    30    1
    27    30    31    1
    28    31    32    1
    29    31    33    2
    30     9    34   ar
    31    13    34   ar
    32    34    35   ar
    33    35    36    2
    34     7    37   ar
    35    35    37   ar
    36    37    38    1
    37    38    39    1
    38    39    40    1
    39    39    41    1
    40    41    43    1
    41    43    44    1
    42    43    45    1
    43    45    47    1
    44    47    48    1
    45    47    49    1
    46    39    49    1
    47    47    50    1
    48    43    52    1
    49     6    54   ar
    50    54    55   ar
    51     3    55   ar
    52    17    29    1
    53    17    18    1
    54    21    27    1
    55    21    22    1
    56    41    53    1
    57    41    42    1
    58    45    51    1
    59    45    46    1
    60     1    56    1
    61     1    57    1
    62     1    58    1
    63     4    59    1
    64     5    60    1
    65    10    61    1
    66    12    62    1
    67    26    63    1
    68    26    64    1
    69    26    65    1
    70    27    66    1
    71    28    67    1
    72    29    68    1
    73    32    69    1
    74    32    70    1
    75    32    71    1
    76    50    72    1
    77    50    73    1
    78    50    74    1
    79    51    75    1
    80    52    76    1
    81    53    77    1
    82    54    78    1
    83    55    79    1
