REMARK  Name = NuBBE_1285
REMARK  6 active torsions:
REMARK  status: ('A' for Active; 'I' for Inactive)
REMARK    1  A    between atoms: C_5  and  O_6
REMARK    2  A    between atoms: O_6  and  C_7
REMARK    3  A    between atoms: C_11  and  C_13
REMARK    4  A    between atoms: C_13  and  C_14
REMARK    5  A    between atoms: C_13  and  O_15
REMARK    6  A    between atoms: C_13  and  C_16
REMARK                            x       y       z     vdW  Elec       q    Type
REMARK                         _______ _______ _______ _____ _____    ______ ____
ROOT
ATOM      1  O   LIG A   1      -6.231   1.006  -0.118  0.00  0.00    -0.245 OA
ATOM      2  C   LIG A   1      -5.032   1.219  -0.196  0.00  0.00    +0.337 A 
ATOM      3  O   LIG A   1      -4.080   0.212  -0.115  0.00  0.00    -0.418 OA
ATOM      4  C   LIG A   1      -2.691   0.475  -0.225  0.00  0.00    +0.184 A 
ATOM      5  C   LIG A   1      -1.802  -0.606  -0.103  0.00  0.00    +0.205 A 
ATOM      6  C   LIG A   1      -0.452  -0.316  -0.245  0.00  0.00    +0.170 A 
ATOM      7  C   LIG A   1      -0.004   0.982  -0.470  0.00  0.00    +0.002 A 
ATOM      8  C   LIG A   1       1.477   1.003  -0.531  0.00  0.00    +0.086 C 
ATOM      9  C   LIG A   1       1.747  -0.503  -0.675  0.00  0.00    +0.209 C 
ATOM     10  O   LIG A   1       0.581  -1.217  -0.167  0.00  0.00    -0.482 OA
ATOM     11  C   LIG A   1      -0.882   2.053  -0.542  0.00  0.00    +0.019 A 
ATOM     12  C   LIG A   1      -2.248   1.795  -0.424  0.00  0.00    +0.022 A 
ATOM     13  C   LIG A   1      -3.224   2.871  -0.483  0.00  0.00    +0.019 A 
ATOM     14  C   LIG A   1      -4.525   2.593  -0.374  0.00  0.00    +0.092 A 
ENDROOT
BRANCH   9  15
ATOM     15  C   LIG A   1       3.016  -1.014   0.053  0.00  0.00    +0.097 C 
ATOM     16  C   LIG A   1       2.965  -0.791   1.568  0.00  0.00    +0.045 C 
ATOM     17  C   LIG A   1       4.283  -0.386  -0.531  0.00  0.00    +0.045 C 
BRANCH  15  18
ATOM     18  O   LIG A   1       3.135  -2.431  -0.156  0.00  0.00    -0.386 OA
ATOM     19  H   LIG A   1       2.366  -2.848   0.274  0.00  0.00    +0.210 HD
ENDBRANCH  15  18
ENDBRANCH   9  15
BRANCH   5  20
ATOM     20  O   LIG A   1      -2.349  -1.841   0.101  0.00  0.00    -0.488 OA
ATOM     21  C   LIG A   1      -1.552  -2.761   0.837  0.00  0.00    +0.277 C 
ENDBRANCH   5  20
TORSDOF 3
