REMARK  Name = NuBBE_2194
REMARK  6 active torsions:
REMARK  status: ('A' for Active; 'I' for Inactive)
REMARK    1  A    between atoms: C_1  and  C_2
REMARK    2  A    between atoms: C_9  and  O_11
REMARK    3  A    between atoms: C_12  and  C_13
REMARK    4  A    between atoms: C_12  and  C_15
REMARK    5  A    between atoms: C_19  and  C_20
REMARK    6  A    between atoms: C_19  and  C_21
REMARK                            x       y       z     vdW  Elec       q    Type
REMARK                         _______ _______ _______ _____ _____    ______ ____
ROOT
ATOM      1  C   LIG A   1      -2.076  -0.510   1.345  0.00  0.00    +0.016 C 
ATOM      2  C   LIG A   1      -0.668   0.083   1.069  0.00  0.00    -0.007 C 
ATOM      3  C   LIG A   1      -0.660   1.585   0.604  0.00  0.00    +0.012 C 
ATOM      4  C   LIG A   1      -1.617   1.779  -0.575  0.00  0.00    +0.084 C 
ATOM      5  C   LIG A   1      -1.243   0.844  -1.708  0.00  0.00    +0.160 C 
ATOM      6  C   LIG A   1      -0.407  -0.372  -1.413  0.00  0.00    -0.004 C 
ATOM      7  C   LIG A   1      -0.141  -0.736  -0.136  0.00  0.00    -0.054 C 
ATOM      8  C   LIG A   1       0.604  -2.030   0.148  0.00  0.00    +0.064 C 
ATOM      9  C   LIG A   1       0.733  -2.985  -1.055  0.00  0.00    +0.129 C 
ATOM     10  C   LIG A   1       1.103  -2.244  -2.367  0.00  0.00    +0.016 C 
ATOM     11  C   LIG A   1       1.061  -3.236  -3.554  0.00  0.00    +0.018 C 
ATOM     12  C   LIG A   1       0.033  -1.149  -2.634  0.00  0.00    +0.051 C 
ATOM     13  O   LIG A   1      -1.639   1.063  -2.853  0.00  0.00    -0.292 OA
ATOM     14  C   LIG A   1      -0.738   2.649   1.747  0.00  0.00    -0.031 C 
ATOM     15  C   LIG A   1      -0.617   4.080   1.167  0.00  0.00    +0.011 C 
ATOM     16  C   LIG A   1      -2.060   2.610   2.536  0.00  0.00    +0.011 C 
ATOM     17  C   LIG A   1       0.458   2.436   2.727  0.00  0.00    +0.007 C 
ATOM     18  C   LIG A   1       1.155   1.080   2.593  0.00  0.00    +0.001 C 
ATOM     19  C   LIG A   1       0.154  -0.048   2.387  0.00  0.00    +0.011 C 
ENDROOT
BRANCH   9  20
ATOM     20  O   LIG A   1      -0.504  -3.695  -1.219  0.00  0.00    -0.391 OA
ATOM     21  H   LIG A   1      -0.675  -4.187  -0.398  0.00  0.00    +0.210 HD
ENDBRANCH   9  20
BRANCH  10  22
ATOM     22  C   LIG A   1       2.486  -1.588  -2.226  0.00  0.00    -0.025 C 
ATOM     23  C   LIG A   1       3.629  -1.942  -2.831  0.00  0.00    +0.004 C 
ENDBRANCH  10  22
TORSDOF 2
