@<TRIPOS>MOLECULE
NuBBE_1153
 45 45 0 0 0
SMALL
GASTEIGER

@<TRIPOS>ATOM
      1 O          -0.8996   -0.8091    6.6708 O.2     1  LIG1       -0.2509
      2 C          -1.9413   -0.2276    6.3861 C.2     1  LIG1        0.3068
      3 O          -2.7844    0.3554    7.2778 O.3     1  LIG1       -0.4679
      4 C          -2.3645    0.3602    8.6474 C.3     1  LIG1        0.0817
      5 C          -2.4794   -0.0808    4.9829 C.3     1  LIG1        0.0449
      6 C          -1.3443   -0.0118    3.9564 C.3     1  LIG1       -0.0430
      7 C          -1.8758    0.1291    2.5276 C.3     1  LIG1       -0.0526
      8 C          -0.7480    0.1954    1.4917 C.3     1  LIG1       -0.0530
      9 C          -1.3063    0.3603    0.0727 C.3     1  LIG1       -0.0531
     10 C          -0.1875    0.4044   -0.9719 C.3     1  LIG1       -0.0530
     11 C          -0.7438    0.5611   -2.3917 C.3     1  LIG1       -0.0528
     12 C           0.3421    0.6316   -3.4756 C.3     1  LIG1       -0.0491
     13 C           1.2127   -0.6277   -3.5412 C.3     1  LIG1       -0.0277
     14 C           2.2604   -0.5627   -4.6258 C.ar    1  LIG1       -0.0474
     15 C           3.5296   -0.0305   -4.3572 C.ar    1  LIG1       -0.0586
     16 C           4.5045    0.0173   -5.3557 C.ar    1  LIG1       -0.0615
     17 C           4.2202   -0.4644   -6.6318 C.ar    1  LIG1       -0.0617
     18 C           2.9613   -0.9938   -6.9099 C.ar    1  LIG1       -0.0615
     19 C           1.9841   -1.0396   -5.9134 C.ar    1  LIG1       -0.0586
     20 H          -3.0701   -0.2324    9.2361 H       1  LIG1        0.0661
     21 H          -2.3941    1.3937    9.0043 H       1  LIG1        0.0661
     22 H          -1.3532   -0.0277    8.8021 H       1  LIG1        0.0661
     23 H          -3.0691    0.8421    4.9260 H       1  LIG1        0.0377
     24 H          -3.1438   -0.9283    4.7809 H       1  LIG1        0.0377
     25 H          -0.7225   -0.9124    4.0303 H       1  LIG1        0.0270
     26 H          -0.6944    0.8388    4.1982 H       1  LIG1        0.0270
     27 H          -2.4919    1.0333    2.4548 H       1  LIG1        0.0265
     28 H          -2.5236   -0.7248    2.2960 H       1  LIG1        0.0265
     29 H          -0.1481   -0.7216    1.5451 H       1  LIG1        0.0265
     30 H          -0.0785    1.0333    1.7211 H       1  LIG1        0.0265
     31 H          -1.8990    1.2809    0.0154 H       1  LIG1        0.0265
     32 H          -1.9815   -0.4743   -0.1534 H       1  LIG1        0.0265
     33 H           0.3922   -0.5213   -0.8959 H       1  LIG1        0.0265
     34 H           0.4928    1.2355   -0.7513 H       1  LIG1        0.0265
     35 H          -1.3423    1.4798   -2.4428 H       1  LIG1        0.0265
     36 H          -1.4250   -0.2693   -2.6141 H       1  LIG1        0.0265
     37 H           0.9700    1.5148   -3.3052 H       1  LIG1        0.0268
     38 H          -0.1502    0.7868   -4.4451 H       1  LIG1        0.0268
     39 H           0.5810   -1.5113   -3.6973 H       1  LIG1        0.0313
     40 H           1.7257   -0.7892   -2.5868 H       1  LIG1        0.0313
     41 H           3.7703    0.3420   -3.3640 H       1  LIG1        0.0620
     42 H           5.4870    0.4270   -5.1365 H       1  LIG1        0.0618
     43 H           4.9796   -0.4289   -7.4084 H       1  LIG1        0.0618
     44 H           2.7407   -1.3749   -7.9034 H       1  LIG1        0.0618
     45 H           1.0080   -1.4587   -6.1454 H       1  LIG1        0.0620
@<TRIPOS>BOND
     1     1     2    2
     2     2     3    1
     3     3     4    1
     4     2     5    1
     5     5     6    1
     6     6     7    1
     7     7     8    1
     8     8     9    1
     9     9    10    1
    10    10    11    1
    11    11    12    1
    12    12    13    1
    13    13    14    1
    14    14    15   ar
    15    15    16   ar
    16    16    17   ar
    17    17    18   ar
    18    18    19   ar
    19    14    19   ar
    20     4    20    1
    21     4    21    1
    22     4    22    1
    23     5    23    1
    24     5    24    1
    25     6    25    1
    26     6    26    1
    27     7    27    1
    28     7    28    1
    29     8    29    1
    30     8    30    1
    31     9    31    1
    32     9    32    1
    33    10    33    1
    34    10    34    1
    35    11    35    1
    36    11    36    1
    37    12    37    1
    38    12    38    1
    39    13    39    1
    40    13    40    1
    41    15    41    1
    42    16    42    1
    43    17    43    1
    44    18    44    1
    45    19    45    1
