@<TRIPOS>MOLECULE
NuBBE_268
 72 75 0 0 0
SMALL
GASTEIGER

@<TRIPOS>ATOM
      1 O          -2.1937   -2.6970    0.9565 O.2     1  LIG1       -0.2714
      2 C          -1.0127   -2.5376    0.6983 C.2     1  LIG1        0.2583
      3 N          -0.1371   -3.5643    0.4025 N.am    1  LIG1       -0.3084
      4 C           1.2311   -3.1443    0.2518 C.3     1  LIG1        0.0347
      5 C           1.7381   -3.2162   -1.2062 C.3     1  LIG1       -0.0088
      6 C           3.2014   -2.8489   -1.3363 C.ar    1  LIG1       -0.0456
      7 C           4.2011   -3.8168   -1.1812 C.ar    1  LIG1       -0.0585
      8 C           5.5492   -3.4524   -1.2236 C.ar    1  LIG1       -0.0615
      9 C           5.9109   -2.1181   -1.4039 C.ar    1  LIG1       -0.0617
     10 C           4.9265   -1.1498   -1.5764 C.ar    1  LIG1       -0.0615
     11 C           3.5815   -1.5170   -1.5660 C.ar    1  LIG1       -0.0585
     12 H           1.8162   -3.8581    0.8337 H       1  LIG1        0.0506
     13 C           1.2334   -1.7256    0.8654 C.3     1  LIG1        0.0334
     14 H           1.9234   -1.0739    0.3257 H       1  LIG1        0.0368
     15 C          -0.2346   -1.2037    0.6519 C.3     1  LIG1        0.2024
     16 O          -0.2623   -0.4277   -0.5751 O.3     1  LIG1       -0.4444
     17 C          -0.7195   -0.2775    1.8152 C.3     1  LIG1        0.0559
     18 C          -1.8535    0.6629    1.4310 C.2     1  LIG1       -0.0779
     19 C          -3.0797    0.7010    1.9725 C.2     1  LIG1       -0.0872
     20 C          -4.1852    1.6944    1.6830 C.3     1  LIG1       -0.0322
     21 C          -3.9487    2.9217    0.7581 C.3     1  LIG1       -0.0405
     22 C          -2.8591    3.8549    1.2988 C.3     1  LIG1       -0.0621
     23 H          -4.8792    3.5069    0.7969 H       1  LIG1        0.0301
     24 C          -3.7747    2.4963   -0.7173 C.3     1  LIG1       -0.0501
     25 C          -3.2515    3.5856   -1.6644 C.3     1  LIG1       -0.0502
     26 C          -3.0109    3.0567   -3.0910 C.3     1  LIG1       -0.0232
     27 C          -1.5883    2.5331   -3.3798 C.3     1  LIG1        0.0739
     28 H          -1.5597    2.1440   -4.4050 H       1  LIG1        0.0638
     29 O          -0.6501    3.6008   -3.3171 O.3     1  LIG1       -0.3878
     30 C          -1.1067    1.4896   -2.4203 C.2     1  LIG1       -0.0492
     31 C          -1.2072    0.1711   -2.6498 C.2     1  LIG1        0.0210
     32 C          -0.9086   -0.8955   -1.6712 C.2     1  LIG1        0.3327
     33 O          -1.2389   -2.0443   -1.8975 O.2     1  LIG1       -0.2456
     34 C           0.4447    0.5899    2.3564 C.3     1  LIG1        0.0866
     35 O           0.8983    1.5412    1.3864 O.3     1  LIG1       -0.3868
     36 H           0.0795    1.1686    3.2154 H       1  LIG1        0.0648
     37 C           1.6492   -0.2176    2.7914 C.2     1  LIG1       -0.0446
     38 C           1.6615   -1.6832    2.3602 C.3     1  LIG1       -0.0119
     39 C           3.0110   -2.3775    2.6148 C.3     1  LIG1       -0.0582
     40 H           0.9157   -2.2157    2.9661 H       1  LIG1        0.0348
     41 C           2.6304    0.4017    3.4756 C.2     1  LIG1       -0.0967
     42 H          -0.4774   -4.5162    0.3324 H       1  LIG1        0.1491
     43 H           1.5913   -4.2353   -1.5892 H       1  LIG1        0.0331
     44 H           1.1574   -2.5771   -1.8742 H       1  LIG1        0.0331
     45 H           3.9401   -4.8613   -1.0271 H       1  LIG1        0.0620
     46 H           6.3207   -4.2095   -1.1088 H       1  LIG1        0.0618
     47 H           6.9596   -1.8331   -1.4151 H       1  LIG1        0.0618
     48 H           5.2034   -0.1076   -1.7145 H       1  LIG1        0.0618
     49 H           2.8289   -0.7447   -1.7127 H       1  LIG1        0.0620
     50 H          -1.0636   -0.9075    2.6486 H       1  LIG1        0.0416
     51 H          -1.5773    1.4030    0.6888 H       1  LIG1        0.0574
     52 H          -3.3356   -0.0466    2.7235 H       1  LIG1        0.0569
     53 H          -4.5152    2.0815    2.6570 H       1  LIG1        0.0310
     54 H          -5.0366    1.1260    1.2864 H       1  LIG1        0.0310
     55 H          -1.8487    3.4885    1.1038 H       1  LIG1        0.0233
     56 H          -2.9661    3.9972    2.3795 H       1  LIG1        0.0233
     57 H          -2.9395    4.8457    0.8382 H       1  LIG1        0.0233
     58 H          -4.7527    2.1570   -1.0857 H       1  LIG1        0.0268
     59 H          -3.1353    1.6171   -0.7819 H       1  LIG1        0.0268
     60 H          -2.3300    4.0378   -1.2849 H       1  LIG1        0.0266
     61 H          -4.0034    4.3833   -1.7087 H       1  LIG1        0.0266
     62 H          -3.7470    2.2788   -3.3291 H       1  LIG1        0.0293
     63 H          -3.2001    3.8903   -3.7801 H       1  LIG1        0.0293
     64 H          -0.9301    4.2702   -3.9638 H       1  LIG1        0.2102
     65 H          -0.7140    1.8596   -1.4784 H       1  LIG1        0.0600
     66 H          -1.6307   -0.2018   -3.5776 H       1  LIG1        0.0686
     67 H           1.0863    1.0701    0.5580 H       1  LIG1        0.2102
     68 H           2.9640   -3.4531    2.4282 H       1  LIG1        0.0236
     69 H           3.3146   -2.2839    3.6633 H       1  LIG1        0.0236
     70 H           3.8027   -1.9579    1.9848 H       1  LIG1        0.0236
     71 H           2.5544    1.4614    3.7113 H       1  LIG1        0.0535
     72 H           3.5390   -0.0894    3.8026 H       1  LIG1        0.0535
@<TRIPOS>BOND
     1     1     2    2
     2     2     3   am
     3     3     4    1
     4     5     6    1
     5     6     7   ar
     6     7     8   ar
     7     8     9   ar
     8     9    10   ar
     9    10    11   ar
    10     6    11   ar
    11     4    13    1
    12    13    14    1
    13    13    15    1
    14    15    16    1
    15     2    15    1
    16    15    17    1
    17    17    18    1
    18    18    19    2
    19    19    20    1
    20    20    21    1
    21    21    24    1
    22    24    25    1
    23    25    26    1
    24    26    27    1
    25    27    28    1
    26    27    29    1
    27    27    30    1
    28    30    31    2
    29    31    32    1
    30    16    32    1
    31    32    33    2
    32    17    34    1
    33    34    37    1
    34    37    38    1
    35    38    39    1
    36    13    38    1
    37    38    40    1
    38    37    41    2
    39     4    12    1
    40     4     5    1
    41    21    23    1
    42    21    22    1
    43    34    36    1
    44    34    35    1
    45     3    42    1
    46     5    43    1
    47     5    44    1
    48     7    45    1
    49     8    46    1
    50     9    47    1
    51    10    48    1
    52    11    49    1
    53    17    50    1
    54    18    51    1
    55    19    52    1
    56    20    53    1
    57    20    54    1
    58    22    55    1
    59    22    56    1
    60    22    57    1
    61    24    58    1
    62    24    59    1
    63    25    60    1
    64    25    61    1
    65    26    62    1
    66    26    63    1
    67    29    64    1
    68    30    65    1
    69    31    66    1
    70    35    67    1
    71    39    68    1
    72    39    69    1
    73    39    70    1
    74    41    71    1
    75    41    72    1
