@<TRIPOS>MOLECULE
NuBBE_2187
 54 56 0 0 0
SMALL
GASTEIGER

@<TRIPOS>ATOM
      1 C          -0.1095    3.3896   -0.1431 C.3     1  LIG1       -0.0595
      2 C           1.3174    2.8182   -0.2783 C.3     1  LIG1       -0.0295
      3 C           2.0391    3.1148    1.0648 C.3     1  LIG1       -0.0595
      4 C           1.3392    1.2537   -0.5948 C.3     1  LIG1       -0.0072
      5 H           2.3349    0.9086   -0.2743 H       1  LIG1        0.0334
      6 C           0.3292    0.4342    0.2853 C.3     1  LIG1       -0.0462
      7 C           0.3834   -1.1045    0.1072 C.3     1  LIG1       -0.0400
      8 C          -0.6214   -1.9098    0.9556 C.3     1  LIG1        0.0332
      9 C          -0.6168   -3.4030    0.5737 C.3     1  LIG1       -0.0338
     10 C          -2.0975   -1.5279    0.7066 C.3     1  LIG1       -0.0193
     11 C          -2.8497   -2.8106    0.9992 C.2     1  LIG1       -0.0726
     12 C          -1.8640   -3.9145    1.3028 C.3     1  LIG1       -0.0188
     13 H          -2.1812   -4.8890    0.9178 H       1  LIG1        0.0346
     14 C          -1.5760   -3.9843    2.8108 C.3     1  LIG1       -0.0398
     15 C          -1.1623   -2.6340    3.4021 C.3     1  LIG1        0.0069
     16 C          -0.2623   -1.8597    2.4545 C.2     1  LIG1        0.1398
     17 O           0.6879   -1.2216    2.8905 O.2     1  LIG1       -0.2968
     18 C          -4.1797   -2.9553    0.9660 C.2     1  LIG1       -0.0992
     19 C           1.2414    0.8893   -2.1221 C.3     1  LIG1        0.0666
     20 C          -0.1938    0.7978   -2.6651 C.3     1  LIG1       -0.0358
     21 O           1.8223   -0.4136   -2.3219 O.3     1  LIG1       -0.3886
     22 C           2.0647    1.8276   -3.0136 C.3     1  LIG1       -0.0240
     23 C           1.7360    3.2853   -2.7754 C.3     1  LIG1       -0.0500
     24 C           2.0915    3.6404   -1.3448 C.3     1  LIG1       -0.0474
     25 H          -0.6184    2.9967    0.7440 H       1  LIG1        0.0235
     26 H          -0.7307    3.1709   -1.0117 H       1  LIG1        0.0235
     27 H          -0.0871    4.4805   -0.0295 H       1  LIG1        0.0235
     28 H           1.4766    2.7534    1.9302 H       1  LIG1        0.0235
     29 H           2.1792    4.1965    1.1986 H       1  LIG1        0.0235
     30 H           3.0363    2.6610    1.0912 H       1  LIG1        0.0235
     31 H          -0.6911    0.7735    0.0785 H       1  LIG1        0.0269
     32 H           0.5237    0.6754    1.3351 H       1  LIG1        0.0269
     33 H           1.4038   -1.4520    0.3092 H       1  LIG1        0.0275
     34 H           0.1751   -1.3666   -0.9332 H       1  LIG1        0.0275
     35 H           0.2927   -3.9249    0.8922 H       1  LIG1        0.0280
     36 H          -0.7237   -3.5418   -0.5110 H       1  LIG1        0.0280
     37 H          -2.2632   -1.2512   -0.3417 H       1  LIG1        0.0319
     38 H          -2.4305   -0.7124    1.3559 H       1  LIG1        0.0319
     39 H          -0.7692   -4.7087    2.9805 H       1  LIG1        0.0275
     40 H          -2.4531   -4.3594    3.3514 H       1  LIG1        0.0275
     41 H          -0.6343   -2.7901    4.3472 H       1  LIG1        0.0342
     42 H          -2.0408   -2.0132    3.6110 H       1  LIG1        0.0342
     43 H          -4.8353   -2.1238    0.7264 H       1  LIG1        0.0534
     44 H          -4.6491   -3.9117    1.1807 H       1  LIG1        0.0534
     45 H          -0.7769    0.0065   -2.1877 H       1  LIG1        0.0257
     46 H          -0.1807    0.5316   -3.7286 H       1  LIG1        0.0257
     47 H          -0.7491    1.7295   -2.5598 H       1  LIG1        0.0257
     48 H           2.7294   -0.3941   -1.9686 H       1  LIG1        0.2102
     49 H           1.9090    1.5764   -4.0704 H       1  LIG1        0.0293
     50 H           3.1368    1.6603   -2.8391 H       1  LIG1        0.0293
     51 H           0.6819    3.4965   -2.9825 H       1  LIG1        0.0266
     52 H           2.3215    3.9060   -3.4628 H       1  LIG1        0.0266
     53 H           1.9224    4.7151   -1.1966 H       1  LIG1        0.0271
     54 H           3.1717    3.4879   -1.2123 H       1  LIG1        0.0271
@<TRIPOS>BOND
     1     1     2    1
     2     2     3    1
     3     2     4    1
     4     4     5    1
     5     4     6    1
     6     6     7    1
     7     7     8    1
     8     8     9    1
     9     8    10    1
    10    10    11    1
    11    11    12    1
    12    12    13    1
    13     9    12    1
    14    12    14    1
    15    14    15    1
    16    15    16    1
    17     8    16    1
    18    16    17    2
    19    11    18    2
    20     4    19    1
    21    19    20    1
    22    19    21    1
    23    19    22    1
    24    22    23    1
    25    23    24    1
    26     2    24    1
    27     1    25    1
    28     1    26    1
    29     1    27    1
    30     3    28    1
    31     3    29    1
    32     3    30    1
    33     6    31    1
    34     6    32    1
    35     7    33    1
    36     7    34    1
    37     9    35    1
    38     9    36    1
    39    10    37    1
    40    10    38    1
    41    14    39    1
    42    14    40    1
    43    15    41    1
    44    15    42    1
    45    18    43    1
    46    18    44    1
    47    20    45    1
    48    20    46    1
    49    20    47    1
    50    21    48    1
    51    22    49    1
    52    22    50    1
    53    23    51    1
    54    23    52    1
    55    24    53    1
    56    24    54    1
