REMARK  Name = NuBBE_1013
REMARK  3 active torsions:
REMARK  status: ('A' for Active; 'I' for Inactive)
REMARK    1  A    between atoms: C_1  and  C_2
REMARK    2  A    between atoms: C_6  and  C_13
REMARK    3  A    between atoms: C_8  and  O_12
REMARK                            x       y       z     vdW  Elec       q    Type
REMARK                         _______ _______ _______ _____ _____    ______ ____
ROOT
ATOM      1  C   LIG A   1      -3.967  -0.134  -0.006  0.00  0.00    +0.086 C 
ATOM      2  C   LIG A   1      -2.482  -0.323  -0.003  0.00  0.00    +0.106 A 
ATOM      3  C   LIG A   1      -1.917  -1.534  -0.002  0.00  0.00    +0.092 A 
ATOM      4  C   LIG A   1      -0.452  -1.665   0.005  0.00  0.00    +0.193 A 
ATOM      5  C   LIG A   1       0.341  -0.408   0.002  0.00  0.00    +0.067 A 
ATOM      6  C   LIG A   1       1.754  -0.361   0.001  0.00  0.00    -0.033 A 
ATOM      7  C   LIG A   1       2.389   0.900   0.002  0.00  0.00    +0.049 A 
ATOM      8  C   LIG A   1       1.643   2.074   0.002  0.00  0.00    +0.121 A 
ATOM      9  C   LIG A   1       0.260   2.030   0.001  0.00  0.00    +0.092 A 
ATOM     10  C   LIG A   1      -0.389   0.793   0.001  0.00  0.00    +0.142 A 
ATOM     11  O   LIG A   1      -1.764   0.856   0.000  0.00  0.00    -0.460 OA
ATOM     12  C   LIG A   1       2.675  -1.551  -0.000  0.00  0.00    +0.045 C 
ATOM     13  O   LIG A   1       0.029  -2.789   0.015  0.00  0.00    -0.287 OA
ENDROOT
BRANCH   8  14
ATOM     14  O   LIG A   1       2.244   3.297   0.003  0.00  0.00    -0.507 OA
ATOM     15  H   LIG A   1       3.208   3.177   0.005  0.00  0.00    +0.292 HD
ENDBRANCH   8  14
TORSDOF 1
