@<TRIPOS>MOLECULE
NuBBE_1167
 45 46 0 0 0
SMALL
GASTEIGER

@<TRIPOS>ATOM
      1 O          -2.9270   -1.5175    2.2119 O.3     1  LIG1       -0.3864
      2 C          -3.1266   -0.1669    1.7936 C.3     1  LIG1        0.1141
      3 H          -4.2082    0.0071    1.7267 H       1  LIG1        0.0648
      4 C          -2.5341    0.8031    2.8339 C.3     1  LIG1        0.1119
      5 H          -2.8464    0.5262    3.8465 H       1  LIG1        0.0647
      6 C          -1.0034    0.8460    2.7669 C.3     1  LIG1        0.1130
      7 H          -0.6506    1.7242    3.3213 H       1  LIG1        0.0647
      8 O          -0.5959    1.1105    1.4158 O.3     1  LIG1       -0.3404
      9 C          -0.9674    0.1165    0.4609 C.3     1  LIG1        0.1912
     10 H          -0.5568   -0.8608    0.7226 H       1  LIG1        0.0939
     11 C          -2.5126    0.0549    0.3980 C.3     1  LIG1        0.1342
     12 H          -2.8289   -0.7301   -0.2985 H       1  LIG1        0.0671
     13 O          -3.0005    1.3116   -0.1257 O.3     1  LIG1       -0.3841
     14 O          -0.5090    0.5382   -0.8294 O.3     1  LIG1       -0.3125
     15 C           0.9095    0.5206   -1.0777 C.3     1  LIG1        0.2252
     16 O           1.0658    0.8596   -2.4848 O.3     1  LIG1       -0.3362
     17 C           1.9350   -0.0973   -3.1115 C.3     1  LIG1        0.1134
     18 H           2.6853    0.4534   -3.6902 H       1  LIG1        0.0647
     19 C           2.6110   -0.9049   -2.0012 C.3     1  LIG1        0.1145
     20 H           2.8755   -1.9198   -2.3126 H       1  LIG1        0.0648
     21 C           1.5789   -0.8688   -0.8824 C.3     1  LIG1        0.1395
     22 H           2.0139   -0.9688    0.1177 H       1  LIG1        0.0675
     23 O           0.6620   -1.9631   -1.0683 O.3     1  LIG1       -0.3837
     24 O           3.8160   -0.2671   -1.5626 O.3     1  LIG1       -0.3864
     25 C           1.0875   -0.9384   -4.0680 C.3     1  LIG1        0.0730
     26 O           1.8824   -1.9211   -4.7193 O.3     1  LIG1       -0.3924
     27 C           1.6715    1.6605   -0.3330 C.3     1  LIG1        0.1009
     28 O           1.7186    1.5147    1.0858 O.3     1  LIG1       -0.3896
     29 C          -0.2895   -0.3814    3.3594 C.3     1  LIG1        0.0730
     30 O           1.1298   -0.2576    3.2690 O.3     1  LIG1       -0.3924
     31 O          -3.0351    2.1266    2.5897 O.3     1  LIG1       -0.3865
     32 H          -3.5434   -1.6812    2.9516 H       1  LIG1        0.2100
     33 H          -2.4013    1.5091   -0.8783 H       1  LIG1        0.2101
     34 H           1.1675   -2.7798   -0.8980 H       1  LIG1        0.2101
     35 H           4.4184   -0.2240   -2.3168 H       1  LIG1        0.2100
     36 H           0.6436   -0.2872   -4.8299 H       1  LIG1        0.0584
     37 H           0.2582   -1.4304   -3.5510 H       1  LIG1        0.0584
     38 H           1.2865   -2.4035   -5.3194 H       1  LIG1        0.2095
     39 H           2.7092    1.7339   -0.6780 H       1  LIG1        0.0612
     40 H           1.2068    2.6228   -0.5574 H       1  LIG1        0.0612
     41 H           0.8368    1.8302    1.3766 H       1  LIG1        0.2096
     42 H          -0.5383   -0.4806    4.4206 H       1  LIG1        0.0584
     43 H          -0.5575   -1.3162    2.8647 H       1  LIG1        0.0584
     44 H           1.3651    0.1860    2.4265 H       1  LIG1        0.2095
     45 H          -2.9023    2.3108    1.6343 H       1  LIG1        0.2100
@<TRIPOS>BOND
     1     1     2    1
     2     2     3    1
     3     2     4    1
     4     4     6    1
     5     6     8    1
     6     8     9    1
     7     9    10    1
     8     9    11    1
     9    11    12    1
    10     2    11    1
    11    11    13    1
    12     9    14    1
    13    15    16    1
    14    16    17    1
    15    17    18    1
    16    17    19    1
    17    19    21    1
    18    21    22    1
    19    15    21    1
    20    21    23    1
    21    17    25    1
    22    25    26    1
    23    27    28    1
    24    29    30    1
    25     6    29    1
    26     6     7    1
    27    15    27    1
    28    15    14    1
    29     4    31    1
    30     4     5    1
    31    19    24    1
    32    19    20    1
    33     1    32    1
    34    13    33    1
    35    23    34    1
    36    24    35    1
    37    25    36    1
    38    25    37    1
    39    26    38    1
    40    27    39    1
    41    27    40    1
    42    28    41    1
    43    29    42    1
    44    29    43    1
    45    30    44    1
    46    31    45    1
