REMARK  Name = NuBBE_1900
REMARK  13 active torsions:
REMARK  status: ('A' for Active; 'I' for Inactive)
REMARK    1  A    between atoms: C_4  and  C_5
REMARK    2  A    between atoms: C_5  and  O_6
REMARK    3  A    between atoms: O_6  and  C_7
REMARK    4  A    between atoms: C_10  and  C_11
REMARK    5  A    between atoms: C_14  and  C_16
REMARK    6  A    between atoms: C_16  and  C_17
REMARK    7  A    between atoms: C_16  and  C_18
REMARK    8  A    between atoms: C_16  and  O_19
REMARK    9  A    between atoms: O_19  and  C_20
REMARK   10  A    between atoms: C_20  and  C_21
REMARK   11  A    between atoms: C_23  and  O_25
REMARK   12  A    between atoms: O_25  and  C_26
REMARK   13  A    between atoms: C_26  and  C_27
REMARK                            x       y       z     vdW  Elec       q    Type
REMARK                         _______ _______ _______ _____ _____    ______ ____
ROOT
ATOM      1  O   LIG A   1      -2.592  -0.073   1.194  0.00  0.00    -0.288 OA
ATOM      2  C   LIG A   1      -1.461  -0.131   0.707  0.00  0.00    +0.204 C 
ATOM      3  C   LIG A   1      -0.750  -1.426   0.567  0.00  0.00    +0.030 A 
ATOM      4  C   LIG A   1      -1.444  -2.648   0.785  0.00  0.00    -0.011 A 
ATOM      5  C   LIG A   1      -0.741  -3.846   0.595  0.00  0.00    +0.007 A 
ATOM      6  C   LIG A   1       0.600  -3.847   0.232  0.00  0.00    +0.004 A 
ATOM      7  C   LIG A   1       1.297  -2.647   0.061  0.00  0.00    -0.047 A 
ATOM      8  C   LIG A   1       2.761  -2.720  -0.282  0.00  0.00    +0.044 C 
ATOM      9  C   LIG A   1       0.617  -1.413   0.208  0.00  0.00    -0.033 A 
ATOM     10  C   LIG A   1       1.413  -0.127   0.132  0.00  0.00    +0.047 C 
ATOM     11  C   LIG A   1       0.665   1.171  -0.221  0.00  0.00    +0.085 C 
ATOM     12  C   LIG A   1      -0.809   1.152   0.206  0.00  0.00    +0.254 C 
ENDROOT
BRANCH  11  13
ATOM     13  C   LIG A   1       1.409   2.455   0.346  0.00  0.00    +0.115 C 
ATOM     14  C   LIG A   1       0.703   3.788   0.001  0.00  0.00    +0.056 C 
ATOM     15  C   LIG A   1       1.485   2.420   1.895  0.00  0.00    +0.056 C 
BRANCH  13  16
ATOM     16  O   LIG A   1       2.809   2.506  -0.103  0.00  0.00    -0.458 OA
BRANCH  16  17
ATOM     17  C   LIG A   1       3.132   2.908  -1.351  0.00  0.00    +0.304 C 
ATOM     18  C   LIG A   1       4.619   3.094  -1.482  0.00  0.00    +0.136 C 
ATOM     19  O   LIG A   1       2.338   3.159  -2.262  0.00  0.00    -0.251 OA
ENDBRANCH  16  17
ENDBRANCH  13  16
ENDBRANCH  11  13
BRANCH   4  20
ATOM     20  C   LIG A   1      -2.906  -2.713   1.209  0.00  0.00    +0.195 C 
BRANCH  20  21
ATOM     21  O   LIG A   1      -3.332  -4.074   1.375  0.00  0.00    -0.378 OA
ATOM     22  C   LIG A   1      -4.669  -4.174   1.836  0.00  0.00    +0.194 C 
ENDBRANCH  20  21
ENDBRANCH   4  20
BRANCH  12  23
ATOM     23  O   LIG A   1      -1.644   1.796  -0.777  0.00  0.00    -0.453 OA
BRANCH  23  24
ATOM     24  C   LIG A   1      -1.968   1.041  -1.863  0.00  0.00    +0.305 C 
ATOM     25  C   LIG A   1      -2.991   1.750  -2.693  0.00  0.00    +0.136 C 
ATOM     26  O   LIG A   1      -1.518  -0.062  -2.119  0.00  0.00    -0.251 OA
ENDBRANCH  23  24
ENDBRANCH  12  23
TORSDOF 7
