REMARK  Name = NuBBE_60
REMARK  16 active torsions:
REMARK  status: ('A' for Active; 'I' for Inactive)
REMARK    1  A    between atoms: O_1  and  C_2
REMARK    2  A    between atoms: C_6  and  O_15
REMARK    3  A    between atoms: C_9  and  O_11
REMARK    4  A    between atoms: O_11  and  C_12
REMARK    5  A    between atoms: C_12  and  C_13
REMARK    6  A    between atoms: O_15  and  C_16
REMARK    7  A    between atoms: C_16  and  C_17
REMARK    8  A    between atoms: C_20  and  O_22
REMARK    9  A    between atoms: O_22  and  C_23
REMARK   10  A    between atoms: C_23  and  C_24
REMARK   11  A    between atoms: C_32  and  C_34
REMARK   12  A    between atoms: C_35  and  C_36
REMARK   13  A    between atoms: C_35  and  C_37
REMARK   14  A    between atoms: C_37  and  C_38
REMARK   15  A    between atoms: C_39  and  C_40
REMARK   16  A    between atoms: C_39  and  C_41
REMARK                            x       y       z     vdW  Elec       q    Type
REMARK                         _______ _______ _______ _____ _____    ______ ____
ROOT
ATOM      1  C   LIG A   1      -0.221   3.284   0.160  0.00  0.00    +0.138 C 
ATOM      2  C   LIG A   1      -1.460   2.572   0.572  0.00  0.00    +0.010 C 
ATOM      3  C   LIG A   1      -1.550   1.235   0.647  0.00  0.00    +0.012 C 
ATOM      4  C   LIG A   1      -2.440   0.485   1.613  0.00  0.00    +0.343 C 
ATOM      5  O   LIG A   1      -1.557  -0.522   2.160  0.00  0.00    -0.297 OA
ATOM      6  C   LIG A   1      -0.252  -0.232   1.632  0.00  0.00    +0.328 C 
ATOM      7  C   LIG A   1      -0.492   0.243   0.161  0.00  0.00    +0.100 C 
ATOM      8  C   LIG A   1      -1.224  -0.822  -0.770  0.00  0.00    +0.194 C 
ATOM      9  C   LIG A   1      -0.457  -1.175  -2.044  0.00  0.00    +0.049 C 
ATOM     10  C   LIG A   1      -0.111   0.134  -2.764  0.00  0.00    -0.004 C 
ATOM     11  C   LIG A   1       0.020  -0.073  -4.280  0.00  0.00    +0.008 C 
ATOM     12  C   LIG A   1       1.076   0.876  -2.061  0.00  0.00    -0.022 C 
ATOM     13  C   LIG A   1       1.203   2.254  -2.764  0.00  0.00    +0.012 C 
ATOM     14  C   LIG A   1       0.799   0.947  -0.470  0.00  0.00    +0.018 C 
ATOM     15  C   LIG A   1       1.015   2.365   0.144  0.00  0.00    +0.040 C 
ENDROOT
BRANCH   1  16
ATOM     16  O   LIG A   1      -0.498   3.933  -1.058  0.00  0.00    -0.388 OA
ATOM     17  H   LIG A   1       0.204   4.587  -1.213  0.00  0.00    +0.210 HD
ENDBRANCH   1  16
BRANCH   6  18
ATOM     18  O   LIG A   1       0.694  -1.286   1.794  0.00  0.00    -0.434 OA
BRANCH  18  19
ATOM     19  C   LIG A   1       1.128  -1.377   3.074  0.00  0.00    +0.306 C 
ATOM     20  C   LIG A   1       2.433  -2.099   3.159  0.00  0.00    +0.136 C 
ATOM     21  O   LIG A   1       0.603  -0.856   4.071  0.00  0.00    -0.251 OA
ENDBRANCH  18  19
ENDBRANCH   6  18
BRANCH   4  22
ATOM     22  O   LIG A   1      -2.887   1.306   2.685  0.00  0.00    -0.431 OA
BRANCH  22  23
ATOM     23  C   LIG A   1      -4.237   1.413   2.769  0.00  0.00    +0.306 C 
ATOM     24  C   LIG A   1      -4.651   1.912   4.119  0.00  0.00    +0.136 C 
ATOM     25  O   LIG A   1      -5.030   1.143   1.885  0.00  0.00    -0.251 OA
ENDBRANCH  22  23
ENDBRANCH   4  22
BRANCH   8  26
ATOM     26  O   LIG A   1      -1.658  -2.029  -0.072  0.00  0.00    -0.457 OA
BRANCH  26  27
ATOM     27  C   LIG A   1      -2.967  -2.398  -0.203  0.00  0.00    +0.340 C 
ATOM     28  O   LIG A   1      -3.759  -2.003  -1.044  0.00  0.00    -0.245 OA
BRANCH  27  29
ATOM     29  C   LIG A   1      -3.374  -3.268   0.962  0.00  0.00    +0.059 A 
ATOM     30  C   LIG A   1      -2.428  -4.065   1.620  0.00  0.00    +0.015 A 
ATOM     31  C   LIG A   1      -2.782  -4.787   2.763  0.00  0.00    +0.001 A 
ATOM     32  C   LIG A   1      -4.086  -4.741   3.254  0.00  0.00    +0.000 A 
ATOM     33  C   LIG A   1      -5.050  -3.985   2.587  0.00  0.00    +0.001 A 
ATOM     34  C   LIG A   1      -4.702  -3.251   1.446  0.00  0.00    +0.015 A 
ENDBRANCH  27  29
ENDBRANCH  26  27
ENDBRANCH   8  26
BRANCH  12  35
ATOM     35  C   LIG A   1       2.469   0.150  -2.328  0.00  0.00    +0.034 C 
BRANCH  35  36
ATOM     36  C   LIG A   1       3.697   0.780  -1.685  0.00  0.00    -0.023 C 
ATOM     37  C   LIG A   1       4.840   1.196  -2.273  0.00  0.00    -0.055 C 
ATOM     38  C   LIG A   1       5.137   1.174  -3.748  0.00  0.00    +0.043 C 
BRANCH  37  39
ATOM     39  C   LIG A   1       5.897   1.768  -1.451  0.00  0.00    -0.005 C 
ATOM     40  C   LIG A   1       7.147   1.291  -1.400  0.00  0.00    +0.008 C 
ENDBRANCH  37  39
ENDBRANCH  35  36
ENDBRANCH  12  35
TORSDOF 11
