@<TRIPOS>MOLECULE
NuBBE_250
 33 34 0 0 0
SMALL
GASTEIGER

@<TRIPOS>ATOM
      1 C          -2.2733   -3.0414    3.2423 C.3     1  LIG1        0.0788
      2 O          -1.0649   -3.4711    2.6248 O.3     1  LIG1       -0.4950
      3 C          -0.5133   -2.6077    1.7182 C.ar    1  LIG1        0.1244
      4 C           0.3222   -3.2003    0.7675 C.ar    1  LIG1        0.0255
      5 C           0.9586   -2.4374   -0.2173 C.ar    1  LIG1        0.1663
      6 O           1.7033   -3.1758   -1.0950 O.3     1  LIG1       -0.4913
      7 C           2.8237   -2.5353   -1.6921 C.3     1  LIG1        0.0790
      8 C           0.7324   -1.0578   -0.2387 C.ar    1  LIG1        0.1807
      9 O           1.2967   -0.2666   -1.2592 O.2     1  LIG1       -0.4182
     10 C           1.0982    1.1046   -1.3554 C.ar    1  LIG1        0.3410
     11 C           0.2675    1.7344   -0.3030 C.ar    1  LIG1        0.0447
     12 C           0.0865    3.2223   -0.4046 C.3     1  LIG1        0.0375
     13 C          -1.0391    3.5678   -1.3693 C.2     1  LIG1        0.1348
     14 C          -0.9315    4.8830   -2.0962 C.3     1  LIG1       -0.0057
     15 O          -2.0140    2.8339   -1.5388 O.2     1  LIG1       -0.2974
     16 C          -0.2735    0.9966    0.6768 C.ar    1  LIG1       -0.0405
     17 O           1.6142    1.7694   -2.2451 O.2     1  LIG1       -0.2449
     18 C          -0.0791   -0.4461    0.7208 C.ar    1  LIG1        0.0250
     19 C          -0.7000   -1.2255    1.7040 C.ar    1  LIG1       -0.0090
     20 H          -2.6817   -3.8888    3.8015 H       1  LIG1        0.0660
     21 H          -3.0170   -2.7435    2.4952 H       1  LIG1        0.0660
     22 H          -2.0860   -2.2333    3.9562 H       1  LIG1        0.0660
     23 H           0.4736   -4.2777    0.7894 H       1  LIG1        0.0692
     24 H           3.4603   -3.3169   -2.1190 H       1  LIG1        0.0660
     25 H           3.4198   -1.9887   -0.9535 H       1  LIG1        0.0660
     26 H           2.5142   -1.8903   -2.5188 H       1  LIG1        0.0660
     27 H           1.0130    3.7019   -0.7395 H       1  LIG1        0.0392
     28 H          -0.1629    3.6600    0.5693 H       1  LIG1        0.0392
     29 H          -0.4458    5.6286   -1.4611 H       1  LIG1        0.0306
     30 H          -1.9336    5.2478   -2.3404 H       1  LIG1        0.0306
     31 H          -0.3562    4.7418   -3.0136 H       1  LIG1        0.0306
     32 H          -0.8903    1.4534    1.4447 H       1  LIG1        0.0630
     33 H          -1.3218   -0.7413    2.4499 H       1  LIG1        0.0661
@<TRIPOS>BOND
     1     1     2    1
     2     2     3    1
     3     3     4   ar
     4     4     5   ar
     5     5     6    1
     6     6     7    1
     7     5     8   ar
     8     8     9   ar
     9     9    10   ar
    10    10    11   ar
    11    11    12    1
    12    12    13    1
    13    13    14    1
    14    13    15    2
    15    11    16   ar
    16    10    17    2
    17     8    18   ar
    18    16    18   ar
    19    18    19   ar
    20     3    19   ar
    21     1    20    1
    22     1    21    1
    23     1    22    1
    24     4    23    1
    25     7    24    1
    26     7    25    1
    27     7    26    1
    28    12    27    1
    29    12    28    1
    30    14    29    1
    31    14    30    1
    32    14    31    1
    33    16    32    1
    34    19    33    1
