@<TRIPOS>MOLECULE
NuBBE_602
 100 105 0 0 0
SMALL
GASTEIGER

@<TRIPOS>ATOM
      1 O          -2.5009    3.9594   -3.7484 O.3     1  LIG1       -0.5033
      2 C          -2.4926    3.0202   -2.7571 C.ar    1  LIG1        0.1591
      3 C          -3.5877    2.2014   -2.4763 C.ar    1  LIG1        0.1613
      4 C          -3.5054    1.2635   -1.4441 C.ar    1  LIG1       -0.0156
      5 C          -2.3511    1.1762   -0.6843 C.ar    1  LIG1       -0.0473
      6 C          -1.2929    1.9887   -0.9885 C.ar    1  LIG1        0.0247
      7 C          -0.0526    1.9318   -0.2354 C.ar    1  LIG1        0.1810
      8 C           0.9904    1.4320   -0.7643 C.ar    1  LIG1        0.2138
      9 C           2.3845    1.7850   -0.0077 C.ar    1  LIG1        0.2382
     10 C           2.2733    2.5865    1.2184 C.ar    1  LIG1        0.1095
     11 C           3.3835    2.9106    1.9862 C.ar    1  LIG1        0.1419
     12 C           3.4349    4.3042    2.2014 C.ar    1  LIG1        0.0228
     13 C           2.2498    5.0533    2.0080 C.ar    1  LIG1        0.1271
     14 C           1.0479    4.4585    1.8234 C.ar    1  LIG1        0.0233
     15 C           1.0646    3.1976    1.3152 C.ar    1  LIG1        0.1466
     16 O          -0.1271    2.7281    0.8963 O.2     1  LIG1       -0.4507
     17 O           2.3727    6.4168    1.9382 O.3     1  LIG1       -0.4949
     18 C           1.4039    7.0015    1.0537 C.3     1  LIG1        0.0788
     19 O           4.3576    2.0873    2.5258 O.3     1  LIG1       -0.4599
     20 C           4.3627    0.6030    2.7257 C.3     1  LIG1        0.2308
     21 H           5.4346    0.3487    2.7129 H       1  LIG1        0.1084
     22 C           3.7840    0.0137    4.0856 C.3     1  LIG1        0.1454
     23 H           4.2239    0.5437    4.9300 H       1  LIG1        0.0683
     24 C           2.2254   -0.0191    4.1531 C.3     1  LIG1        0.1152
     25 H           1.8048   -1.0239    4.2376 H       1  LIG1        0.0648
     26 C           1.6997    0.4774    2.8292 C.3     1  LIG1        0.1120
     27 H           2.0207    1.4905    2.9947 H       1  LIG1        0.0647
     28 C           2.4560   -0.4808    1.8014 C.3     1  LIG1        0.1140
     29 H           2.3714   -1.4685    2.2332 H       1  LIG1        0.0647
     30 O           3.8474   -0.1939    1.6783 O.3     1  LIG1       -0.3313
     31 C           2.0012   -0.8381    0.4137 C.3     1  LIG1        0.0731
     32 O           2.7417   -1.8297   -0.2935 O.3     1  LIG1       -0.3924
     33 O           0.2940    0.5895    2.7525 O.3     1  LIG1       -0.3865
     34 O           1.7584    0.6840    5.3032 O.3     1  LIG1       -0.3864
     35 O           4.1825   -1.3769    4.2067 O.3     1  LIG1       -0.3829
     36 O           3.4952    1.4476   -0.2658 O.2     1  LIG1       -0.2830
     37 O           0.9863    0.1954   -1.5087 O.3     1  LIG1       -0.4532
     38 C           0.4032   -0.2628   -2.7151 C.3     1  LIG1        0.2311
     39 H           0.2903    0.6540   -3.2868 H       1  LIG1        0.1084
     40 O          -0.8136   -0.9343   -2.3923 O.3     1  LIG1       -0.3313
     41 C          -1.4726   -1.8552   -3.2619 C.3     1  LIG1        0.1144
     42 H          -2.3422   -1.3051   -3.6348 H       1  LIG1        0.0647
     43 C          -0.6884   -2.3506   -4.5138 C.3     1  LIG1        0.1120
     44 H          -0.3783   -3.3981   -4.4080 H       1  LIG1        0.0647
     45 C           0.5496   -1.5040   -4.8206 C.3     1  LIG1        0.1152
     46 H           0.2668   -0.5464   -5.2756 H       1  LIG1        0.0648
     47 C           1.3374   -1.2365   -3.5293 C.3     1  LIG1        0.1454
     48 H           1.5538   -2.1936   -3.0256 H       1  LIG1        0.0683
     49 O           2.6018   -0.6633   -3.8907 O.3     1  LIG1       -0.3829
     50 O           1.3668   -2.1432   -5.8208 O.3     1  LIG1       -0.3864
     51 O          -1.5713   -2.3435   -5.6531 O.3     1  LIG1       -0.3865
     52 C          -2.0552   -3.0787   -2.4275 C.3     1  LIG1        0.0796
     53 O          -2.7139   -2.8059   -1.1479 O.3     1  LIG1       -0.3461
     54 C          -1.8348   -2.5085   -0.0250 C.3     1  LIG1        0.1879
     55 H          -1.2794   -1.6129   -0.2982 H       1  LIG1        0.0937
     56 O          -0.9104   -3.5823    0.1393 O.3     1  LIG1       -0.3431
     57 C          -0.5582   -4.0216    1.4535 C.3     1  LIG1        0.0873
     58 H           0.0202   -4.9312    1.2580 H       1  LIG1        0.0621
     59 C          -1.7560   -4.3651    2.3290 C.3     1  LIG1        0.1095
     60 H          -1.4135   -4.4874    3.3650 H       1  LIG1        0.0646
     61 C          -2.8857   -3.3297    2.2362 C.3     1  LIG1        0.1140
     62 H          -3.8101   -3.8228    1.9229 H       1  LIG1        0.0648
     63 C          -2.6200   -2.1447    1.2889 C.3     1  LIG1        0.1341
     64 H          -3.5769   -1.6654    1.0555 H       1  LIG1        0.0671
     65 O          -1.9030   -1.1320    2.0349 O.3     1  LIG1       -0.3841
     66 O          -3.1376   -2.7819    3.5572 O.3     1  LIG1       -0.3864
     67 O          -2.2775   -5.6513    1.9585 O.3     1  LIG1       -0.3866
     68 C           0.3703   -3.0968    2.2055 C.3     1  LIG1       -0.0361
     69 C          -1.3219    2.9244   -2.0133 C.ar    1  LIG1       -0.0057
     70 O          -4.7513    2.4487   -3.1648 O.3     1  LIG1       -0.4915
     71 C          -5.7126    1.3901   -3.1410 C.3     1  LIG1        0.0790
     72 H          -3.4251    3.9843   -4.0557 H       1  LIG1        0.2923
     73 H          -4.3178    0.6160   -1.1617 H       1  LIG1        0.0655
     74 H          -2.3061    0.4857    0.1533 H       1  LIG1        0.0626
     75 H           4.3763    4.7836    2.3650 H       1  LIG1        0.0691
     76 H           0.0533    4.9460    1.7246 H       1  LIG1        0.0691
     77 H           1.5899    8.0716    1.0377 H       1  LIG1        0.0660
     78 H           0.3780    6.8661    1.4176 H       1  LIG1        0.0660
     79 H           1.4939    6.6055    0.0310 H       1  LIG1        0.0660
     80 H           0.9106   -0.9030    0.3822 H       1  LIG1        0.0584
     81 H           2.3495   -0.1438   -0.2800 H       1  LIG1        0.0584
     82 H           3.5066   -1.2914   -0.6399 H       1  LIG1        0.2095
     83 H           0.0539    1.5210    2.5587 H       1  LIG1        0.2100
     84 H           1.7527    1.6402    5.1325 H       1  LIG1        0.2100
     85 H           3.5896   -1.7893    4.8624 H       1  LIG1        0.2102
     86 H           2.8670   -1.0801   -4.7381 H       1  LIG1        0.2102
     87 H           1.5014   -3.0757   -5.5751 H       1  LIG1        0.2100
     88 H          -1.0293   -2.3123   -6.4658 H       1  LIG1        0.2100
     89 H          -1.3116   -3.8770   -2.2965 H       1  LIG1        0.0587
     90 H          -2.8304   -3.5397   -3.0625 H       1  LIG1        0.0587
     91 H          -2.1677   -1.2393    2.9760 H       1  LIG1        0.2101
     92 H          -3.9148   -3.2472    3.9186 H       1  LIG1        0.2100
     93 H          -2.2447   -5.7083    0.9863 H       1  LIG1        0.2100
     94 H          -0.1285   -2.4504    2.9322 H       1  LIG1        0.0255
     95 H           0.8685   -2.4893    1.4823 H       1  LIG1        0.0255
     96 H           1.1231   -3.6574    2.7688 H       1  LIG1        0.0255
     97 H          -0.4876    3.5926   -2.1976 H       1  LIG1        0.0662
     98 H          -6.6333    1.7616   -3.5955 H       1  LIG1        0.0660
     99 H          -5.9940    1.0546   -2.1349 H       1  LIG1        0.0660
    100 H          -5.3416    0.5487   -3.7340 H       1  LIG1        0.0660
@<TRIPOS>BOND
     1     1     2    1
     2     2     3   ar
     3     3     4   ar
     4     4     5   ar
     5     5     6   ar
     6     6     7    1
     7     7     8   ar
     8     8     9   ar
     9     9    10   ar
    10    10    11   ar
    11    11    12   ar
    12    12    13   ar
    13    13    14   ar
    14    14    15   ar
    15    10    15   ar
    16    15    16   ar
    17     7    16   ar
    18    13    17    1
    19    17    18    1
    20    11    19    1
    21    19    20    1
    22    20    21    1
    23    20    22    1
    24    22    24    1
    25    24    26    1
    26    26    27    1
    27    26    28    1
    28    28    30    1
    29    20    30    1
    30    31    32    1
    31    26    33    1
    32     9    36    2
    33     8    37    1
    34    38    40    1
    35    40    41    1
    36    41    42    1
    37    41    43    1
    38    43    45    1
    39    45    46    1
    40    45    47    1
    41    38    47    1
    42    45    50    1
    43    41    52    1
    44    52    53    1
    45    54    56    1
    46    56    57    1
    47    57    59    1
    48    59    60    1
    49    59    61    1
    50    61    63    1
    51    54    63    1
    52    59    67    1
    53     6    69   ar
    54     2    69   ar
    55     3    70    1
    56    70    71    1
    57    22    35    1
    58    22    23    1
    59    24    34    1
    60    24    25    1
    61    28    31    1
    62    28    29    1
    63    63    65    1
    64    63    64    1
    65    38    39    1
    66    38    37    1
    67    43    51    1
    68    43    44    1
    69    47    49    1
    70    47    48    1
    71    54    55    1
    72    54    53    1
    73    57    68    1
    74    57    58    1
    75    61    66    1
    76    61    62    1
    77     1    72    1
    78     4    73    1
    79     5    74    1
    80    12    75    1
    81    14    76    1
    82    18    77    1
    83    18    78    1
    84    18    79    1
    85    31    80    1
    86    31    81    1
    87    32    82    1
    88    33    83    1
    89    34    84    1
    90    35    85    1
    91    49    86    1
    92    50    87    1
    93    51    88    1
    94    52    89    1
    95    52    90    1
    96    65    91    1
    97    66    92    1
    98    67    93    1
    99    68    94    1
   100    68    95    1
   101    68    96    1
   102    69    97    1
   103    71    98    1
   104    71    99    1
   105    71   100    1
