REMARK  Name = NuBBE_1802
REMARK  16 active torsions:
REMARK  status: ('A' for Active; 'I' for Inactive)
REMARK    1  A    between atoms: C_4  and  C_5
REMARK    2  A    between atoms: C_5  and  C_6
REMARK    3  A    between atoms: C_6  and  O_7
REMARK    4  A    between atoms: C_6  and  C_9
REMARK    5  A    between atoms: O_7  and  C_8
REMARK    6  A    between atoms: C_9  and  O_10
REMARK    7  A    between atoms: O_10  and  C_11
REMARK    8  A    between atoms: C_13  and  C_14
REMARK    9  A    between atoms: C_14  and  C_15
REMARK   10  A    between atoms: C_15  and  C_16
REMARK   11  A    between atoms: C_16  and  C_17
REMARK   12  A    between atoms: C_17  and  C_18
REMARK   13  A    between atoms: C_18  and  C_19
REMARK   14  A    between atoms: C_19  and  C_20
REMARK   15  A    between atoms: C_20  and  C_21
REMARK   16  A    between atoms: C_21  and  C_22
REMARK                            x       y       z     vdW  Elec       q    Type
REMARK                         _______ _______ _______ _____ _____    ______ ____
ROOT
ATOM      1  O   LIG A   1      -3.974   2.067   1.501  0.00  0.00    -0.251 OA
ATOM      2  C   LIG A   1      -2.822   2.116   1.081  0.00  0.00    +0.311 C 
ATOM      3  O   LIG A   1      -2.160   1.042   0.551  0.00  0.00    -0.461 OA
ATOM      4  C   LIG A   1      -1.917   3.325   1.124  0.00  0.00    +0.104 C 
ATOM      5  C   LIG A   1      -0.913   2.928   0.054  0.00  0.00    +0.059 C 
ATOM      6  C   LIG A   1      -0.815   1.433   0.257  0.00  0.00    +0.177 C 
ENDROOT
BRANCH   4   7
ATOM      7  C   LIG A   1      -1.356   3.469   2.554  0.00  0.00    +0.048 C 
BRANCH   7   8
ATOM      8  C   LIG A   1      -0.663   4.813   2.856  0.00  0.00    +0.144 C 
BRANCH   8   9
ATOM      9  O   LIG A   1      -1.669   5.813   2.645  0.00  0.00    -0.378 OA
ATOM     10  C   LIG A   1      -1.186   7.147   2.670  0.00  0.00    +0.194 C 
ENDBRANCH   8   9
BRANCH   8  11
ATOM     11  C   LIG A   1      -0.121   4.807   4.311  0.00  0.00    +0.191 C 
BRANCH  11  12
ATOM     12  O   LIG A   1       0.661   5.977   4.591  0.00  0.00    -0.380 OA
ATOM     13  C   LIG A   1       1.127   5.981   5.939  0.00  0.00    +0.194 C 
ENDBRANCH  11  12
ENDBRANCH   8  11
ENDBRANCH   7   8
ENDBRANCH   4   7
BRANCH   6  14
ATOM     14  C   LIG A   1      -0.276   0.697  -0.964  0.00  0.00    +0.045 C 
BRANCH  14  15
ATOM     15  C   LIG A   1      -0.173  -0.808  -0.711  0.00  0.00    +0.003 C 
BRANCH  15  16
ATOM     16  C   LIG A   1       0.445  -1.516  -1.913  0.00  0.00    +0.000 C 
BRANCH  16  17
ATOM     17  C   LIG A   1       0.553  -3.018  -1.671  0.00  0.00    -0.000 C 
BRANCH  17  18
ATOM     18  C   LIG A   1       1.177  -3.712  -2.879  0.00  0.00    +0.000 C 
BRANCH  18  19
ATOM     19  C   LIG A   1       1.288  -5.214  -2.644  0.00  0.00    +0.000 C 
BRANCH  19  20
ATOM     20  C   LIG A   1       1.906  -5.918  -3.853  0.00  0.00    +0.004 C 
BRANCH  20  21
ATOM     21  C   LIG A   1       2.021  -7.429  -3.646  0.00  0.00    +0.026 C 
BRANCH  21  22
ATOM     22  C   LIG A   1       0.683  -8.069  -3.415  0.00  0.00    -0.035 C 
ATOM     23  C   LIG A   1      -0.084  -8.562  -4.394  0.00  0.00    +0.004 C 
ENDBRANCH  21  22
ENDBRANCH  20  21
ENDBRANCH  19  20
ENDBRANCH  18  19
ENDBRANCH  17  18
ENDBRANCH  16  17
ENDBRANCH  15  16
ENDBRANCH  14  15
ENDBRANCH   6  14
TORSDOF 14
