@<TRIPOS>MOLECULE
NuBBE_1899
 35 37 0 0 0
SMALL
GASTEIGER

@<TRIPOS>ATOM
      1 O          -2.2472    0.7225   -0.3084 O.3     1  LIG1       -0.3834
      2 C          -1.1280    0.5609   -1.1903 C.3     1  LIG1        0.1202
      3 C          -0.1717    1.7635   -1.1035 C.3     1  LIG1        0.1593
      4 C           0.5689    1.6898    0.1643 C.ar    1  LIG1        0.0169
      5 C           0.6380    2.9187    0.7579 C.ar    1  LIG1        0.0663
      6 C          -0.2130    3.8162   -0.0182 C.2     1  LIG1        0.3403
      7 O          -0.7946    3.0605   -1.0156 O.3     1  LIG1       -0.4501
      8 O          -0.4320    4.9875    0.2151 O.2     1  LIG1       -0.2449
      9 C           1.2987    3.0920    1.9536 C.ar    1  LIG1       -0.0471
     10 C           1.8755    1.9546    2.5398 C.ar    1  LIG1       -0.0575
     11 C           1.7356    0.6636    1.9593 C.ar    1  LIG1       -0.0429
     12 C           2.2909   -0.5311    2.6826 C.3     1  LIG1       -0.0391
     13 C           1.0243    0.5291    0.7576 C.ar    1  LIG1       -0.0144
     14 C           0.6193   -0.7210    0.0928 C.2     1  LIG1       -0.0495
     15 C          -0.4064   -0.7426   -0.8011 C.2     1  LIG1       -0.0064
     16 C          -0.9036   -2.0007   -1.5029 C.3     1  LIG1        0.0842
     17 C          -2.3865   -2.2689   -1.2103 C.3     1  LIG1       -0.0324
     18 O          -0.7552   -1.7566   -2.9078 O.3     1  LIG1       -0.3847
     19 C          -0.1032   -3.2764   -1.1930 C.3     1  LIG1       -0.0324
     20 H          -2.5527    1.6415   -0.4216 H       1  LIG1        0.2104
     21 H          -1.5316    0.5195   -2.2073 H       1  LIG1        0.0682
     22 H           0.5223    1.7671   -1.9534 H       1  LIG1        0.0816
     23 H           1.3413    4.0624    2.4370 H       1  LIG1        0.0626
     24 H           2.3998    2.0671    3.4882 H       1  LIG1        0.0621
     25 H           2.9007   -0.2317    3.5415 H       1  LIG1        0.0278
     26 H           2.9338   -1.1159    2.0169 H       1  LIG1        0.0278
     27 H           1.4762   -1.1622    3.0514 H       1  LIG1        0.0278
     28 H           1.1461   -1.6203    0.3892 H       1  LIG1        0.0625
     29 H          -3.0286   -1.4744   -1.6062 H       1  LIG1        0.0260
     30 H          -2.5735   -2.3715   -0.1360 H       1  LIG1        0.0260
     31 H          -2.7212   -3.1889   -1.7046 H       1  LIG1        0.0260
     32 H          -1.1343   -2.5190   -3.3779 H       1  LIG1        0.2106
     33 H          -0.1693   -3.5550   -0.1359 H       1  LIG1        0.0260
     34 H           0.9523   -3.1589   -1.4655 H       1  LIG1        0.0260
     35 H          -0.4713   -4.1212   -1.7878 H       1  LIG1        0.0260
@<TRIPOS>BOND
     1     1     2    1
     2     2     3    1
     3     3     4    1
     4     4     5   ar
     5     5     6    1
     6     6     7    1
     7     3     7    1
     8     6     8    2
     9     5     9   ar
    10     9    10   ar
    11    10    11   ar
    12    11    12    1
    13    11    13   ar
    14     4    13   ar
    15    13    14    1
    16    14    15    2
    17     2    15    1
    18    15    16    1
    19    16    17    1
    20    16    18    1
    21    16    19    1
    22     1    20    1
    23     2    21    1
    24     3    22    1
    25     9    23    1
    26    10    24    1
    27    12    25    1
    28    12    26    1
    29    12    27    1
    30    14    28    1
    31    17    29    1
    32    17    30    1
    33    17    31    1
    34    18    32    1
    35    19    33    1
    36    19    34    1
    37    19    35    1
