REMARK  Name = NuBBE_1823
REMARK  12 active torsions:
REMARK  status: ('A' for Active; 'I' for Inactive)
REMARK    1  A    between atoms: O_1  and  C_2
REMARK    2  A    between atoms: C_4  and  O_5
REMARK    3  A    between atoms: C_6  and  O_8
REMARK    4  A    between atoms: C_9  and  O_11
REMARK    5  A    between atoms: O_11  and  C_12
REMARK    6  A    between atoms: C_14  and  O_15
REMARK    7  A    between atoms: C_20  and  O_21
REMARK    8  A    between atoms: C_22  and  C_24
REMARK    9  A    between atoms: C_26  and  C_27
REMARK   10  A    between atoms: C_29  and  O_30
REMARK   11  A    between atoms: C_33  and  C_35
REMARK   12  A    between atoms: C_35  and  O_36
REMARK                            x       y       z     vdW  Elec       q    Type
REMARK                         _______ _______ _______ _____ _____    ______ ____
ROOT
ATOM      1  C   LIG A   1      -0.893   1.527  -0.076  0.00  0.00    +0.139 A 
ATOM      2  C   LIG A   1      -1.329   2.868  -0.075  0.00  0.00    +0.091 A 
ATOM      3  C   LIG A   1      -0.736   3.791  -0.924  0.00  0.00    +0.121 A 
ATOM      4  C   LIG A   1       0.261   3.416  -1.798  0.00  0.00    +0.054 A 
ATOM      5  C   LIG A   1       0.677   2.084  -1.865  0.00  0.00    -0.007 A 
ATOM      6  C   LIG A   1       1.677   1.769  -2.784  0.00  0.00    +0.015 A 
ATOM      7  C   LIG A   1       2.148   0.462  -2.937  0.00  0.00    -0.007 A 
ATOM      8  C   LIG A   1       3.214   0.195  -3.965  0.00  0.00    +0.173 C 
ATOM      9  C   LIG A   1       3.955  -1.115  -3.678  0.00  0.00    +0.149 C 
ATOM     10  C   LIG A   1       4.972  -0.997  -2.551  0.00  0.00    +0.041 C 
ATOM     11  O   LIG A   1       3.000  -2.174  -3.493  0.00  0.00    -0.366 OA
ATOM     12  C   LIG A   1       2.042  -2.009  -2.423  0.00  0.00    +0.150 C 
ATOM     13  C   LIG A   1       2.584  -2.733  -1.189  0.00  0.00    +0.043 C 
ATOM     14  C   LIG A   1       1.579  -0.577  -2.184  0.00  0.00    +0.029 A 
ATOM     15  C   LIG A   1       0.555  -0.249  -1.265  0.00  0.00    +0.134 A 
ATOM     16  C   LIG A   1       0.091   1.090  -1.036  0.00  0.00    +0.066 A 
ENDROOT
BRANCH   3  17
ATOM     17  O   LIG A   1      -1.095   5.106  -0.938  0.00  0.00    -0.507 OA
ATOM     18  H   LIG A   1      -1.751   5.270  -0.235  0.00  0.00    +0.292 HD
ENDBRANCH   3  17
BRANCH   8  19
ATOM     19  O   LIG A   1       2.567   0.119  -5.233  0.00  0.00    -0.385 OA
ATOM     20  H   LIG A   1       2.068  -0.719  -5.225  0.00  0.00    +0.210 HD
ENDBRANCH   8  19
BRANCH  15  21
ATOM     21  O   LIG A   1      -0.058  -1.298  -0.616  0.00  0.00    -0.506 OA
ATOM     22  H   LIG A   1      -0.816  -0.918  -0.135  0.00  0.00    +0.292 HD
ENDBRANCH  15  21
BRANCH   1  23
ATOM     23  O   LIG A   1      -1.399   0.581   0.815  0.00  0.00    -0.460 OA
BRANCH  23  27
ATOM     24  C   LIG A   1      -3.050  -0.989   3.827  0.00  0.00    +0.177 C 
ATOM     25  C   LIG A   1      -3.770  -0.475   2.582  0.00  0.00    +0.180 C 
ATOM     26  C   LIG A   1      -3.352   0.969   2.279  0.00  0.00    +0.214 C 
ATOM     27  C   LIG A   1      -1.823   1.074   2.114  0.00  0.00    +0.339 C 
ATOM     28  O   LIG A   1      -1.106   0.464   3.199  0.00  0.00    -0.331 OA
ATOM     29  C   LIG A   1      -1.527  -0.808   3.709  0.00  0.00    +0.179 C 
BRANCH  24  30
ATOM     30  O   LIG A   1      -3.531  -0.230   4.962  0.00  0.00    -0.387 OA
ATOM     31  H   LIG A   1      -4.454  -0.532   5.088  0.00  0.00    +0.210 HD
ENDBRANCH  24  30
BRANCH  25  32
ATOM     32  O   LIG A   1      -5.189  -0.526   2.819  0.00  0.00    -0.386 OA
ATOM     33  H   LIG A   1      -5.444   0.361   3.146  0.00  0.00    +0.210 HD
ENDBRANCH  25  32
BRANCH  26  34
ATOM     34  O   LIG A   1      -3.815   1.826   3.347  0.00  0.00    -0.383 OA
ATOM     35  H   LIG A   1      -3.448   1.457   4.184  0.00  0.00    +0.210 HD
ENDBRANCH  26  34
BRANCH  29  36
ATOM     36  C   LIG A   1      -0.835  -1.952   2.962  0.00  0.00    +0.190 C 
BRANCH  36  37
ATOM     37  O   LIG A   1      -1.232  -3.211   3.493  0.00  0.00    -0.392 OA
ATOM     38  H   LIG A   1      -0.690  -3.895   3.060  0.00  0.00    +0.209 HD
ENDBRANCH  36  37
ENDBRANCH  29  36
ENDBRANCH  23  27
ENDBRANCH   1  23
TORSDOF 10
