REMARK  Name = NuBBE_2168
REMARK  5 active torsions:
REMARK  status: ('A' for Active; 'I' for Inactive)
REMARK    1  A    between atoms: O_1  and  C_2
REMARK    2  A    between atoms: C_2  and  C_20
REMARK    3  A    between atoms: C_12  and  O_13
REMARK    4  A    between atoms: C_14  and  C_16
REMARK    5  A    between atoms: C_17  and  C_19
REMARK                            x       y       z     vdW  Elec       q    Type
REMARK                         _______ _______ _______ _____ _____    ______ ____
ROOT
ATOM      1  C   LIG A   1       0.600  -0.218  -0.557  0.00  0.00    +0.123 C 
ATOM      2  C   LIG A   1       1.125   0.661   0.575  0.00  0.00    +0.040 A 
ATOM      3  C   LIG A   1       0.919   2.042   0.567  0.00  0.00    +0.173 A 
ATOM      4  O   LIG A   1       0.277   2.741  -0.416  0.00  0.00    -0.452 OA
ATOM      5  C   LIG A   1       0.316   4.080   0.118  0.00  0.00    +0.466 C 
ATOM      6  O   LIG A   1       1.035   4.176   1.361  0.00  0.00    -0.453 OA
ATOM      7  C   LIG A   1       1.361   2.873   1.572  0.00  0.00    +0.167 A 
ATOM      8  C   LIG A   1       2.060   2.393   2.652  0.00  0.00    +0.050 A 
ATOM      9  C   LIG A   1       2.310   1.021   2.696  0.00  0.00    +0.010 A 
ATOM     10  C   LIG A   1       1.846   0.149   1.676  0.00  0.00    -0.009 A 
ATOM     11  C   LIG A   1       2.200  -1.315   1.784  0.00  0.00    +0.148 C 
ATOM     12  C   LIG A   1       1.256  -2.231   0.994  0.00  0.00    +0.025 C 
ATOM     13  C   LIG A   1      -0.056  -2.443   1.760  0.00  0.00    +0.011 C 
ATOM     14  C   LIG A   1       1.026  -1.730  -0.458  0.00  0.00    +0.032 C 
ATOM     15  C   LIG A   1       2.238  -2.071  -1.349  0.00  0.00    +0.011 C 
ENDROOT
BRANCH   1  16
ATOM     16  C   LIG A   1      -0.928  -0.133  -0.787  0.00  0.00    -0.008 A 
ATOM     17  C   LIG A   1      -1.444  -0.400  -2.075  0.00  0.00    +0.056 A 
ATOM     18  C   LIG A   1      -2.803  -0.296  -2.287  0.00  0.00    +0.167 A 
ATOM     19  C   LIG A   1      -3.667   0.041  -1.275  0.00  0.00    +0.166 A 
ATOM     20  O   LIG A   1      -4.959   0.097  -1.693  0.00  0.00    -0.453 OA
ATOM     21  C   LIG A   1      -4.805  -0.224  -3.092  0.00  0.00    +0.466 C 
ATOM     22  O   LIG A   1      -3.440  -0.495  -3.471  0.00  0.00    -0.453 OA
ATOM     23  C   LIG A   1      -3.220   0.289   0.002  0.00  0.00    +0.050 A 
ATOM     24  C   LIG A   1      -1.843   0.201   0.244  0.00  0.00    +0.010 A 
ENDBRANCH   1  16
BRANCH   1  25
ATOM     25  O   LIG A   1       1.207   0.337  -1.742  0.00  0.00    -0.379 OA
ATOM     26  H   LIG A   1       0.819   1.226  -1.849  0.00  0.00    +0.211 HD
ENDBRANCH   1  25
BRANCH  11  27
ATOM     27  O   LIG A   1       3.541  -1.509   1.339  0.00  0.00    -0.387 OA
ATOM     28  H   LIG A   1       3.844  -0.689   0.912  0.00  0.00    +0.210 HD
ENDBRANCH  11  27
TORSDOF 3
