@<TRIPOS>MOLECULE
NuBBE_567
 30 32 0 0 0
SMALL
GASTEIGER

@<TRIPOS>ATOM
      1 O          -5.1144    2.4735    0.9705 O.3     1  LIG1       -0.5033
      2 C          -3.7884    2.2192    0.7563 C.ar    1  LIG1        0.1582
      3 C          -3.1117    1.2186    1.4402 C.ar    1  LIG1       -0.0160
      4 C          -1.7527    1.0107    1.1754 C.ar    1  LIG1       -0.0508
      5 C          -3.1195    3.0064   -0.1760 C.ar    1  LIG1        0.1588
      6 O          -3.7904    3.9950   -0.8385 O.3     1  LIG1       -0.5033
      7 C          -1.7717    2.8055   -0.4446 C.ar    1  LIG1       -0.0093
      8 C          -1.0743    1.7892    0.2219 C.ar    1  LIG1       -0.0178
      9 C           0.3584    1.6213   -0.0539 C.2     1  LIG1       -0.0082
     10 C           1.0043    0.4520   -0.1588 C.2     1  LIG1        0.1761
     11 C           2.4595    0.3572   -0.4549 C.2     1  LIG1        0.2315
     12 C           2.6934   -1.0805   -0.4876 C.ar    1  LIG1        0.0678
     13 C           3.8572   -1.7890   -0.7148 C.ar    1  LIG1       -0.0438
     14 C           3.7701   -3.1838   -0.6803 C.ar    1  LIG1       -0.0193
     15 C           2.5356   -3.8087   -0.4228 C.ar    1  LIG1        0.1204
     16 O           2.4351   -5.1696   -0.3850 O.3     1  LIG1       -0.5066
     17 C           1.3699   -3.0756   -0.1961 C.ar    1  LIG1        0.0229
     18 C           1.4736   -1.7027   -0.2335 C.ar    1  LIG1        0.1430
     19 O           0.4428   -0.8143   -0.0342 O.3     1  LIG1       -0.4513
     20 O           3.2684    1.2426   -0.6258 O.2     1  LIG1       -0.2832
     21 H          -5.4382    1.8456    1.6392 H       1  LIG1        0.2923
     22 H          -3.6099    0.5989    2.1785 H       1  LIG1        0.0655
     23 H          -1.2267    0.2371    1.7308 H       1  LIG1        0.0625
     24 H          -4.7030    3.9472   -0.4903 H       1  LIG1        0.2923
     25 H          -1.2783    3.4388   -1.1769 H       1  LIG1        0.0661
     26 H           0.9169    2.5436   -0.2077 H       1  LIG1        0.0661
     27 H           4.7946   -1.2790   -0.9105 H       1  LIG1        0.0627
     28 H           4.6666   -3.7728   -0.8544 H       1  LIG1        0.0654
     29 H           3.3076   -5.5575   -0.5659 H       1  LIG1        0.2921
     30 H           0.4252   -3.5689   -0.0003 H       1  LIG1        0.0691
@<TRIPOS>BOND
     1     1     2    1
     2     2     3   ar
     3     3     4   ar
     4     2     5   ar
     5     5     6    1
     6     5     7   ar
     7     7     8   ar
     8     4     8   ar
     9     8     9    1
    10     9    10    2
    11    10    11    1
    12    11    12    1
    13    12    13   ar
    14    13    14   ar
    15    14    15   ar
    16    15    16    1
    17    15    17   ar
    18    17    18   ar
    19    12    18   ar
    20    18    19    1
    21    10    19    1
    22    11    20    2
    23     1    21    1
    24     3    22    1
    25     4    23    1
    26     6    24    1
    27     7    25    1
    28     9    26    1
    29    13    27    1
    30    14    28    1
    31    16    29    1
    32    17    30    1
