@<TRIPOS>MOLECULE
NuBBE_910
 45 46 0 0 0
SMALL
GASTEIGER

@<TRIPOS>ATOM
      1 C          -2.1806   -1.4894    0.6341 C.3     1  LIG1        0.0273
      2 C          -2.8084   -2.3774   -0.4755 C.3     1  LIG1        0.2150
      3 O          -1.9834   -3.4949   -0.7618 O.3     1  LIG1       -0.3639
      4 C          -4.1953   -2.8786    0.0568 C.2     1  LIG1        0.2666
      5 O          -4.2640   -3.8733    0.7778 O.2     1  LIG1       -0.2705
      6 N          -5.2901   -2.0740   -0.2579 N.am    1  LIG1       -0.2920
      7 C          -6.5692   -2.3281    0.3756 C.3     1  LIG1        0.0038
      8 C          -5.0894   -0.7627   -0.8794 C.3     1  LIG1        0.0909
      9 C          -3.9331   -0.7324   -1.8882 C.2     1  LIG1        0.2328
     10 O          -3.8056    0.1506   -2.7220 O.2     1  LIG1       -0.2740
     11 N          -2.9912   -1.7159   -1.7368 N.am    1  LIG1       -0.2788
     12 C          -0.8339   -0.8568    0.3398 C.ar    1  LIG1       -0.0423
     13 C          -0.6832    0.5391    0.3386 C.ar    1  LIG1       -0.0550
     14 C           0.5733    1.1281    0.1379 C.ar    1  LIG1       -0.0197
     15 C           1.6989    0.3248   -0.0302 C.ar    1  LIG1        0.1210
     16 C           1.5541   -1.0603   -0.0552 C.ar    1  LIG1       -0.0197
     17 C           0.3023   -1.6483    0.1336 C.ar    1  LIG1       -0.0550
     18 O           2.9782    0.7709   -0.2021 O.3     1  LIG1       -0.4880
     19 C           3.3069    2.0065    0.4333 C.3     1  LIG1        0.1080
     20 C           4.7681    1.9424    0.7759 C.2     1  LIG1       -0.0484
     21 C           5.7595    2.7824    0.4194 C.2     1  LIG1       -0.0765
     22 C           5.5939    3.9976   -0.4484 C.3     1  LIG1       -0.0439
     23 C           7.1710    2.5420    0.8905 C.3     1  LIG1       -0.0439
     24 H          -2.0561   -2.0894    1.5465 H       1  LIG1        0.0363
     25 H          -2.8831   -0.6926    0.9104 H       1  LIG1        0.0363
     26 H          -2.2558   -4.1955   -0.1376 H       1  LIG1        0.2125
     27 H          -6.6440   -3.3614    0.7246 H       1  LIG1        0.0429
     28 H          -7.3713   -2.1350   -0.3419 H       1  LIG1        0.0429
     29 H          -6.6727   -1.6564    1.2333 H       1  LIG1        0.0429
     30 H          -4.9120   -0.0201   -0.0966 H       1  LIG1        0.0560
     31 H          -6.0028   -0.5102   -1.4280 H       1  LIG1        0.0560
     32 H          -2.1904   -1.6748   -2.3503 H       1  LIG1        0.1519
     33 H          -1.5410    1.1878    0.5036 H       1  LIG1        0.0621
     34 H           0.6439    2.2112    0.1121 H       1  LIG1        0.0654
     35 H           2.4295   -1.6883   -0.2011 H       1  LIG1        0.0654
     36 H           0.2363   -2.7337    0.1305 H       1  LIG1        0.0621
     37 H           2.7564    2.1406    1.3729 H       1  LIG1        0.0742
     38 H           3.0600    2.8259   -0.2450 H       1  LIG1        0.0742
     39 H           5.0185    1.0890    1.4065 H       1  LIG1        0.0605
     40 H           4.5720    4.1442   -0.8029 H       1  LIG1        0.0274
     41 H           6.2346    3.9172   -1.3329 H       1  LIG1        0.0274
     42 H           5.8804    4.8965    0.1068 H       1  LIG1        0.0274
     43 H           7.2676    1.6119    1.4609 H       1  LIG1        0.0274
     44 H           7.4977    3.3640    1.5360 H       1  LIG1        0.0274
     45 H           7.8532    2.4768    0.0365 H       1  LIG1        0.0274
@<TRIPOS>BOND
     1     1     2    1
     2     2     3    1
     3     2     4    1
     4     4     5    2
     5     4     6   am
     6     6     7    1
     7     6     8    1
     8     8     9    1
     9     9    10    2
    10     9    11   am
    11     2    11    1
    12     1    12    1
    13    12    13   ar
    14    13    14   ar
    15    14    15   ar
    16    15    16   ar
    17    16    17   ar
    18    12    17   ar
    19    15    18    1
    20    18    19    1
    21    19    20    1
    22    20    21    2
    23    21    22    1
    24    21    23    1
    25     1    24    1
    26     1    25    1
    27     3    26    1
    28     7    27    1
    29     7    28    1
    30     7    29    1
    31     8    30    1
    32     8    31    1
    33    11    32    1
    34    13    33    1
    35    14    34    1
    36    16    35    1
    37    17    36    1
    38    19    37    1
    39    19    38    1
    40    20    39    1
    41    22    40    1
    42    22    41    1
    43    22    42    1
    44    23    43    1
    45    23    44    1
    46    23    45    1
