@<TRIPOS>MOLECULE
NuBBE_287
 35 37 0 0 0
SMALL
GASTEIGER

@<TRIPOS>ATOM
      1 O          -2.5900    1.1324   -0.3023 O.3     1  LIG1       -0.3875
      2 C          -1.1627    1.0212   -0.3364 C.3     1  LIG1        0.1004
      3 H          -0.8621    0.9564   -1.3901 H       1  LIG1        0.0637
      4 C          -0.6063   -0.1861    0.4448 C.3     1  LIG1        0.1513
      5 H          -0.8844   -0.1103    1.5057 H       1  LIG1        0.0811
      6 O           0.8249   -0.2540    0.3716 O.3     1  LIG1       -0.4811
      7 C           1.4883    0.9208    0.5983 C.ar    1  LIG1        0.1317
      8 C           0.8810    2.1839    0.5613 C.ar    1  LIG1        0.0384
      9 C          -0.5836    2.3016    0.2615 C.3     1  LIG1        0.0092
     10 C           1.6778    3.3067    0.8288 C.ar    1  LIG1        0.1270
     11 O           1.1849    4.5818    0.8594 O.3     1  LIG1       -0.5063
     12 C           3.0440    3.1843    1.0814 C.ar    1  LIG1        0.0218
     13 C           3.6251    1.9236    1.0794 C.ar    1  LIG1        0.1238
     14 C           2.8573    0.7928    0.8409 C.ar    1  LIG1        0.0221
     15 O           4.9574    1.7540    1.3144 O.3     1  LIG1       -0.5065
     16 C          -1.1504   -1.5028   -0.0919 C.ar    1  LIG1       -0.0012
     17 C          -0.6646   -2.0477   -1.2957 C.ar    1  LIG1       -0.0098
     18 C          -1.1846   -3.2465   -1.7717 C.ar    1  LIG1        0.1586
     19 O          -0.7360   -3.8193   -2.9299 O.3     1  LIG1       -0.5033
     20 C          -2.1885   -3.9064   -1.0701 C.ar    1  LIG1        0.1582
     21 C          -2.6827   -3.3883    0.1164 C.ar    1  LIG1       -0.0162
     22 C          -2.1625   -2.1882    0.6075 C.ar    1  LIG1       -0.0513
     23 O          -2.6950   -5.0812   -1.5472 O.3     1  LIG1       -0.5033
     24 H          -2.9277    0.6636    0.4796 H       1  LIG1        0.2100
     25 H          -0.7699    3.1205   -0.4444 H       1  LIG1        0.0342
     26 H          -1.1154    2.5560    1.1877 H       1  LIG1        0.0342
     27 H           0.2211    4.5715    0.7530 H       1  LIG1        0.2921
     28 H           3.6300    4.0766    1.2754 H       1  LIG1        0.0691
     29 H           3.3221   -0.1895    0.8490 H       1  LIG1        0.0691
     30 H           5.3610    2.6264    1.4564 H       1  LIG1        0.2921
     31 H           0.1207   -1.5314   -1.8410 H       1  LIG1        0.0659
     32 H          -0.0138   -3.2678   -3.2774 H       1  LIG1        0.2923
     33 H          -3.4636   -3.9161    0.6555 H       1  LIG1        0.0655
     34 H          -2.5533   -1.7975    1.5443 H       1  LIG1        0.0623
     35 H          -2.1982   -5.2410   -2.3744 H       1  LIG1        0.2923
@<TRIPOS>BOND
     1     1     2    1
     2     2     3    1
     3     2     4    1
     4     4     5    1
     5     4     6    1
     6     6     7    1
     7     7     8   ar
     8     8     9    1
     9     2     9    1
    10     8    10   ar
    11    10    11    1
    12    10    12   ar
    13    12    13   ar
    14    13    14   ar
    15     7    14   ar
    16    13    15    1
    17     4    16    1
    18    16    17   ar
    19    17    18   ar
    20    18    19    1
    21    18    20   ar
    22    20    21   ar
    23    21    22   ar
    24    16    22   ar
    25    20    23    1
    26     1    24    1
    27     9    25    1
    28     9    26    1
    29    11    27    1
    30    12    28    1
    31    14    29    1
    32    15    30    1
    33    17    31    1
    34    19    32    1
    35    21    33    1
    36    22    34    1
    37    23    35    1
