REMARK  Name = NuBBE_310
REMARK  18 active torsions:
REMARK  status: ('A' for Active; 'I' for Inactive)
REMARK    1  A    between atoms: C_3  and  C_4
REMARK    2  A    between atoms: C_5  and  O_6
REMARK    3  A    between atoms: O_6  and  C_7
REMARK    4  A    between atoms: C_7  and  C_8
REMARK    5  A    between atoms: C_9  and  C_10
REMARK    6  A    between atoms: C_13  and  O_14
REMARK    7  A    between atoms: C_20  and  C_21
REMARK    8  A    between atoms: C_21  and  C_22
REMARK    9  A    between atoms: C_22  and  C_23
REMARK   10  A    between atoms: C_23  and  C_24
REMARK   11  A    between atoms: C_24  and  C_25
REMARK   12  A    between atoms: C_25  and  C_26
REMARK   13  A    between atoms: C_26  and  C_27
REMARK   14  A    between atoms: C_27  and  C_28
REMARK   15  A    between atoms: C_28  and  C_29
REMARK   16  A    between atoms: C_29  and  C_30
REMARK   17  A    between atoms: C_30  and  C_31
REMARK   18  A    between atoms: C_31  and  C_32
REMARK                            x       y       z     vdW  Elec       q    Type
REMARK                         _______ _______ _______ _____ _____    ______ ____
ROOT
ATOM      1  H   LIG A   1      -0.940   4.312   0.036  0.00  0.00    +0.123 HD
ATOM      2  N   LIG A   1      -0.192   3.643  -0.149  0.00  0.00    -0.307 NA
ATOM      3  C   LIG A   1      -0.696   2.282   0.076  0.00  0.00    +0.092 C 
ATOM      4  C   LIG A   1      -0.991   2.049   1.565  0.00  0.00    +0.028 C 
ATOM      5  C   LIG A   1      -1.851   1.897  -0.861  0.00  0.00    +0.193 C 
ATOM      6  C   LIG A   1      -1.616   2.291  -2.330  0.00  0.00    +0.048 C 
ATOM      7  C   LIG A   1      -0.891   3.612  -2.511  0.00  0.00    +0.022 C 
ATOM      8  C   LIG A   1       0.289   3.819  -1.534  0.00  0.00    +0.054 C 
ENDROOT
BRANCH   8   9
ATOM      9  C   LIG A   1       1.561   2.985  -1.911  0.00  0.00    +0.019 C 
BRANCH   9  10
ATOM     10  C   LIG A   1       2.779   3.219  -0.993  0.00  0.00    +0.002 C 
BRANCH  10  11
ATOM     11  C   LIG A   1       4.024   2.358  -1.285  0.00  0.00    +0.000 C 
BRANCH  11  12
ATOM     12  C   LIG A   1       3.912   0.825  -1.206  0.00  0.00    -0.000 C 
BRANCH  12  13
ATOM     13  C   LIG A   1       3.531   0.166   0.143  0.00  0.00    -0.000 C 
BRANCH  13  14
ATOM     14  C   LIG A   1       2.145   0.486   0.703  0.00  0.00    -0.000 C 
BRANCH  14  15
ATOM     15  C   LIG A   1       1.731  -0.125   2.038  0.00  0.00    +0.000 C 
BRANCH  15  16
ATOM     16  C   LIG A   1       1.625  -1.636   2.015  0.00  0.00    +0.000 C 
BRANCH  16  17
ATOM     17  C   LIG A   1       1.102  -2.289   3.301  0.00  0.00    +0.007 C 
BRANCH  17  18
ATOM     18  C   LIG A   1       1.981  -2.096   4.535  0.00  0.00    +0.074 C 
BRANCH  18  19
ATOM     19  C   LIG A   1       2.082  -0.661   5.017  0.00  0.00    +0.130 C 
ATOM     20  C   LIG A   1       3.461  -0.034   5.054  0.00  0.00    +0.086 C 
ATOM     21  O   LIG A   1       1.076  -0.016   5.320  0.00  0.00    -0.298 OA
ENDBRANCH  18  19
ENDBRANCH  17  18
ENDBRANCH  16  17
ENDBRANCH  15  16
ENDBRANCH  14  15
ENDBRANCH  13  14
ENDBRANCH  12  13
ENDBRANCH  11  12
ENDBRANCH  10  11
ENDBRANCH   9  10
ENDBRANCH   8   9
BRANCH   5  22
ATOM     22  O   LIG A   1      -2.151   0.491  -0.793  0.00  0.00    -0.457 OA
BRANCH  22  23
ATOM     23  C   LIG A   1      -1.287  -0.370  -1.430  0.00  0.00    +0.332 C 
ATOM     24  O   LIG A   1      -0.163  -0.189  -1.785  0.00  0.00    -0.246 OA
BRANCH  23  25
ATOM     25  C   LIG A   1      -2.062  -1.531  -1.886  0.00  0.00    +0.092 C 
ATOM     26  C   LIG A   1      -3.110  -1.964  -1.198  0.00  0.00    +0.015 C 
BRANCH  26  27
ATOM     27  C   LIG A   1      -3.957  -3.048  -1.678  0.00  0.00    -0.025 A 
ATOM     28  C   LIG A   1      -4.229  -3.212  -3.043  0.00  0.00    +0.011 A 
ATOM     29  C   LIG A   1      -5.039  -4.259  -3.470  0.00  0.00    +0.046 A 
ATOM     30  C   LIG A   1      -5.584  -5.120  -2.525  0.00  0.00    +0.117 A 
ATOM     31  C   LIG A   1      -5.350  -4.943  -1.166  0.00  0.00    +0.046 A 
ATOM     32  C   LIG A   1      -4.537  -3.900  -0.739  0.00  0.00    +0.011 A 
BRANCH  30  33
ATOM     33  O   LIG A   1      -6.365  -6.170  -2.901  0.00  0.00    -0.507 OA
ATOM     34  H   LIG A   1      -6.373  -6.207  -3.872  0.00  0.00    +0.292 HD
ENDBRANCH  30  33
ENDBRANCH  26  27
ENDBRANCH  23  25
ENDBRANCH  22  23
ENDBRANCH   5  22
TORSDOF 16
