REMARK  Name = NuBBE_2332
REMARK  19 active torsions:
REMARK  status: ('A' for Active; 'I' for Inactive)
REMARK    1  A    between atoms: C_1  and  O_2
REMARK    2  A    between atoms: O_2  and  C_3
REMARK    3  A    between atoms: C_3  and  C_4
REMARK    4  A    between atoms: C_4  and  C_5
REMARK    5  A    between atoms: C_6  and  C_7
REMARK    6  A    between atoms: C_7  and  C_8
REMARK    7  A    between atoms: C_8  and  C_9
REMARK    8  A    between atoms: C_9  and  C_10
REMARK    9  A    between atoms: C_11  and  C_12
REMARK   10  A    between atoms: C_12  and  C_13
REMARK   11  A    between atoms: C_13  and  C_14
REMARK   12  A    between atoms: C_14  and  C_15
REMARK   13  A    between atoms: C_16  and  C_17
REMARK   14  A    between atoms: C_17  and  C_18
REMARK   15  A    between atoms: C_18  and  C_19
REMARK   16  A    between atoms: C_19  and  C_20
REMARK   17  A    between atoms: C_21  and  C_22
REMARK   18  A    between atoms: C_22  and  O_23
REMARK   19  A    between atoms: O_23  and  C_24
REMARK                            x       y       z     vdW  Elec       q    Type
REMARK                         _______ _______ _______ _____ _____    ______ ____
ROOT
ATOM      1  C   LIG A   1       2.717  -0.438  -1.117  0.00  0.00    +0.031 C 
ENDROOT
BRANCH   1   4
ATOM      2  C   LIG A   1       3.026  -1.451  -3.464  0.00  0.00    -0.076 C 
ATOM      3  C   LIG A   1       3.042  -0.145  -4.216  0.00  0.00    +0.038 C 
ATOM      4  C   LIG A   1       2.935  -1.534  -2.124  0.00  0.00    -0.027 C 
BRANCH   2   5
ATOM      5  C   LIG A   1       3.113  -2.693  -4.348  0.00  0.00    +0.034 C 
BRANCH   5   6
ATOM      6  C   LIG A   1       2.436  -3.996  -3.856  0.00  0.00    +0.032 C 
BRANCH   6   9
ATOM      7  C   LIG A   1       0.304  -4.038  -2.444  0.00  0.00    +0.030 C 
ATOM      8  C   LIG A   1       0.975  -4.381  -1.145  0.00  0.00    +0.051 C 
ATOM      9  C   LIG A   1       0.946  -3.879  -3.623  0.00  0.00    -0.016 C 
BRANCH   7  10
ATOM     10  C   LIG A   1      -1.166  -3.788  -2.403  0.00  0.00    +0.334 C 
ATOM     11  O   LIG A   1      -1.916  -3.789  -3.382  0.00  0.00    -0.245 OA
BRANCH  10  13
ATOM     12  C   LIG A   1      -2.891  -3.177  -0.903  0.00  0.00    +0.280 C 
ATOM     13  O   LIG A   1      -1.528  -3.528  -1.125  0.00  0.00    -0.465 OA
ENDBRANCH  10  13
ENDBRANCH   7  10
ENDBRANCH   6   9
ENDBRANCH   5   6
ENDBRANCH   2   5
ENDBRANCH   1   4
BRANCH   1  14
ATOM     14  C   LIG A   1       1.223  -0.248  -0.767  0.00  0.00    +0.034 C 
BRANCH  14  15
ATOM     15  C   LIG A   1       0.911   0.842   0.263  0.00  0.00    -0.076 C 
ATOM     16  C   LIG A   1       1.925   1.018   1.363  0.00  0.00    +0.038 C 
ATOM     17  C   LIG A   1      -0.242   1.548   0.192  0.00  0.00    -0.027 C 
BRANCH  17  18
ATOM     18  C   LIG A   1      -0.763   2.587   1.167  0.00  0.00    +0.031 C 
BRANCH  18  19
ATOM     19  C   LIG A   1      -2.159   2.236   1.720  0.00  0.00    +0.035 C 
BRANCH  19  20
ATOM     20  C   LIG A   1      -2.701   3.244   2.705  0.00  0.00    -0.066 C 
ATOM     21  C   LIG A   1      -3.482   4.400   2.112  0.00  0.00    +0.039 C 
ATOM     22  C   LIG A   1      -2.472   3.130   4.038  0.00  0.00    +0.090 C 
BRANCH  22  23
ATOM     23  C   LIG A   1      -2.907   4.078   5.107  0.00  0.00    +0.332 C 
ATOM     24  O   LIG A   1      -3.588   5.085   4.986  0.00  0.00    -0.246 OA
BRANCH  23  25
ATOM     25  O   LIG A   1      -2.341   3.610   6.251  0.00  0.00    -0.465 OA
ATOM     26  C   LIG A   1      -2.259   4.556   7.325  0.00  0.00    +0.280 C 
ENDBRANCH  23  25
ENDBRANCH  22  23
ENDBRANCH  19  20
ENDBRANCH  18  19
ENDBRANCH  17  18
ENDBRANCH  14  15
ENDBRANCH   1  14
TORSDOF 13
