REMARK  Name = NuBBE_471
REMARK  15 active torsions:
REMARK  status: ('A' for Active; 'I' for Inactive)
REMARK    1  A    between atoms: C_4  and  C_5
REMARK    2  A    between atoms: C_12  and  O_13
REMARK    3  A    between atoms: C_16  and  C_24
REMARK    4  A    between atoms: C_18  and  C_23
REMARK    5  A    between atoms: C_28  and  C_29
REMARK    6  A    between atoms: C_30  and  C_31
REMARK    7  A    between atoms: C_31  and  C_33
REMARK    8  A    between atoms: C_31  and  C_34
REMARK    9  A    between atoms: C_34  and  O_36
REMARK   10  A    between atoms: C_34  and  C_49
REMARK   11  A    between atoms: O_36  and  C_37
REMARK   12  A    between atoms: C_37  and  C_38
REMARK   13  A    between atoms: C_38  and  O_39
REMARK   14  A    between atoms: C_38  and  C_41
REMARK   15  A    between atoms: O_39  and  C_40
REMARK                            x       y       z     vdW  Elec       q    Type
REMARK                         _______ _______ _______ _____ _____    ______ ____
ROOT
ATOM      1 CL   LIG A   1       1.177   1.673  -5.391  0.00  0.00    -0.079 Cl
ATOM      2  C   LIG A   1      -0.146   1.530  -4.284  0.00  0.00    +0.094 C 
ATOM      3  C   LIG A   1      -1.490   1.246  -4.915  0.00  0.00    +0.207 C 
ATOM      4  C   LIG A   1      -2.581   0.733  -3.962  0.00  0.00    +0.141 C 
ATOM      5  C   LIG A   1      -2.317  -0.756  -3.672  0.00  0.00    +0.051 C 
ATOM      6  C   LIG A   1      -2.539   1.675  -2.764  0.00  0.00    +0.081 C 
ATOM      7  C   LIG A   1      -1.218   1.523  -2.064  0.00  0.00    +0.003 C 
ATOM      8  C   LIG A   1      -1.021   1.347  -0.748  0.00  0.00    +0.200 C 
ATOM      9  O   LIG A   1       0.227   1.278  -0.156  0.00  0.00    -0.463 OA
ATOM     10  O   LIG A   1      -3.924   0.844  -4.431  0.00  0.00    -0.333 OA
ATOM     11  C   LIG A   1      -4.775   1.104  -3.307  0.00  0.00    +0.188 C 
ATOM     12  C   LIG A   1      -3.897   1.447  -2.101  0.00  0.00    +0.168 C 
ATOM     13  C   LIG A   1      -5.825   2.148  -3.685  0.00  0.00    +0.086 C 
ATOM     14  C   LIG A   1      -6.501   2.657  -2.415  0.00  0.00    +0.181 C 
ATOM     15  O   LIG A   1      -5.528   3.213  -1.516  0.00  0.00    -0.461 OA
ATOM     16  C   LIG A   1      -4.316   2.663  -1.307  0.00  0.00    +0.316 C 
ATOM     17  O   LIG A   1      -3.565   3.155  -0.469  0.00  0.00    -0.250 OA
ATOM     18  C   LIG A   1      -7.349   1.640  -1.659  0.00  0.00    +0.052 C 
ATOM     19  C   LIG A   1      -5.231   3.324  -4.481  0.00  0.00    +0.016 C 
ATOM     20  O   LIG A   1      -1.690   1.407  -6.118  0.00  0.00    -0.288 OA
ATOM     21  C   LIG A   1      -0.021   1.598  -2.936  0.00  0.00    +0.007 C 
ATOM     22  C   LIG A   1       1.271   1.756  -2.264  0.00  0.00    +0.056 C 
ATOM     23  C   LIG A   1       1.349   1.571  -0.933  0.00  0.00    +0.128 C 
ENDROOT
BRANCH  11  24
ATOM     24  O   LIG A   1      -5.427  -0.132  -3.037  0.00  0.00    -0.363 OA
ATOM     25  H   LIG A   1      -5.797  -0.416  -3.893  0.00  0.00    +0.213 HD
ENDBRANCH  11  24
BRANCH  23  26
ATOM     26  C   LIG A   1       2.603   1.669  -0.207  0.00  0.00    +0.042 C 
ATOM     27  C   LIG A   1       2.840   1.051   0.960  0.00  0.00    -0.017 C 
BRANCH  27  28
ATOM     28  C   LIG A   1       4.150   1.053   1.722  0.00  0.00    +0.049 C 
ATOM     29  C   LIG A   1       3.898   1.627   3.121  0.00  0.00    +0.015 C 
BRANCH  28  30
ATOM     30  C   LIG A   1       4.757  -0.380   1.761  0.00  0.00    +0.180 C 
ATOM     31  C   LIG A   1       6.103  -0.424   2.486  0.00  0.00    +0.052 C 
BRANCH  30  32
ATOM     32  O   LIG A   1       3.839  -1.266   2.445  0.00  0.00    -0.459 OA
BRANCH  32  33
ATOM     33  C   LIG A   1       3.941  -2.613   2.153  0.00  0.00    +0.341 C 
ATOM     34  O   LIG A   1       4.759  -3.104   1.392  0.00  0.00    -0.247 OA
BRANCH  33  35
ATOM     35  C   LIG A   1       2.851  -3.401   2.932  0.00  0.00    +0.256 C 
BRANCH  35  36
ATOM     36  C   LIG A   1       3.360  -3.839   4.301  0.00  0.00    -0.008 A 
ATOM     37  C   LIG A   1       3.605  -5.193   4.582  0.00  0.00    +0.007 A 
ATOM     38  C   LIG A   1       4.035  -5.589   5.852  0.00  0.00    +0.000 A 
ATOM     39  C   LIG A   1       4.234  -4.641   6.853  0.00  0.00    +0.000 A 
ATOM     40  C   LIG A   1       3.996  -3.294   6.590  0.00  0.00    +0.000 A 
ATOM     41  C   LIG A   1       3.558  -2.896   5.325  0.00  0.00    +0.007 A 
ENDBRANCH  35  36
BRANCH  35  42
ATOM     42  O   LIG A   1       1.572  -2.805   3.156  0.00  0.00    -0.364 OA
ATOM     43  C   LIG A   1       0.932  -2.354   1.975  0.00  0.00    +0.195 C 
ENDBRANCH  35  42
ENDBRANCH  33  35
ENDBRANCH  32  33
ENDBRANCH  30  32
ENDBRANCH  28  30
ENDBRANCH  27  28
ENDBRANCH  23  26
TORSDOF 9
