@<TRIPOS>MOLECULE
NuBBE_1409
 31 30 0 0 0
SMALL
GASTEIGER

@<TRIPOS>ATOM
      1 C          -4.2601    1.7215   -0.3243 C.3     1  LIG1       -0.0440
      2 C          -2.7553    1.8048   -0.2502 C.2     1  LIG1       -0.0796
      3 C          -2.1754    2.9980   -0.9585 C.3     1  LIG1       -0.0440
      4 C          -2.0494    0.8665    0.4055 C.2     1  LIG1       -0.0853
      5 C          -0.5585    0.7845    0.5996 C.3     1  LIG1       -0.0343
      6 C           0.0105   -0.5173    0.0181 C.3     1  LIG1       -0.0469
      7 C           1.5437   -0.6636    0.1787 C.3     1  LIG1       -0.0415
      8 C           1.9626   -0.6461    1.6521 C.3     1  LIG1       -0.0623
      9 C           2.0088   -1.9585   -0.5245 C.3     1  LIG1       -0.0271
     10 C           3.5094   -2.2291   -0.4355 C.3     1  LIG1        0.0444
     11 O           3.8249   -3.4267   -1.1368 O.3     1  LIG1       -0.3950
     12 H          -4.5843    1.6579   -1.3680 H       1  LIG1        0.0274
     13 H          -4.7128    2.6099    0.1278 H       1  LIG1        0.0274
     14 H          -4.6547    0.8445    0.1997 H       1  LIG1        0.0274
     15 H          -2.4668    2.9877   -2.0129 H       1  LIG1        0.0274
     16 H          -1.0856    3.0419   -0.9245 H       1  LIG1        0.0274
     17 H          -2.5528    3.9223   -0.5054 H       1  LIG1        0.0274
     18 H          -2.5991    0.0571    0.8903 H       1  LIG1        0.0571
     19 H          -0.3780    0.8318    1.6791 H       1  LIG1        0.0307
     20 H          -0.0329    1.6349    0.1583 H       1  LIG1        0.0307
     21 H          -0.2376   -0.5598   -1.0513 H       1  LIG1        0.0271
     22 H          -0.4888   -1.3757    0.4871 H       1  LIG1        0.0271
     23 H           2.0225    0.1884   -0.3213 H       1  LIG1        0.0299
     24 H           1.5425   -1.5017    2.1911 H       1  LIG1        0.0232
     25 H           1.6398    0.2687    2.1558 H       1  LIG1        0.0232
     26 H           3.0511   -0.6759    1.7559 H       1  LIG1        0.0232
     27 H           1.7276   -1.9180   -1.5856 H       1  LIG1        0.0290
     28 H           1.4687   -2.8221   -0.1152 H       1  LIG1        0.0290
     29 H           3.8435   -2.3575    0.5976 H       1  LIG1        0.0557
     30 H           4.0823   -1.4134   -0.8862 H       1  LIG1        0.0557
     31 H           3.3540   -4.1551   -0.6964 H       1  LIG1        0.2094
@<TRIPOS>BOND
     1     1     2    1
     2     2     3    1
     3     2     4    2
     4     4     5    1
     5     5     6    1
     6     6     7    1
     7     7     8    1
     8     7     9    1
     9     9    10    1
    10    10    11    1
    11     1    12    1
    12     1    13    1
    13     1    14    1
    14     3    15    1
    15     3    16    1
    16     3    17    1
    17     4    18    1
    18     5    19    1
    19     5    20    1
    20     6    21    1
    21     6    22    1
    22     7    23    1
    23     8    24    1
    24     8    25    1
    25     8    26    1
    26     9    27    1
    27     9    28    1
    28    10    29    1
    29    10    30    1
    30    11    31    1
