@<TRIPOS>MOLECULE
NuBBE_58
 86 89 0 0 0
SMALL
GASTEIGER

@<TRIPOS>ATOM
      1 C           4.0601    0.8697    6.0697 C.3     1  LIG1        0.0333
      2 C           3.3041    0.8540    4.7692 C.2     1  LIG1        0.3045
      3 O           2.0362    0.3866    4.9309 O.3     1  LIG1       -0.4573
      4 C           1.1451    0.1684    3.7963 C.3     1  LIG1        0.1220
      5 H           0.1844   -0.0788    4.2584 H       1  LIG1        0.0779
      6 C           1.6098   -0.9987    3.0079 C.2     1  LIG1       -0.0380
      7 C           1.2703   -1.0326    1.7139 C.2     1  LIG1        0.0134
      8 C           2.3049   -1.3631    0.6533 C.3     1  LIG1        0.2315
      9 H           2.4291   -2.4437    0.5363 H       1  LIG1        0.1111
     10 O           3.5393   -0.6717    0.8485 O.3     1  LIG1       -0.4311
     11 C           4.5975   -1.4964    1.0428 C.2     1  LIG1        0.3063
     12 C           5.8717   -0.8697    0.5566 C.3     1  LIG1        0.0333
     13 O           4.5339   -2.6271    1.4898 O.2     1  LIG1       -0.2511
     14 O           1.7341   -0.8337   -0.5474 O.3     1  LIG1       -0.2971
     15 C           0.3315   -0.9657   -0.3489 C.3     1  LIG1        0.2214
     16 H          -0.2080   -0.4902   -1.1734 H       1  LIG1        0.1068
     17 O           0.0190   -2.4065   -0.3075 O.3     1  LIG1       -0.4341
     18 C           0.1096   -3.1520   -1.4331 C.2     1  LIG1        0.3061
     19 C          -0.1443   -4.6068   -1.1438 C.3     1  LIG1        0.0333
     20 O           0.3783   -2.7123   -2.5531 O.2     1  LIG1       -0.2511
     21 C           0.0380   -0.3310    1.0791 C.3     1  LIG1        0.1002
     22 C          -1.4111   -0.7745    1.5525 C.3     1  LIG1        0.1191
     23 H          -1.3059   -1.6803    2.1642 H       1  LIG1        0.0745
     24 O          -2.2101   -1.1356    0.4012 O.3     1  LIG1       -0.4572
     25 C          -2.9855   -2.2837    0.4528 C.2     1  LIG1        0.3322
     26 C          -2.9827   -2.9199   -0.8942 C.2     1  LIG1        0.0231
     27 C          -2.6940   -2.2094   -1.9951 C.2     1  LIG1       -0.0478
     28 C          -2.6723   -2.7431   -3.3571 C.ar    1  LIG1       -0.0248
     29 C          -1.8594   -2.1566   -4.3395 C.ar    1  LIG1       -0.0546
     30 C          -1.8226   -2.6863   -5.6292 C.ar    1  LIG1       -0.0612
     31 C          -2.6481   -3.7584   -5.9596 C.ar    1  LIG1       -0.0617
     32 C          -3.5004   -4.3054   -5.0040 C.ar    1  LIG1       -0.0612
     33 C          -3.4972   -3.8121   -3.7049 C.ar    1  LIG1       -0.0546
     34 O          -3.4971   -2.7905    1.4076 O.2     1  LIG1       -0.2456
     35 C          -2.1894    0.2480    2.3893 C.3     1  LIG1       -0.0115
     36 C          -2.0765    1.7686    2.0911 C.3     1  LIG1       -0.0345
     37 H          -1.8337    2.1279    3.1060 H       1  LIG1        0.0305
     38 C          -3.4384    2.4625    1.9042 C.3     1  LIG1       -0.0618
     39 C          -0.8558    2.2690    1.2067 C.3     1  LIG1       -0.0219
     40 C          -0.4962    3.6857    1.7949 C.3     1  LIG1       -0.0587
     41 C          -1.1180    2.5936   -0.3449 C.3     1  LIG1       -0.0283
     42 C           0.0849    3.0004   -1.2355 C.2     1  LIG1       -0.0806
     43 C           0.0685    3.4740   -2.5077 C.2     1  LIG1       -0.0549
     44 C          -1.1348    3.9666   -3.2699 C.3     1  LIG1       -0.0400
     45 C           1.2853    3.5226   -3.3280 C.2     1  LIG1       -0.0662
     46 C           1.6608    4.6208   -3.9988 C.2     1  LIG1       -0.0985
     47 C           0.3208    1.2078    1.4158 C.3     1  LIG1       -0.0127
     48 H           1.1147    1.5075    0.7248 H       1  LIG1        0.0319
     49 C           0.9677    1.4006    2.8731 C.3     1  LIG1       -0.0075
     50 O           3.8046    1.2395    3.7248 O.2     1  LIG1       -0.2511
     51 H           4.0185    1.8686    6.5094 H       1  LIG1        0.0342
     52 H           5.1033    0.6023    5.8709 H       1  LIG1        0.0342
     53 H           3.6646    0.1351    6.7760 H       1  LIG1        0.0342
     54 H           2.4922   -1.5279    3.3548 H       1  LIG1        0.0610
     55 H           5.7200   -0.4556   -0.4444 H       1  LIG1        0.0342
     56 H           6.6307   -1.6542    0.4709 H       1  LIG1        0.0342
     57 H           6.2247   -0.1025    1.2469 H       1  LIG1        0.0342
     58 H          -0.6706   -4.7308   -0.1904 H       1  LIG1        0.0342
     59 H           0.8078   -5.1348   -1.0992 H       1  LIG1        0.0342
     60 H          -0.7816   -5.0541   -1.9182 H       1  LIG1        0.0342
     61 H          -3.1900   -3.9869   -0.9029 H       1  LIG1        0.0689
     62 H          -2.4119   -1.1639   -1.9115 H       1  LIG1        0.0626
     63 H          -1.2026   -1.3195   -4.1020 H       1  LIG1        0.0623
     64 H          -1.1410   -2.2703   -6.3670 H       1  LIG1        0.0618
     65 H          -2.6265   -4.1727   -6.9625 H       1  LIG1        0.0618
     66 H          -4.1693   -5.1208   -5.2580 H       1  LIG1        0.0618
     67 H          -4.1546   -4.2672   -2.9707 H       1  LIG1        0.0623
     68 H          -1.8170    0.1206    3.4149 H       1  LIG1        0.0304
     69 H          -3.2463   -0.0429    2.4546 H       1  LIG1        0.0304
     70 H          -3.8000    2.4424    0.8756 H       1  LIG1        0.0233
     71 H          -3.3872    3.5089    2.2342 H       1  LIG1        0.0233
     72 H          -4.2032    1.9980    2.5430 H       1  LIG1        0.0233
     73 H          -0.5100    3.7252    2.8904 H       1  LIG1        0.0235
     74 H          -1.2364    4.4371    1.4927 H       1  LIG1        0.0235
     75 H           0.4905    4.0194    1.4669 H       1  LIG1        0.0235
     76 H          -1.5588    1.7112   -0.8135 H       1  LIG1        0.0313
     77 H          -1.8562    3.4067   -0.4072 H       1  LIG1        0.0313
     78 H           1.0739    2.8622   -0.7986 H       1  LIG1        0.0575
     79 H          -2.0429    3.9915   -2.6702 H       1  LIG1        0.0277
     80 H          -1.3030    3.3607   -4.1678 H       1  LIG1        0.0277
     81 H          -0.9693    4.9991   -3.6068 H       1  LIG1        0.0277
     82 H           1.8287    2.5893   -3.4912 H       1  LIG1        0.0614
     83 H           1.1106    5.5495   -3.8900 H       1  LIG1        0.0535
     84 H           2.5085    4.6289   -4.6752 H       1  LIG1        0.0535
     85 H           0.4488    2.1343    3.4874 H       1  LIG1        0.0307
     86 H           1.9331    1.8750    2.6732 H       1  LIG1        0.0307
@<TRIPOS>BOND
     1     1     2    1
     2     2     3    1
     3     4     6    1
     4     6     7    2
     5     7     8    1
     6    10    11    1
     7    11    12    1
     8    11    13    2
     9     8    14    1
    10    14    15    1
    11    17    18    1
    12    18    19    1
    13    18    20    2
    14     7    21    1
    15    15    21    1
    16    21    22    1
    17    24    25    1
    18    25    26    1
    19    26    27    2
    20    27    28    1
    21    28    29   ar
    22    29    30   ar
    23    30    31   ar
    24    31    32   ar
    25    32    33   ar
    26    28    33   ar
    27    25    34    2
    28    22    35    1
    29    35    36    1
    30    36    39    1
    31    41    42    1
    32    42    43    2
    33    43    44    1
    34    43    45    1
    35    45    46    2
    36    21    47    1
    37    39    47    1
    38    47    49    1
    39     4    49    1
    40     2    50    2
    41     3     4    1
    42     4     5    1
    43    22    23    1
    44    22    24    1
    45    47    48    1
    46     8    10    1
    47     8     9    1
    48    15    17    1
    49    15    16    1
    50    36    38    1
    51    36    37    1
    52    39    41    1
    53    39    40    1
    54     1    51    1
    55     1    52    1
    56     1    53    1
    57     6    54    1
    58    12    55    1
    59    12    56    1
    60    12    57    1
    61    19    58    1
    62    19    59    1
    63    19    60    1
    64    26    61    1
    65    27    62    1
    66    29    63    1
    67    30    64    1
    68    31    65    1
    69    32    66    1
    70    33    67    1
    71    35    68    1
    72    35    69    1
    73    38    70    1
    74    38    71    1
    75    38    72    1
    76    40    73    1
    77    40    74    1
    78    40    75    1
    79    41    76    1
    80    41    77    1
    81    42    78    1
    82    44    79    1
    83    44    80    1
    84    44    81    1
    85    45    82    1
    86    46    83    1
    87    46    84    1
    88    49    85    1
    89    49    86    1
