@<TRIPOS>MOLECULE
NuBBE_2237
 50 53 0 0 0
SMALL
GASTEIGER

@<TRIPOS>ATOM
      1 C          -1.6744    1.8276    0.6806 C.3     1  LIG1       -0.0556
      2 C          -0.2353    1.2815    0.4365 C.3     1  LIG1       -0.0072
      3 C           0.2398    0.4590    1.7083 C.3     1  LIG1       -0.0267
      4 C          -0.5849   -0.8305    1.8918 C.3     1  LIG1       -0.0481
      5 C          -0.6344   -1.7312    0.6751 C.3     1  LIG1       -0.0430
      6 C          -0.9785   -1.0252   -0.6426 C.3     1  LIG1       -0.0035
      7 C          -2.4818   -0.9303   -0.9402 C.3     1  LIG1       -0.0223
      8 C          -0.3257    0.3611   -0.8126 C.2     1  LIG1       -0.0608
      9 C           0.1014    0.6785   -2.0536 C.2     1  LIG1       -0.0831
     10 C          -0.1113   -0.2245   -3.2446 C.3     1  LIG1       -0.0279
     11 C          -1.1514   -1.4281   -3.0673 C.3     1  LIG1       -0.0159
     12 H          -1.8384   -0.8125   -3.6693 H       1  LIG1        0.0349
     13 C          -0.5298   -1.9836   -1.7882 C.3     1  LIG1       -0.0365
     14 C          -2.5264   -1.5864   -2.2962 C.2     1  LIG1       -0.0724
     15 C          -3.4975   -2.4042   -2.6889 C.2     1  LIG1       -0.0991
     16 H          -0.0411    1.0638    2.5858 H       1  LIG1        0.0314
     17 C           1.8127    0.3113    1.8048 C.3     1  LIG1       -0.0313
     18 C           2.3381   -0.4144    3.0669 C.3     1  LIG1       -0.0595
     19 C           2.4571   -0.4317    0.6147 C.3     1  LIG1       -0.0595
     20 C           2.3373    1.7643    1.9018 C.3     1  LIG1       -0.0476
     21 C           2.1046    2.5263    0.6129 C.3     1  LIG1       -0.0518
     22 C           0.6227    2.5919    0.2633 C.3     1  LIG1       -0.0436
     23 H          -2.4074    1.0467    0.8908 H       1  LIG1        0.0238
     24 H          -2.0290    2.3917   -0.1919 H       1  LIG1        0.0238
     25 H          -1.6996    2.5080    1.5402 H       1  LIG1        0.0238
     26 H          -1.6147   -0.5616    2.1583 H       1  LIG1        0.0269
     27 H          -0.2247   -1.4075    2.7489 H       1  LIG1        0.0269
     28 H          -1.3581   -2.5361    0.8636 H       1  LIG1        0.0274
     29 H           0.3294   -2.2420    0.5825 H       1  LIG1        0.0274
     30 H          -2.8546    0.0923   -1.0472 H       1  LIG1        0.0318
     31 H          -3.1032   -1.4546   -0.2072 H       1  LIG1        0.0318
     32 H           0.6149    1.6084   -2.2721 H       1  LIG1        0.0572
     33 H           0.8588   -0.6607   -3.5342 H       1  LIG1        0.0313
     34 H          -0.3820    0.3907   -4.1148 H       1  LIG1        0.0313
     35 H           0.5676   -2.0534   -1.8403 H       1  LIG1        0.0280
     36 H          -0.8326   -3.0284   -1.5968 H       1  LIG1        0.0280
     37 H          -3.4352   -2.9627   -3.6269 H       1  LIG1        0.0534
     38 H          -4.3817   -2.5913   -2.0733 H       1  LIG1        0.0534
     39 H           2.2744    0.2078    3.9647 H       1  LIG1        0.0235
     40 H           3.4041   -0.6569    2.9364 H       1  LIG1        0.0235
     41 H           1.8341   -1.3636    3.2582 H       1  LIG1        0.0235
     42 H           2.0491   -0.1538   -0.3530 H       1  LIG1        0.0235
     43 H           2.3533   -1.5159    0.7162 H       1  LIG1        0.0235
     44 H           3.5307   -0.2179    0.5573 H       1  LIG1        0.0235
     45 H           3.3991    1.7915    2.1710 H       1  LIG1        0.0271
     46 H           1.8143    2.2863    2.7196 H       1  LIG1        0.0271
     47 H           2.6827    2.0868   -0.2047 H       1  LIG1        0.0266
     48 H           2.4841    3.5486    0.7384 H       1  LIG1        0.0266
     49 H           0.5176    3.0151   -0.7417 H       1  LIG1        0.0274
     50 H           0.2059    3.3699    0.9188 H       1  LIG1        0.0274
@<TRIPOS>BOND
     1     2     3    1
     2     3     4    1
     3     4     5    1
     4     5     6    1
     5     6     7    1
     6     6     8    1
     7     2     8    1
     8     8     9    2
     9     9    10    1
    10    10    11    1
    11    11    13    1
    12     6    13    1
    13    11    14    1
    14     7    14    1
    15     3    17    1
    16    17    20    1
    17    20    21    1
    18    21    22    1
    19     2    22    1
    20     1     2    1
    21     3    16    1
    22    11    12    1
    23    14    15    2
    24    17    18    1
    25    17    19    1
    26     1    23    1
    27     1    24    1
    28     1    25    1
    29     4    26    1
    30     4    27    1
    31     5    28    1
    32     5    29    1
    33     7    30    1
    34     7    31    1
    35     9    32    1
    36    10    33    1
    37    10    34    1
    38    13    35    1
    39    13    36    1
    40    15    37    1
    41    15    38    1
    42    18    39    1
    43    18    40    1
    44    18    41    1
    45    19    42    1
    46    19    43    1
    47    19    44    1
    48    20    45    1
    49    20    46    1
    50    21    47    1
    51    21    48    1
    52    22    49    1
    53    22    50    1
