REMARK  Name = NuBBE_1973
REMARK  0 active torsions:
REMARK  status: ('A' for Active; 'I' for Inactive)
REMARK                            x       y       z     vdW  Elec       q    Type
REMARK                         _______ _______ _______ _____ _____    ______ ____
ROOT
ATOM      1  C   LIG A   1       0.689  -0.251  -0.048  0.00  0.00    -0.008 C 
ATOM      2  C   LIG A   1       0.776   1.084  -0.099  0.00  0.00    +0.049 C 
ATOM      3  S   LIG A   1      -0.679   2.006   0.047  0.00  0.00    -0.065 S 
ATOM      4  S   LIG A   1      -1.911   0.375  -0.120  0.00  0.00    -0.085 S 
ATOM      5  C   LIG A   1      -0.646  -0.904   0.104  0.00  0.00    +0.109 C 
ENDROOT
TORSDOF 0
