REMARK  Name = NuBBE_1674
REMARK  6 active torsions:
REMARK  status: ('A' for Active; 'I' for Inactive)
REMARK    1  A    between atoms: C_1  and  O_3
REMARK    2  A    between atoms: C_1  and  C_5
REMARK    3  A    between atoms: O_3  and  C_4
REMARK    4  A    between atoms: C_14  and  C_16
REMARK    5  A    between atoms: C_16  and  C_18
REMARK    6  A    between atoms: C_16  and  O_19
REMARK                            x       y       z     vdW  Elec       q    Type
REMARK                         _______ _______ _______ _____ _____    ______ ____
ROOT
ATOM      1  C   LIG A   1      -0.891  -0.470  -0.607  0.00  0.00    +0.124 C 
ATOM      2  C   LIG A   1       0.694  -0.230  -0.910  0.00  0.00    +0.085 C 
ATOM      3  N   LIG A   1       0.757   0.790  -1.914  0.00  0.00    -0.297 NA
ATOM      4  C   LIG A   1      -0.011   0.222  -3.067  0.00  0.00    +0.088 C 
ATOM      5  C   LIG A   1      -0.407  -1.341  -2.832  0.00  0.00    +0.005 C 
ATOM      6  C   LIG A   1      -1.202  -1.652  -1.482  0.00  0.00    +0.030 C 
ATOM      7  C   LIG A   1       0.934  -2.053  -2.657  0.00  0.00    +0.012 C 
ATOM      8  C   LIG A   1       1.535  -1.480  -1.363  0.00  0.00    +0.036 C 
ATOM      9  C   LIG A   1       0.326   2.067  -1.268  0.00  0.00    +0.089 C 
ATOM     10  C   LIG A   1       0.092   2.235   0.339  0.00  0.00    +0.053 C 
ATOM     11  C   LIG A   1      -0.405   1.076   1.261  0.00  0.00    -0.017 A 
ATOM     12  C   LIG A   1      -0.837  -0.184   0.839  0.00  0.00    +0.039 A 
ATOM     13  N   LIG A   1      -1.115  -0.974   1.905  0.00  0.00    -0.357 N 
ATOM     14  H   LIG A   1      -1.454  -1.927   1.878  0.00  0.00    +0.166 HD
ATOM     15  C   LIG A   1      -0.812  -0.279   3.057  0.00  0.00    +0.047 A 
ATOM     16  C   LIG A   1      -0.391   1.007   2.688  0.00  0.00    +0.003 A 
ATOM     17  C   LIG A   1      -0.017   1.909   3.703  0.00  0.00    +0.010 A 
ATOM     18  C   LIG A   1      -0.058   1.497   5.040  0.00  0.00    +0.001 A 
ATOM     19  C   LIG A   1      -0.471   0.210   5.376  0.00  0.00    +0.002 A 
ATOM     20  C   LIG A   1      -0.865  -0.700   4.391  0.00  0.00    +0.026 A 
ENDROOT
BRANCH   1  21
ATOM     21  C   LIG A   1      -2.199   0.446  -0.962  0.00  0.00    +0.321 C 
ATOM     22  O   LIG A   1      -2.364   1.238  -1.883  0.00  0.00    -0.250 OA
BRANCH  21  23
ATOM     23  O   LIG A   1      -3.237   0.143  -0.100  0.00  0.00    -0.467 OA
ATOM     24  C   LIG A   1      -4.373   1.002  -0.226  0.00  0.00    +0.280 C 
ENDBRANCH  21  23
ENDBRANCH   1  21
BRANCH   8  25
ATOM     25  C   LIG A   1       3.041  -1.175  -1.555  0.00  0.00    +0.116 C 
ATOM     26  C   LIG A   1       3.731  -0.601  -0.321  0.00  0.00    +0.038 C 
BRANCH  25  27
ATOM     27  O   LIG A   1       3.704  -2.398  -1.896  0.00  0.00    -0.392 OA
ATOM     28  H   LIG A   1       4.620  -2.167  -2.130  0.00  0.00    +0.210 HD
ENDBRANCH  25  27
ENDBRANCH   8  25
TORSDOF 4
