@<TRIPOS>MOLECULE
NuBBE_2087
 33 35 0 0 0
SMALL
GASTEIGER

@<TRIPOS>ATOM
      1 C          -1.9027    2.5281    4.3455 C.3     1  LIG1        0.0788
      2 O          -1.2563    3.3034    3.3416 O.3     1  LIG1       -0.4950
      3 C          -0.7818    2.6339    2.2490 C.ar    1  LIG1        0.1243
      4 C          -0.1542    3.4394    1.2984 C.ar    1  LIG1        0.0223
      5 C           0.3775    2.8826    0.1310 C.ar    1  LIG1        0.1318
      6 O           0.9819    3.7153   -0.7670 O.3     1  LIG1       -0.5059
      7 C           0.2908    1.5037   -0.1083 C.ar    1  LIG1        0.0748
      8 C           0.8419    0.8713   -1.3356 C.2     1  LIG1        0.2015
      9 O           1.4057    1.5117   -2.2177 O.2     1  LIG1       -0.2864
     10 C           0.7197   -0.5893   -1.5283 C.ar    1  LIG1        0.0745
     11 C           1.2292   -1.2085   -2.6790 C.ar    1  LIG1        0.1286
     12 O           1.8599   -0.5205   -3.6821 O.3     1  LIG1       -0.5060
     13 C           1.1139   -2.5865   -2.8615 C.ar    1  LIG1       -0.0165
     14 C           0.4910   -3.3769   -1.8909 C.ar    1  LIG1       -0.0463
     15 C           0.3422   -4.8574   -2.0816 C.3     1  LIG1       -0.0396
     16 C          -0.0265   -2.7604   -0.7449 C.ar    1  LIG1       -0.0471
     17 C           0.0911   -1.3727   -0.5656 C.ar    1  LIG1        0.0368
     18 C          -0.4603   -0.7548    0.6522 C.2     1  LIG1        0.1949
     19 O          -1.0165   -1.4460    1.4985 O.2     1  LIG1       -0.2866
     20 C          -0.3389    0.7034    0.8479 C.ar    1  LIG1        0.0400
     21 C          -0.8738    1.2642    2.0222 C.ar    1  LIG1       -0.0082
     22 H          -2.2172    3.2091    5.1423 H       1  LIG1        0.0660
     23 H          -1.2145    1.7976    4.7833 H       1  LIG1        0.0660
     24 H          -2.7998    2.0405    3.9500 H       1  LIG1        0.0660
     25 H          -0.0877    4.5085    1.4853 H       1  LIG1        0.0691
     26 H           0.9569    4.6333   -0.4518 H       1  LIG1        0.2922
     27 H           1.8759    0.4328   -3.4310 H       1  LIG1        0.2922
     28 H           1.5162   -3.0352   -3.7677 H       1  LIG1        0.0657
     29 H           0.9560   -5.2169   -2.9141 H       1  LIG1        0.0278
     30 H          -0.7027   -5.1050   -2.2931 H       1  LIG1        0.0278
     31 H           0.6634   -5.3912   -1.1812 H       1  LIG1        0.0278
     32 H          -0.5242   -3.3641    0.0138 H       1  LIG1        0.0627
     33 H          -1.3559    0.6063    2.7405 H       1  LIG1        0.0661
@<TRIPOS>BOND
     1     1     2    1
     2     2     3    1
     3     3     4   ar
     4     4     5   ar
     5     5     6    1
     6     5     7   ar
     7     7     8    1
     8     8     9    2
     9     8    10    1
    10    10    11   ar
    11    11    12    1
    12    11    13   ar
    13    13    14   ar
    14    14    15    1
    15    14    16   ar
    16    16    17   ar
    17    10    17   ar
    18    17    18    1
    19    18    19    2
    20    18    20    1
    21     7    20   ar
    22    20    21   ar
    23     3    21   ar
    24     1    22    1
    25     1    23    1
    26     1    24    1
    27     4    25    1
    28     6    26    1
    29    12    27    1
    30    13    28    1
    31    15    29    1
    32    15    30    1
    33    15    31    1
    34    16    32    1
    35    21    33    1
