@<TRIPOS>MOLECULE
NuBBE_344
 34 34 0 0 0
SMALL
GASTEIGER

@<TRIPOS>ATOM
      1 O          -2.5400    0.6034   -3.7657 O.2     1  LIG1       -0.2448
      2 C          -2.1012    0.9754   -2.6847 C.2     1  LIG1        0.3425
      3 O          -2.1256    2.2470   -2.2082 O.3     1  LIG1       -0.4644
      4 C          -2.6541    3.2757   -3.0515 C.3     1  LIG1        0.0820
      5 C          -1.4241    0.1145   -1.6682 C.ar    1  LIG1        0.1011
      6 C          -0.4106    0.7014   -0.8740 C.ar    1  LIG1       -0.0334
      7 C           0.2802   -0.0409    0.0890 C.ar    1  LIG1        0.0227
      8 C           1.3762    0.6179    0.8669 C.2     1  LIG1        0.1860
      9 C           1.6012    0.1308    2.2621 C.2     1  LIG1       -0.0156
     10 C           2.6910    0.3009    3.0378 C.2     1  LIG1       -0.0721
     11 C           3.9521    1.0337    2.6644 C.3     1  LIG1       -0.0436
     12 C           2.7063   -0.2826    4.4275 C.3     1  LIG1       -0.0436
     13 O           2.0119    1.5395    0.3726 O.2     1  LIG1       -0.2873
     14 C          -0.0425   -1.3882    0.2584 C.ar    1  LIG1       -0.0474
     15 C          -1.0383   -1.9819   -0.5257 C.ar    1  LIG1       -0.0185
     16 C          -1.7203   -1.2535   -1.5125 C.ar    1  LIG1        0.1341
     17 O          -2.6847   -1.8296   -2.3006 O.3     1  LIG1       -0.4943
     18 C          -2.6008   -3.2479   -2.4663 C.3     1  LIG1        0.0788
     19 H          -3.5904    3.6322   -2.6139 H       1  LIG1        0.0661
     20 H          -2.8235    2.9566   -4.0833 H       1  LIG1        0.0661
     21 H          -1.9414    4.1065   -3.0561 H       1  LIG1        0.0661
     22 H          -0.1457    1.7486   -1.0159 H       1  LIG1        0.0634
     23 H           0.7604   -0.4174    2.6767 H       1  LIG1        0.0655
     24 H           4.5796    0.4224    2.0084 H       1  LIG1        0.0274
     25 H           4.5464    1.2500    3.5623 H       1  LIG1        0.0274
     26 H           3.7506    1.9984    2.1927 H       1  LIG1        0.0274
     27 H           1.7798   -0.8166    4.6638 H       1  LIG1        0.0274
     28 H           2.8267    0.5135    5.1693 H       1  LIG1        0.0274
     29 H           3.5342   -0.9911    4.5332 H       1  LIG1        0.0274
     30 H           0.4879   -2.0117    0.9729 H       1  LIG1        0.0626
     31 H          -1.2557   -3.0314   -0.3472 H       1  LIG1        0.0654
     32 H          -3.0189   -3.7650   -1.5948 H       1  LIG1        0.0660
     33 H          -1.5709   -3.5765   -2.6510 H       1  LIG1        0.0660
     34 H          -3.1957   -3.5342   -3.3388 H       1  LIG1        0.0660
@<TRIPOS>BOND
     1     1     2    2
     2     2     3    1
     3     3     4    1
     4     2     5    1
     5     5     6   ar
     6     6     7   ar
     7     7     8    1
     8     8     9    1
     9     9    10    2
    10    10    11    1
    11    10    12    1
    12     8    13    2
    13     7    14   ar
    14    14    15   ar
    15    15    16   ar
    16     5    16   ar
    17    16    17    1
    18    17    18    1
    19     4    19    1
    20     4    20    1
    21     4    21    1
    22     6    22    1
    23     9    23    1
    24    11    24    1
    25    11    25    1
    26    11    26    1
    27    12    27    1
    28    12    28    1
    29    12    29    1
    30    14    30    1
    31    15    31    1
    32    18    32    1
    33    18    33    1
    34    18    34    1
