@<TRIPOS>MOLECULE
NuBBE_1737
 26 27 0 0 0
SMALL
GASTEIGER

@<TRIPOS>ATOM
      1 C          -1.5812    0.2853   -0.2082 C.3     1  LIG1       -0.0405
      2 C          -2.5746    0.0584    0.9357 C.3     1  LIG1       -0.0621
      3 C          -1.7343    1.7075   -0.7500 C.3     1  LIG1       -0.0621
      4 C          -0.1759   -0.0895    0.2422 C.3     1  LIG1       -0.0196
      5 C           1.0722    0.6306   -0.2357 C.3     1  LIG1       -0.0137
      6 C           0.6013    0.8207    1.1759 C.3     1  LIG1       -0.0395
      7 C           2.0741   -0.4011   -0.5369 C.2     1  LIG1       -0.0730
      8 C           3.3885   -0.2105   -0.7024 C.2     1  LIG1       -0.0992
      9 C           1.4112   -1.7577   -0.5629 C.3     1  LIG1       -0.0312
     10 C           0.1399   -1.5782    0.2814 C.3     1  LIG1       -0.0429
     11 H          -1.8578   -0.3899   -1.0287 H       1  LIG1        0.0301
     12 H          -2.3586    0.7157    1.7851 H       1  LIG1        0.0233
     13 H          -2.5301   -0.9744    1.2973 H       1  LIG1        0.0233
     14 H          -3.6009    0.2534    0.6072 H       1  LIG1        0.0233
     15 H          -1.4700    2.4631   -0.0039 H       1  LIG1        0.0233
     16 H          -2.7698    1.8930   -1.0565 H       1  LIG1        0.0233
     17 H          -1.1049    1.8644   -1.6315 H       1  LIG1        0.0233
     18 H           0.9999    1.4574   -0.9285 H       1  LIG1        0.0351
     19 H           0.1885    1.7862    1.4433 H       1  LIG1        0.0277
     20 H           1.1774    0.3747    1.9802 H       1  LIG1        0.0277
     21 H           3.8190    0.7840   -0.6447 H       1  LIG1        0.0534
     22 H           4.0601   -1.0399   -0.8969 H       1  LIG1        0.0534
     23 H           2.0433   -2.5570   -0.1644 H       1  LIG1        0.0310
     24 H           1.1383   -2.0048   -1.5955 H       1  LIG1        0.0310
     25 H           0.3159   -1.8953    1.3165 H       1  LIG1        0.0274
     26 H          -0.6714   -2.1960   -0.1181 H       1  LIG1        0.0274
@<TRIPOS>BOND
     1     1     2    1
     2     1     3    1
     3     1     4    1
     4     4     5    1
     5     5     6    1
     6     4     6    1
     7     5     7    1
     8     7     8    2
     9     7     9    1
    10     9    10    1
    11     4    10    1
    12     1    11    1
    13     2    12    1
    14     2    13    1
    15     2    14    1
    16     3    15    1
    17     3    16    1
    18     3    17    1
    19     5    18    1
    20     6    19    1
    21     6    20    1
    22     8    21    1
    23     8    22    1
    24     9    23    1
    25     9    24    1
    26    10    25    1
    27    10    26    1
