@<TRIPOS>MOLECULE
NuBBE_286
 93 98 0 0 0
SMALL
GASTEIGER

@<TRIPOS>ATOM
      1 O           4.9706   -4.0966    3.5664 O.3     1  LIG1       -0.5058
      2 C           3.6415   -4.0977    3.8808 C.ar    1  LIG1        0.1348
      3 C           2.6754   -3.7642    2.9426 C.ar    1  LIG1        0.1092
      4 C           2.8316   -3.1104    1.6497 C.ar    1  LIG1        0.2382
      5 C           1.6278   -2.8051    0.7741 C.ar    1  LIG1        0.2138
      6 O           1.8442   -2.1408   -0.4176 O.3     1  LIG1       -0.4532
      7 C           0.8332   -1.3445   -1.0753 C.3     1  LIG1        0.2311
      8 H          -0.0543   -1.3088   -0.4580 H       1  LIG1        0.1084
      9 O           0.5273   -1.8034   -2.4110 O.3     1  LIG1       -0.3313
     10 C          -0.3424   -0.9609   -3.2378 C.3     1  LIG1        0.1144
     11 H          -1.1519   -1.6167   -3.5426 H       1  LIG1        0.0647
     12 C          -0.9298    0.2806   -2.5535 C.3     1  LIG1        0.1185
     13 H          -1.3929    0.9254   -3.3196 H       1  LIG1        0.0651
     14 C           0.3090    0.9249   -2.0114 C.3     1  LIG1        0.1155
     15 H          -0.1560    1.5859   -1.3450 H       1  LIG1        0.0648
     16 O           0.8168    1.6244   -3.1595 O.3     1  LIG1       -0.3863
     17 O          -1.9266    0.1173   -1.5243 O.3     1  LIG1       -0.3401
     18 C          -2.5744    1.3797   -1.1297 C.3     1  LIG1        0.1884
     19 H          -2.8375    1.9536   -2.0283 H       1  LIG1        0.0938
     20 C          -3.8938    1.0781   -0.4286 C.3     1  LIG1        0.1341
     21 H          -4.5274    0.4116   -1.0364 H       1  LIG1        0.0671
     22 C          -3.5912    0.4090    0.9146 C.3     1  LIG1        0.1141
     23 H          -3.6855   -0.6691    0.6964 H       1  LIG1        0.0648
     24 C          -2.1549    0.6790    1.5542 C.3     1  LIG1        0.1119
     25 H          -2.1492    0.6677    2.6446 H       1  LIG1        0.0647
     26 C          -1.2397    1.8025    0.9356 C.3     1  LIG1        0.1134
     27 H          -0.3831    1.2035    0.6446 H       1  LIG1        0.0647
     28 O          -1.8197    2.2979   -0.2738 O.3     1  LIG1       -0.3405
     29 C          -0.4149    3.0008    1.8391 C.3     1  LIG1        0.0796
     30 O           0.3787    4.1488    1.2744 O.3     1  LIG1       -0.3461
     31 C           1.6084    3.9668    0.5091 C.3     1  LIG1        0.1879
     32 H           2.3399    3.3654    1.0752 H       1  LIG1        0.0937
     33 C           1.1652    3.2617   -0.7050 C.3     1  LIG1        0.1341
     34 H           0.6070    2.4951   -0.2634 H       1  LIG1        0.0671
     35 C           0.3069    4.1571   -1.5888 C.3     1  LIG1        0.1140
     36 H          -0.4117    4.6933   -0.9658 H       1  LIG1        0.0648
     37 C           1.2909    5.0697   -2.2857 C.3     1  LIG1        0.1095
     38 H           1.5865    4.6522   -3.2589 H       1  LIG1        0.0646
     39 C           2.5347    5.3511   -1.3832 C.3     1  LIG1        0.0873
     40 H           2.7500    6.4177   -1.4622 H       1  LIG1        0.0621
     41 O           2.2734    5.1824    0.0615 O.3     1  LIG1       -0.3431
     42 C           3.8242    4.6734   -1.9411 C.3     1  LIG1       -0.0361
     43 O           0.5723    6.2741   -2.5567 O.3     1  LIG1       -0.3866
     44 O          -0.5493    3.4996   -2.5328 O.3     1  LIG1       -0.3864
     45 O           2.3229    2.7356   -1.3028 O.3     1  LIG1       -0.3841
     46 O          -1.4041   -0.5312    1.2511 O.3     1  LIG1       -0.3865
     47 O          -4.6795    0.7253    1.7987 O.3     1  LIG1       -0.3864
     48 O          -4.6687    2.2782   -0.2478 O.3     1  LIG1       -0.3841
     49 C           0.3910   -0.4702   -4.5574 C.3     1  LIG1        0.0731
     50 O           0.7575   -1.5486   -5.3959 O.3     1  LIG1       -0.3924
     51 C           1.3755    0.0512   -1.2503 C.3     1  LIG1        0.1454
     52 H           2.2484    0.0196   -1.9101 H       1  LIG1        0.0683
     53 O           1.9768    0.5438   -0.0315 O.3     1  LIG1       -0.3829
     54 C           0.4631   -3.3471    1.2636 C.ar    1  LIG1        0.1809
     55 O           0.4210   -4.1066    2.3964 O.2     1  LIG1       -0.4507
     56 C           1.3702   -3.9979    3.3135 C.ar    1  LIG1        0.1465
     57 C           0.9547   -4.2367    4.6079 C.ar    1  LIG1        0.0231
     58 C           1.9192   -4.3737    5.5631 C.ar    1  LIG1        0.1239
     59 O           1.5563   -4.4328    6.8708 O.3     1  LIG1       -0.5065
     60 C           3.2643   -4.4276    5.1910 C.ar    1  LIG1        0.0223
     61 H           4.0139   -4.6668    5.9368 H       1  LIG1        0.0691
     62 C          -0.9509   -3.4875    0.8430 C.ar    1  LIG1        0.0213
     63 C          -1.9955   -3.3712    1.8156 C.ar    1  LIG1       -0.0475
     64 C          -3.2984   -3.7701    1.5421 C.ar    1  LIG1       -0.0195
     65 C          -3.5564   -4.3873    0.3335 C.ar    1  LIG1        0.1169
     66 C          -2.5185   -4.6818   -0.5523 C.ar    1  LIG1       -0.0195
     67 H          -2.6978   -5.2570   -1.4522 H       1  LIG1        0.0654
     68 C          -1.2273   -4.1828   -0.3220 C.ar    1  LIG1       -0.0475
     69 O          -4.8735   -4.5183    0.0001 O.3     1  LIG1       -0.5068
     70 O           4.0535   -2.7122    1.3469 O.2     1  LIG1       -0.2830
     71 H           5.0635   -3.6887    2.6773 H       1  LIG1        0.2922
     72 H           1.6297    2.1470   -3.1693 H       1  LIG1        0.2100
     73 H           0.2500    2.5265    2.5774 H       1  LIG1        0.0587
     74 H          -1.1799    3.5444    2.3957 H       1  LIG1        0.0587
     75 H           4.2160    5.2605   -2.7775 H       1  LIG1        0.0255
     76 H           3.6888    3.6957   -2.4209 H       1  LIG1        0.0255
     77 H           4.5917    4.5472   -1.1751 H       1  LIG1        0.0255
     78 H           0.3918    6.6640   -1.6798 H       1  LIG1        0.2100
     79 H          -0.8182    4.1221   -3.2295 H       1  LIG1        0.2100
     80 H           2.1364    1.8971   -1.7111 H       1  LIG1        0.2101
     81 H          -1.9778   -1.2748    1.4834 H       1  LIG1        0.2100
     82 H          -4.7215    0.0527    2.4993 H       1  LIG1        0.2100
     83 H          -5.2478    2.0984    0.5204 H       1  LIG1        0.2101
     84 H          -0.2717    0.1981   -5.1328 H       1  LIG1        0.0584
     85 H           1.3296    0.0726   -4.4014 H       1  LIG1        0.0584
     86 H          -0.0495   -2.0631   -5.5325 H       1  LIG1        0.2095
     87 H           1.4187    1.0739    0.5483 H       1  LIG1        0.2102
     88 H          -0.1115   -4.2996    4.8118 H       1  LIG1        0.0691
     89 H           0.6903   -3.9905    6.9538 H       1  LIG1        0.2921
     90 H          -1.7955   -2.9208    2.7919 H       1  LIG1        0.0626
     91 H          -4.1085   -3.5803    2.2419 H       1  LIG1        0.0654
     92 H          -0.4102   -4.3673   -1.0136 H       1  LIG1        0.0626
     93 H          -5.0611   -5.3934   -0.3763 H       1  LIG1        0.2921
@<TRIPOS>BOND
     1     1     2    1
     2     2     3   ar
     3     3     4   ar
     4     4     5   ar
     5     5     6    1
     6     7     9    1
     7     9    10    1
     8    10    12    1
     9    12    13    1
    10    12    14    1
    11    12    17    1
    12    17    18    1
    13    18    19    1
    14    18    20    1
    15    20    22    1
    16    22    23    1
    17    22    24    1
    18    24    26    1
    19    26    27    1
    20    26    28    1
    21    18    28    1
    22    26    29    1
    23    29    30    1
    24    30    31    1
    25    31    32    1
    26    31    33    1
    27    33    35    1
    28    35    36    1
    29    35    37    1
    30    37    39    1
    31    39    40    1
    32    39    41    1
    33    31    41    1
    34    39    42    1
    35    35    44    1
    36    22    47    1
    37    49    50    1
    38     7    51    1
    39    14    51    1
    40     5    54   ar
    41    54    55   ar
    42    55    56   ar
    43     3    56   ar
    44    56    57   ar
    45    57    58   ar
    46    58    59    1
    47    58    60   ar
    48     2    60   ar
    49    60    61    1
    50    54    62    1
    51    62    63   ar
    52    63    64   ar
    53    64    65   ar
    54    65    66   ar
    55    66    67    1
    56    66    68   ar
    57    62    68   ar
    58    65    69    1
    59     4    70    2
    60    10    49    1
    61    10    11    1
    62     7     8    1
    63     7     6    1
    64    14    16    1
    65    14    15    1
    66    33    45    1
    67    33    34    1
    68    20    48    1
    69    20    21    1
    70    24    46    1
    71    24    25    1
    72    37    43    1
    73    37    38    1
    74    51    53    1
    75    51    52    1
    76     1    71    1
    77    16    72    1
    78    29    73    1
    79    29    74    1
    80    42    75    1
    81    42    76    1
    82    42    77    1
    83    43    78    1
    84    44    79    1
    85    45    80    1
    86    46    81    1
    87    47    82    1
    88    48    83    1
    89    49    84    1
    90    49    85    1
    91    50    86    1
    92    53    87    1
    93    57    88    1
    94    59    89    1
    95    63    90    1
    96    64    91    1
    97    68    92    1
    98    69    93    1
