REMARK  Name = NuBBE_2340
REMARK  8 active torsions:
REMARK  status: ('A' for Active; 'I' for Inactive)
REMARK    1  A    between atoms: C_1  and  O_2
REMARK    2  A    between atoms: O_2  and  C_3
REMARK    3  A    between atoms: C_10  and  C_11
REMARK    4  A    between atoms: C_15  and  C_16
REMARK    5  A    between atoms: C_16  and  C_17
REMARK    6  A    between atoms: C_19  and  C_21
REMARK    7  A    between atoms: C_24  and  O_25
REMARK    8  A    between atoms: O_25  and  C_26
REMARK                            x       y       z     vdW  Elec       q    Type
REMARK                         _______ _______ _______ _____ _____    ______ ____
ROOT
ATOM      1  C   LIG A   1      -1.555  -0.350   1.256  0.00  0.00    +0.207 C 
ATOM      2  O   LIG A   1      -0.755  -1.194   2.121  0.00  0.00    -0.487 OA
ATOM      3  C   LIG A   1       0.490  -0.581   2.139  0.00  0.00    +0.113 C 
ATOM      4  C   LIG A   1       0.436   0.922   1.962  0.00  0.00    +0.059 C 
ATOM      5  C   LIG A   1      -1.040   1.082   1.521  0.00  0.00    +0.049 C 
ATOM      6  C   LIG A   1      -1.356   2.147   0.480  0.00  0.00    +0.013 C 
ATOM      7  C   LIG A   1       1.599  -1.314   2.000  0.00  0.00    +0.096 C 
ATOM      8  C   LIG A   1       2.842  -0.652   1.533  0.00  0.00    +0.223 C 
ATOM      9  C   LIG A   1       2.664   0.667   0.809  0.00  0.00    +0.164 C 
ATOM     10  C   LIG A   1       1.526   1.358   1.003  0.00  0.00    +0.038 C 
ATOM     11  O   LIG A   1       3.912  -1.213   1.674  0.00  0.00    -0.284 OA
ENDROOT
BRANCH   1  19
ATOM     12  C   LIG A   1      -2.819  -1.917  -2.039  0.00  0.00    +0.166 A 
ATOM     13  C   LIG A   1      -1.628  -2.016  -2.734  0.00  0.00    +0.207 A 
ATOM     14  O   LIG A   1      -1.431  -2.525  -3.981  0.00  0.00    -0.449 OA
ATOM     15  C   LIG A   1      -0.017  -2.360  -4.150  0.00  0.00    +0.467 C 
ATOM     16  O   LIG A   1       0.625  -1.790  -2.997  0.00  0.00    -0.453 OA
ATOM     17  C   LIG A   1      -0.446  -1.596  -2.179  0.00  0.00    +0.170 A 
ATOM     18  C   LIG A   1      -0.383  -1.043  -0.919  0.00  0.00    +0.057 A 
ATOM     19  C   LIG A   1      -1.558  -0.915  -0.162  0.00  0.00    +0.000 A 
ATOM     20  C   LIG A   1      -2.770  -1.383  -0.737  0.00  0.00    +0.057 A 
BRANCH  12  22
ATOM     21  C   LIG A   1      -4.221  -2.277  -3.902  0.00  0.00    +0.277 C 
ATOM     22  O   LIG A   1      -4.045  -2.326  -2.486  0.00  0.00    -0.491 OA
ENDBRANCH  12  22
ENDBRANCH   1  19
BRANCH   9  23
ATOM     23  O   LIG A   1       3.640   1.216  -0.009  0.00  0.00    -0.492 OA
ATOM     24  C   LIG A   1       4.473   0.283  -0.691  0.00  0.00    +0.277 C 
ENDBRANCH   9  23
BRANCH   4  25
ATOM     25  C   LIG A   1       0.689   1.618   3.342  0.00  0.00    +0.045 C 
BRANCH  25  26
ATOM     26  C   LIG A   1       0.657   3.129   3.314  0.00  0.00    -0.033 C 
ATOM     27  C   LIG A   1       1.687   3.908   3.668  0.00  0.00    +0.004 C 
ENDBRANCH  25  26
ENDBRANCH   4  25
TORSDOF 5
