REMARK  Name = NuBBE_1987
REMARK  16 active torsions:
REMARK  status: ('A' for Active; 'I' for Inactive)
REMARK    1  A    between atoms: C_1  and  C_2
REMARK    2  A    between atoms: C_1  and  C_10
REMARK    3  A    between atoms: C_2  and  C_3
REMARK    4  A    between atoms: C_3  and  C_4
REMARK    5  A    between atoms: C_4  and  C_5
REMARK    6  A    between atoms: C_5  and  C_6
REMARK    7  A    between atoms: C_6  and  C_7
REMARK    8  A    between atoms: C_7  and  C_8
REMARK    9  A    between atoms: C_8  and  C_9
REMARK   10  A    between atoms: C_10  and  C_11
REMARK   11  A    between atoms: C_11  and  C_12
REMARK   12  A    between atoms: C_12  and  C_13
REMARK   13  A    between atoms: C_13  and  C_14
REMARK   14  A    between atoms: C_14  and  C_15
REMARK   15  A    between atoms: C_15  and  C_16
REMARK   16  A    between atoms: C_16  and  C_17
REMARK                            x       y       z     vdW  Elec       q    Type
REMARK                         _______ _______ _______ _____ _____    ______ ____
ROOT
ATOM      1  C   LIG A   1       1.742  -1.566  -1.028  0.00  0.00    -0.000 C 
ENDROOT
BRANCH   1   2
ATOM      2  C   LIG A   1       3.094  -2.265  -1.054  0.00  0.00    -0.000 C 
BRANCH   2   3
ATOM      3  C   LIG A   1       3.241  -3.380  -0.003  0.00  0.00    -0.000 C 
BRANCH   3   4
ATOM      4  C   LIG A   1       3.278  -2.957   1.477  0.00  0.00    -0.000 C 
BRANCH   4   5
ATOM      5  C   LIG A   1       2.015  -2.350   2.103  0.00  0.00    -0.000 C 
BRANCH   5   6
ATOM      6  C   LIG A   1       0.735  -3.165   1.861  0.00  0.00    -0.000 C 
BRANCH   6   7
ATOM      7  C   LIG A   1      -0.548  -2.440   2.286  0.00  0.00    -0.000 C 
BRANCH   7   8
ATOM      8  C   LIG A   1      -0.876  -1.221   1.418  0.00  0.00    -0.003 C 
ATOM      9  C   LIG A   1      -2.173  -0.550   1.835  0.00  0.00    +0.004 C 
ENDBRANCH   7   8
ENDBRANCH   6   7
ENDBRANCH   5   6
ENDBRANCH   4   5
ENDBRANCH   3   4
ENDBRANCH   2   3
ENDBRANCH   1   2
BRANCH   1  10
ATOM     10  C   LIG A   1       1.573  -0.452  -2.049  0.00  0.00    -0.000 C 
BRANCH  10  11
ATOM     11  C   LIG A   1       0.224   0.240  -1.800  0.00  0.00    -0.000 C 
BRANCH  11  12
ATOM     12  C   LIG A   1      -0.032   1.408  -2.742  0.00  0.00    -0.000 C 
BRANCH  12  13
ATOM     13  C   LIG A   1      -1.403   2.062  -2.508  0.00  0.00    -0.000 C 
BRANCH  13  14
ATOM     14  C   LIG A   1      -1.536   2.693  -1.119  0.00  0.00    -0.000 C 
BRANCH  14  15
ATOM     15  C   LIG A   1      -2.873   3.414  -0.936  0.00  0.00    -0.000 C 
BRANCH  15  16
ATOM     16  C   LIG A   1      -3.050   3.993   0.471  0.00  0.00    -0.003 C 
ATOM     17  C   LIG A   1      -2.026   5.062   0.824  0.00  0.00    +0.004 C 
ENDBRANCH  15  16
ENDBRANCH  14  15
ENDBRANCH  13  14
ENDBRANCH  12  13
ENDBRANCH  11  12
ENDBRANCH  10  11
ENDBRANCH   1  10
TORSDOF 14
