@<TRIPOS>MOLECULE
NuBBE_1919
 39 40 0 0 0
SMALL
GASTEIGER

@<TRIPOS>ATOM
      1 C          -0.8818    2.9495   -1.3951 C.3     1  LIG1       -0.0587
      2 C           0.4634    2.2589   -1.1889 C.3     1  LIG1       -0.0222
      3 H           1.0475    2.3400   -2.1151 H       1  LIG1        0.0343
      4 C           0.4300    0.7965   -0.7726 C.2     1  LIG1       -0.0666
      5 C           1.3393    0.5448    0.1917 C.2     1  LIG1       -0.0672
      6 C           2.0781    1.8098    0.5588 C.3     1  LIG1       -0.0307
      7 C           1.2261    2.9145   -0.0401 C.3     1  LIG1       -0.0430
      8 C           1.8005   -0.7784    0.7688 C.3     1  LIG1       -0.0224
      9 H           2.5559   -1.1738    0.0751 H       1  LIG1        0.0343
     10 C           2.5119   -0.6201    2.1264 C.3     1  LIG1       -0.0587
     11 C           0.7123   -1.8490    0.9462 C.3     1  LIG1       -0.0462
     12 C           0.0902   -2.3458   -0.3533 C.3     1  LIG1       -0.0457
     13 C          -0.9958   -1.4383   -0.9437 C.3     1  LIG1       -0.0167
     14 H          -1.3922   -1.9869   -1.8133 H       1  LIG1        0.0348
     15 C          -0.4180   -0.1527   -1.5740 C.3     1  LIG1       -0.0247
     16 C          -2.2064   -1.2709   -0.0169 C.2     1  LIG1       -0.0763
     17 C          -2.5060   -0.1523    0.6656 C.2     1  LIG1       -0.0994
     18 C          -3.1175   -2.4698    0.0821 C.3     1  LIG1       -0.0438
     19 H          -1.3925    2.5692   -2.2852 H       1  LIG1        0.0235
     20 H          -0.7415    4.0265   -1.5390 H       1  LIG1        0.0235
     21 H          -1.5466    2.8096   -0.5367 H       1  LIG1        0.0235
     22 H           3.0833    1.8003    0.1231 H       1  LIG1        0.0310
     23 H           2.1586    1.9610    1.6390 H       1  LIG1        0.0310
     24 H           1.8340    3.7602   -0.3793 H       1  LIG1        0.0274
     25 H           0.5365    3.2984    0.7239 H       1  LIG1        0.0274
     26 H           1.8492   -0.1722    2.8753 H       1  LIG1        0.0235
     27 H           3.4087    0.0027    2.0392 H       1  LIG1        0.0235
     28 H           2.8446   -1.5911    2.5104 H       1  LIG1        0.0235
     29 H          -0.0541   -1.5017    1.6484 H       1  LIG1        0.0271
     30 H           1.1728   -2.7250    1.4242 H       1  LIG1        0.0271
     31 H          -0.3485   -3.3331   -0.1581 H       1  LIG1        0.0271
     32 H           0.8756   -2.5204   -1.1000 H       1  LIG1        0.0271
     33 H          -1.2709    0.3930   -1.9942 H       1  LIG1        0.0316
     34 H           0.1839   -0.4433   -2.4469 H       1  LIG1        0.0316
     35 H          -1.8798    0.7306    0.6385 H       1  LIG1        0.0534
     36 H          -3.3853   -0.0924    1.2996 H       1  LIG1        0.0534
     37 H          -3.4815   -2.7540   -0.9107 H       1  LIG1        0.0274
     38 H          -3.9947   -2.2718    0.7075 H       1  LIG1        0.0274
     39 H          -2.5894   -3.3226    0.5190 H       1  LIG1        0.0274
@<TRIPOS>BOND
     1     1     2    1
     2     2     3    1
     3     2     4    1
     4     4     5    2
     5     5     6    1
     6     6     7    1
     7     2     7    1
     8     5     8    1
     9     8    11    1
    10    11    12    1
    11    12    13    1
    12    13    14    1
    13    13    15    1
    14     4    15    1
    15    13    16    1
    16    16    17    2
    17    16    18    1
    18     8    10    1
    19     8     9    1
    20     1    19    1
    21     1    20    1
    22     1    21    1
    23     6    22    1
    24     6    23    1
    25     7    24    1
    26     7    25    1
    27    10    26    1
    28    10    27    1
    29    10    28    1
    30    11    29    1
    31    11    30    1
    32    12    31    1
    33    12    32    1
    34    15    33    1
    35    15    34    1
    36    17    35    1
    37    17    36    1
    38    18    37    1
    39    18    38    1
    40    18    39    1
