REMARK  Name = NuBBE_2181
REMARK  14 active torsions:
REMARK  status: ('A' for Active; 'I' for Inactive)
REMARK    1  A    between atoms: C_1  and  C_3
REMARK    2  A    between atoms: C_1  and  C_14
REMARK    3  A    between atoms: C_1  and  C_15
REMARK    4  A    between atoms: C_3  and  C_4
REMARK    5  A    between atoms: C_6  and  O_7
REMARK    6  A    between atoms: O_7  and  C_8
REMARK    7  A    between atoms: C_9  and  O_12
REMARK    8  A    between atoms: O_12  and  C_13
REMARK    9  A    between atoms: C_15  and  O_16
REMARK   10  A    between atoms: O_16  and  C_17
REMARK   11  A    between atoms: C_18  and  O_27
REMARK   12  A    between atoms: C_22  and  C_24
REMARK   13  A    between atoms: C_24  and  C_25
REMARK   14  A    between atoms: O_27  and  C_28
REMARK                            x       y       z     vdW  Elec       q    Type
REMARK                         _______ _______ _______ _____ _____    ______ ____
ROOT
ATOM      1  C   LIG A   1      -0.269  -0.655   1.934  0.00  0.00    +0.147 C 
ATOM      2  C   LIG A   1      -1.794  -0.827   1.900  0.00  0.00    +0.137 C 
ATOM      3  C   LIG A   1      -2.638   0.170   2.227  0.00  0.00    +0.095 C 
ATOM      4  C   LIG A   1      -2.149   1.495   2.658  0.00  0.00    +0.185 C 
ATOM      5  O   LIG A   1      -2.962   2.372   2.966  0.00  0.00    -0.287 OA
ATOM      6  C   LIG A   1      -0.685   1.724   2.723  0.00  0.00    +0.002 C 
ATOM      7  C   LIG A   1       0.153   0.725   2.394  0.00  0.00    +0.023 C 
ENDROOT
BRANCH   1   8
ATOM      8  C   LIG A   1       0.320  -0.955   0.499  0.00  0.00    +0.034 C 
ATOM      9  C   LIG A   1       1.863  -0.968   0.489  0.00  0.00    +0.011 C 
BRANCH   8  10
ATOM     10  C   LIG A   1      -0.247   0.011  -0.571  0.00  0.00    +0.042 C 
BRANCH  10  11
ATOM     11  C   LIG A   1       0.137  -0.332  -1.989  0.00  0.00    -0.043 A 
ATOM     12  C   LIG A   1       1.299   0.205  -2.563  0.00  0.00    +0.053 A 
ATOM     13  C   LIG A   1       1.646  -0.074  -3.890  0.00  0.00    +0.162 A 
ATOM     14  C   LIG A   1       0.830  -0.937  -4.645  0.00  0.00    +0.162 A 
ATOM     15  C   LIG A   1      -0.310  -1.498  -4.055  0.00  0.00    +0.050 A 
ATOM     16  C   LIG A   1      -0.660  -1.191  -2.743  0.00  0.00    +0.007 A 
BRANCH  13  17
ATOM     17  O   LIG A   1       2.757   0.455  -4.500  0.00  0.00    -0.491 OA
ATOM     18  C   LIG A   1       3.262   1.675  -3.960  0.00  0.00    +0.277 C 
ENDBRANCH  13  17
BRANCH  14  19
ATOM     19  O   LIG A   1       1.197  -1.208  -5.943  0.00  0.00    -0.491 OA
ATOM     20  C   LIG A   1       0.120  -1.556  -6.812  0.00  0.00    +0.277 C 
ENDBRANCH  14  19
ENDBRANCH  10  11
ENDBRANCH   8  10
ENDBRANCH   1   8
BRANCH   1  21
ATOM     21  O   LIG A   1       0.301  -1.638   2.823  0.00  0.00    -0.364 OA
ATOM     22  C   LIG A   1      -0.096  -1.564   4.188  0.00  0.00    +0.195 C 
ENDBRANCH   1  21
BRANCH   2  23
ATOM     23  O   LIG A   1      -2.193  -2.102   1.537  0.00  0.00    -0.496 OA
ATOM     24  C   LIG A   1      -3.439  -2.240   0.867  0.00  0.00    +0.277 C 
ENDBRANCH   2  23
BRANCH   6  25
ATOM     25  C   LIG A   1      -0.213   3.085   3.157  0.00  0.00    +0.065 C 
BRANCH  25  26
ATOM     26  C   LIG A   1      -0.008   3.150   4.644  0.00  0.00    -0.030 C 
ATOM     27  C   LIG A   1       1.159   2.904   5.254  0.00  0.00    +0.004 C 
ENDBRANCH  25  26
ENDBRANCH   6  25
TORSDOF 9
