@<TRIPOS>MOLECULE
NuBBE_2184
 48 50 0 0 0
SMALL
GASTEIGER

@<TRIPOS>ATOM
      1 C          -1.7262   -0.8418   -0.1559 C.3     1  LIG1       -0.0111
      2 H          -1.9478   -0.7456    0.9206 H       1  LIG1        0.0350
      3 C          -2.4087    0.4112   -0.8394 C.3     1  LIG1       -0.0209
      4 C          -2.2187    1.8280   -0.2381 C.ar    1  LIG1       -0.0431
      5 C          -2.7727    2.9542   -0.8931 C.ar    1  LIG1       -0.0129
      6 C          -2.2784    4.2030   -0.5603 C.ar    1  LIG1        0.1665
      7 C          -1.2005    4.3657    0.2621 C.ar    1  LIG1        0.1662
      8 C          -0.6624    3.2942    0.9610 C.ar    1  LIG1       -0.0159
      9 C          -1.2891    2.0591    0.7976 C.ar    1  LIG1       -0.0549
     10 O          -0.7517    5.6355    0.3397 O.3     1  LIG1       -0.4526
     11 C          -1.8849    6.3078   -0.2538 C.3     1  LIG1        0.2332
     12 O          -2.7233    5.4150   -1.0163 O.3     1  LIG1       -0.4526
     13 C          -2.4571   -2.1225   -0.6112 C.3     1  LIG1       -0.0580
     14 C          -0.1890   -1.0378   -0.2369 C.ar    1  LIG1        0.0011
     15 C           0.7109   -0.0370   -0.6303 C.ar    1  LIG1        0.1620
     16 O           0.2055    1.0506   -1.2528 O.3     1  LIG1       -0.5031
     17 C           2.0628   -0.0097   -0.2658 C.ar    1  LIG1        0.1618
     18 O           2.8558    1.1177   -0.2555 O.3     1  LIG1       -0.4914
     19 C           2.5923    2.1915   -1.1623 C.3     1  LIG1        0.0790
     20 C           2.6263   -1.1948    0.1786 C.ar    1  LIG1       -0.0131
     21 C           1.8258   -2.3330    0.3310 C.ar    1  LIG1       -0.0434
     22 C           0.4211   -2.2227    0.1904 C.ar    1  LIG1       -0.0514
     23 C           2.4686   -3.6765    0.5783 C.3     1  LIG1       -0.0278
     24 C           1.5695   -4.6316    1.3642 C.3     1  LIG1       -0.0519
     25 C           2.2107   -5.9801    1.5901 C.3     1  LIG1       -0.0650
     26 H          -3.4920    0.2484   -0.8847 H       1  LIG1        0.0319
     27 H          -2.0660    0.4351   -1.8852 H       1  LIG1        0.0319
     28 H          -3.5234    2.8390   -1.6589 H       1  LIG1        0.0658
     29 H           0.2375    3.4118    1.5405 H       1  LIG1        0.0655
     30 H          -0.8695    1.2196    1.3730 H       1  LIG1        0.0621
     31 H          -1.5337    7.1167   -0.8962 H       1  LIG1        0.1166
     32 H          -2.4678    6.7448    0.5741 H       1  LIG1        0.1166
     33 H          -3.5439   -1.9903   -0.6094 H       1  LIG1        0.0236
     34 H          -2.2618   -2.9599    0.0684 H       1  LIG1        0.0236
     35 H          -2.1427   -2.4244   -1.6153 H       1  LIG1        0.0236
     36 H           0.3307    1.7301   -0.5662 H       1  LIG1        0.2923
     37 H           3.3474    2.9635   -1.0034 H       1  LIG1        0.0660
     38 H           1.6643    2.7431   -0.9828 H       1  LIG1        0.0660
     39 H           2.6360    1.8390   -2.1954 H       1  LIG1        0.0660
     40 H           3.6984   -1.2313    0.3816 H       1  LIG1        0.0658
     41 H          -0.2058   -3.0635    0.4157 H       1  LIG1        0.0624
     42 H           3.4168   -3.5439    1.1145 H       1  LIG1        0.0313
     43 H           2.7129   -4.1151   -0.3999 H       1  LIG1        0.0313
     44 H           0.6373   -4.8216    0.8220 H       1  LIG1        0.0266
     45 H           1.3038   -4.1737    2.3245 H       1  LIG1        0.0266
     46 H           2.4402   -6.4599    0.6337 H       1  LIG1        0.0230
     47 H           1.5131   -6.6235    2.1351 H       1  LIG1        0.0230
     48 H           3.1296   -5.8840    2.1721 H       1  LIG1        0.0230
@<TRIPOS>BOND
     1     1     2    1
     2     1     3    1
     3     3     4    1
     4     4     5   ar
     5     5     6   ar
     6     6     7   ar
     7     7     8   ar
     8     8     9   ar
     9     4     9   ar
    10     7    10    1
    11    10    11    1
    12    11    12    1
    13     6    12    1
    14     1    13    1
    15     1    14    1
    16    14    15   ar
    17    15    16    1
    18    15    17   ar
    19    17    18    1
    20    18    19    1
    21    17    20   ar
    22    20    21   ar
    23    21    22   ar
    24    14    22   ar
    25    21    23    1
    26    23    24    1
    27    24    25    1
    28     3    26    1
    29     3    27    1
    30     5    28    1
    31     8    29    1
    32     9    30    1
    33    11    31    1
    34    11    32    1
    35    13    33    1
    36    13    34    1
    37    13    35    1
    38    16    36    1
    39    19    37    1
    40    19    38    1
    41    19    39    1
    42    20    40    1
    43    22    41    1
    44    23    42    1
    45    23    43    1
    46    24    44    1
    47    24    45    1
    48    25    46    1
    49    25    47    1
    50    25    48    1
