REMARK  Name = NuBBE_1216
REMARK  11 active torsions:
REMARK  status: ('A' for Active; 'I' for Inactive)
REMARK    1  A    between atoms: C_4  and  C_20
REMARK    2  A    between atoms: C_8  and  O_9
REMARK    3  A    between atoms: O_9  and  C_10
REMARK    4  A    between atoms: C_11  and  O_12
REMARK    5  A    between atoms: O_12  and  C_13
REMARK    6  A    between atoms: C_14  and  O_15
REMARK    7  A    between atoms: O_15  and  C_16
REMARK    8  A    between atoms: C_17  and  O_18
REMARK    9  A    between atoms: O_18  and  C_19
REMARK   10  A    between atoms: C_23  and  O_26
REMARK   11  A    between atoms: O_26  and  C_27
REMARK                            x       y       z     vdW  Elec       q    Type
REMARK                         _______ _______ _______ _____ _____    ______ ____
ROOT
ATOM      1  O   LIG A   1       0.076   0.234  -3.968  0.00  0.00    -0.287 OA
ATOM      2  C   LIG A   1      -0.040  -0.017  -2.719  0.00  0.00    +0.197 A 
ATOM      3  C   LIG A   1      -0.428  -1.346  -2.275  0.00  0.00    +0.098 A 
ATOM      4  C   LIG A   1       0.005  -1.710  -1.055  0.00  0.00    +0.139 A 
ATOM      5  O   LIG A   1       0.857  -0.901  -0.303  0.00  0.00    -0.451 OA
ATOM      6  C   LIG A   1       0.821   0.465  -0.512  0.00  0.00    +0.188 A 
ATOM      7  C   LIG A   1       0.241   0.978  -1.686  0.00  0.00    +0.113 A 
ATOM      8  C   LIG A   1      -0.060   2.346  -1.827  0.00  0.00    +0.180 A 
ATOM      9  C   LIG A   1       0.369   3.208  -0.774  0.00  0.00    +0.208 A 
ATOM     10  C   LIG A   1       1.130   2.709   0.356  0.00  0.00    +0.211 A 
ATOM     11  C   LIG A   1       1.352   1.317   0.485  0.00  0.00    +0.209 A 
ENDROOT
BRANCH   4  12
ATOM     12  C   LIG A   1      -0.360  -3.001  -0.385  0.00  0.00    +0.018 A 
ATOM     13  C   LIG A   1      -1.223  -3.962  -0.939  0.00  0.00    +0.015 A 
ATOM     14  C   LIG A   1      -1.565  -5.127  -0.232  0.00  0.00    +0.046 A 
ATOM     15  C   LIG A   1      -1.078  -5.347   1.056  0.00  0.00    +0.120 A 
ATOM     16  C   LIG A   1      -0.203  -4.422   1.610  0.00  0.00    +0.046 A 
ATOM     17  C   LIG A   1       0.152  -3.271   0.898  0.00  0.00    +0.015 A 
BRANCH  15  18
ATOM     18  O   LIG A   1      -1.478  -6.502   1.671  0.00  0.00    -0.495 OA
ATOM     19  C   LIG A   1      -1.545  -6.432   3.094  0.00  0.00    +0.277 C 
ENDBRANCH  15  18
ENDBRANCH   4  12
BRANCH   8  20
ATOM     20  O   LIG A   1      -1.017   2.590  -2.792  0.00  0.00    -0.490 OA
ATOM     21  C   LIG A   1      -0.855   3.503  -3.883  0.00  0.00    +0.277 C 
ENDBRANCH   8  20
BRANCH   9  22
ATOM     22  O   LIG A   1       0.121   4.564  -0.641  0.00  0.00    -0.488 OA
ATOM     23  C   LIG A   1      -1.020   5.053  -1.298  0.00  0.00    +0.277 C 
ENDBRANCH   9  22
BRANCH  10  24
ATOM     24  O   LIG A   1       1.733   3.709   1.109  0.00  0.00    -0.488 OA
ATOM     25  C   LIG A   1       1.471   3.885   2.507  0.00  0.00    +0.277 C 
ENDBRANCH  10  24
BRANCH  11  26
ATOM     26  O   LIG A   1       2.089   0.623   1.427  0.00  0.00    -0.488 OA
ATOM     27  C   LIG A   1       2.686   1.395   2.440  0.00  0.00    +0.277 C 
ENDBRANCH  11  26
TORSDOF 6
