REMARK  Name = NuBBE_1558
REMARK  5 active torsions:
REMARK  status: ('A' for Active; 'I' for Inactive)
REMARK    1  A    between atoms: C_7  and  C_8
REMARK    2  A    between atoms: C_11  and  O_14
REMARK    3  A    between atoms: O_14  and  C_15
REMARK    4  A    between atoms: C_17  and  O_21
REMARK    5  A    between atoms: C_19  and  O_20
REMARK                            x       y       z     vdW  Elec       q    Type
REMARK                         _______ _______ _______ _____ _____    ______ ____
ROOT
ATOM      1  O   LIG A   1      -1.371  -1.209   0.378  0.00  0.00    -0.286 OA
ATOM      2  C   LIG A   1      -0.158  -1.196   0.215  0.00  0.00    +0.204 A 
ATOM      3  C   LIG A   1       0.634  -2.451   0.131  0.00  0.00    +0.106 A 
ATOM      4  C   LIG A   1       2.026  -2.348   0.106  0.00  0.00    +0.145 A 
ATOM      5  O   LIG A   1       2.688  -1.148   0.105  0.00  0.00    -0.462 OA
ATOM      6  C   LIG A   1       1.937  -0.001   0.068  0.00  0.00    +0.208 A 
ATOM      7  C   LIG A   1       0.600   0.098   0.121  0.00  0.00    +0.064 A 
ATOM      8  C   LIG A   1       2.834  -3.490   0.075  0.00  0.00    +0.092 A 
ATOM      9  C   LIG A   1       2.238  -4.744   0.058  0.00  0.00    +0.124 A 
ATOM     10  C   LIG A   1       0.855  -4.873   0.061  0.00  0.00    +0.091 A 
ATOM     11  C   LIG A   1       0.053  -3.728   0.096  0.00  0.00    +0.135 A 
ENDROOT
BRANCH   7  12
ATOM     12  C   LIG A   1      -0.073   1.425   0.079  0.00  0.00    -0.011 A 
ATOM     13  C   LIG A   1       0.516   2.574   0.638  0.00  0.00    +0.012 A 
ATOM     14  C   LIG A   1      -0.136   3.814   0.600  0.00  0.00    +0.046 A 
ATOM     15  C   LIG A   1      -1.397   3.941   0.021  0.00  0.00    +0.120 A 
ATOM     16  C   LIG A   1      -1.996   2.814  -0.534  0.00  0.00    +0.046 A 
ATOM     17  C   LIG A   1      -1.337   1.577  -0.510  0.00  0.00    +0.012 A 
BRANCH  15  18
ATOM     18  O   LIG A   1      -1.934   5.198   0.065  0.00  0.00    -0.495 OA
ATOM     19  C   LIG A   1      -3.239   5.352  -0.480  0.00  0.00    +0.277 C 
ENDBRANCH  15  18
ENDBRANCH   7  12
BRANCH  11  20
ATOM     20  O   LIG A   1      -1.304  -3.886   0.077  0.00  0.00    -0.506 OA
ATOM     21  H   LIG A   1      -1.535  -4.829   0.095  0.00  0.00    +0.292 HD
ENDBRANCH  11  20
BRANCH   9  22
ATOM     22  O   LIG A   1       2.980  -5.887   0.032  0.00  0.00    -0.506 OA
ATOM     23  H   LIG A   1       3.924  -5.656   0.048  0.00  0.00    +0.292 HD
ENDBRANCH   9  22
TORSDOF 4
