@<TRIPOS>MOLECULE
NuBBE_1618
 34 35 0 0 0
SMALL
GASTEIGER

@<TRIPOS>ATOM
      1 C          -1.1473   -0.0180    0.2060 C.2     1  LIG1       -0.0421
      2 C          -1.8030    0.2099   -0.9432 C.2     1  LIG1        0.0232
      3 C          -3.2682    0.4145   -1.0169 C.2     1  LIG1        0.3317
      4 O          -3.8073    0.8711   -2.0135 O.2     1  LIG1       -0.2456
      5 O          -3.8836    0.0182    0.1222 O.3     1  LIG1       -0.4649
      6 C          -5.2966    0.2230    0.1722 C.3     1  LIG1        0.0820
      7 C           0.3196   -0.1394    0.2846 C.ar    1  LIG1        0.0501
      8 C           0.9387   -1.3975    0.0564 C.ar    1  LIG1        0.1418
      9 O           0.0739   -2.4432   -0.2455 O.3     1  LIG1       -0.4937
     10 C           0.6448   -3.7211   -0.4866 C.3     1  LIG1        0.0788
     11 C           2.3510   -1.4742    0.1562 C.ar    1  LIG1        0.0820
     12 C           3.0208   -0.2887    0.4474 C.ar    1  LIG1        0.2313
     13 N           2.4993    0.9268    0.6577 N.ar    1  LIG1       -0.2046
     14 C           1.1455    0.9597    0.5749 C.ar    1  LIG1        0.1620
     15 C           0.5605    2.3294    0.7927 C.2     1  LIG1        0.3583
     16 O          -0.5250    2.5695    1.2964 O.2     1  LIG1       -0.2432
     17 O           1.4069    3.2455    0.2504 O.3     1  LIG1       -0.4634
     18 C           0.8923    4.5719    0.1492 C.3     1  LIG1        0.0820
     19 O           4.3664   -0.5011    0.5026 O.2     1  LIG1       -0.4449
     20 C           4.5740   -1.8172    0.2675 C.ar    1  LIG1        0.0952
     21 C           3.3780   -2.4597    0.0590 C.ar    1  LIG1       -0.0109
     22 H          -1.6698   -0.0787    1.1583 H       1  LIG1        0.0627
     23 H          -1.2902    0.3055   -1.8938 H       1  LIG1        0.0689
     24 H          -5.5679    0.4231    1.2142 H       1  LIG1        0.0661
     25 H          -5.8078   -0.6898   -0.1489 H       1  LIG1        0.0661
     26 H          -5.6256    1.0734   -0.4315 H       1  LIG1        0.0661
     27 H          -0.1667   -4.4270   -0.6839 H       1  LIG1        0.0660
     28 H           1.1758   -4.0848    0.3988 H       1  LIG1        0.0660
     29 H           1.2872   -3.7055   -1.3736 H       1  LIG1        0.0660
     30 H           0.4534    4.9187    1.0894 H       1  LIG1        0.0661
     31 H           0.1569    4.6092   -0.6599 H       1  LIG1        0.0661
     32 H           1.7226    5.2356   -0.1115 H       1  LIG1        0.0661
     33 H           5.6037   -2.1425    0.2862 H       1  LIG1        0.1030
     34 H           3.2879   -3.5168   -0.1336 H       1  LIG1        0.0657
@<TRIPOS>BOND
     1     1     2    2
     2     2     3    1
     3     3     4    2
     4     3     5    1
     5     5     6    1
     6     1     7    1
     7     7     8   ar
     8     8     9    1
     9     9    10    1
    10     8    11   ar
    11    11    12   ar
    12    12    13   ar
    13    13    14   ar
    14     7    14   ar
    15    14    15    1
    16    15    16    2
    17    15    17    1
    18    17    18    1
    19    12    19   ar
    20    19    20   ar
    21    20    21   ar
    22    11    21   ar
    23     1    22    1
    24     2    23    1
    25     6    24    1
    26     6    25    1
    27     6    26    1
    28    10    27    1
    29    10    28    1
    30    10    29    1
    31    18    30    1
    32    18    31    1
    33    18    32    1
    34    20    33    1
    35    21    34    1
