REMARK  Name = NuBBE_1736
REMARK  5 active torsions:
REMARK  status: ('A' for Active; 'I' for Inactive)
REMARK    1  A    between atoms: O_1  and  C_2
REMARK    2  A    between atoms: O_1  and  C_5
REMARK    3  A    between atoms: C_2  and  C_3
REMARK    4  A    between atoms: C_3  and  C_4
REMARK    5  A    between atoms: C_6  and  O_7
REMARK                            x       y       z     vdW  Elec       q    Type
REMARK                         _______ _______ _______ _____ _____    ______ ____
ROOT
ATOM      1  C   LIG A   1       0.631   0.378  -0.435  0.00  0.00    +0.162 A 
ATOM      2  C   LIG A   1       1.229   1.621  -0.201  0.00  0.00    +0.158 A 
ATOM      3  C   LIG A   1       2.611   1.774  -0.150  0.00  0.00    +0.049 A 
ATOM      4  C   LIG A   1       3.425   0.657  -0.338  0.00  0.00    +0.004 A 
ATOM      5  C   LIG A   1       2.851  -0.587  -0.585  0.00  0.00    +0.004 A 
ATOM      6  C   LIG A   1       1.459  -0.729  -0.643  0.00  0.00    +0.049 A 
ENDROOT
BRANCH   2   7
ATOM      7  O   LIG A   1       0.454   2.735  -0.013  0.00  0.00    -0.503 OA
ATOM      8  H   LIG A   1      -0.465   2.416  -0.099  0.00  0.00    +0.292 HD
ENDBRANCH   2   7
BRANCH   1   9
ATOM      9  O   LIG A   1      -0.740   0.376  -0.421  0.00  0.00    -0.488 OA
BRANCH   9  10
ATOM     10  C   LIG A   1      -1.407  -0.872  -0.612  0.00  0.00    +0.229 C 
BRANCH  10  11
ATOM     11  C   LIG A   1      -2.765  -0.838   0.087  0.00  0.00    +0.037 C 
ATOM     12  C   LIG A   1      -2.609  -0.712   1.597  0.00  0.00    +0.007 C 
ENDBRANCH  10  11
ENDBRANCH   9  10
ENDBRANCH   1   9
TORSDOF 4
