@<TRIPOS>MOLECULE
NuBBE_258
 71 75 0 0 0
SMALL
GASTEIGER

@<TRIPOS>ATOM
      1 O          -6.8373   -1.9427   -0.0026 O.2     1  LIG1       -0.2840
      2 C          -5.7616   -2.2342    0.5146 C.2     1  LIG1        0.2206
      3 C          -5.6405   -3.4865    1.3193 C.2     1  LIG1        0.1671
      4 O          -6.8024   -4.2124    1.5173 O.2     1  LIG1       -0.5030
      5 C          -4.4475   -3.8773    1.8073 C.2     1  LIG1        0.0022
      6 C          -4.3054   -5.1213    2.6428 C.3     1  LIG1       -0.0356
      7 C          -3.2545   -3.0835    1.4674 C.2     1  LIG1       -0.0144
      8 C          -2.0036   -3.5632    1.6289 C.2     1  LIG1       -0.0536
      9 C          -0.8379   -2.9013    1.0711 C.2     1  LIG1       -0.0569
     10 C          -0.8789   -1.6559    0.5451 C.2     1  LIG1       -0.0335
     11 C           0.2283   -1.0639   -0.2716 C.2     1  LIG1       -0.0382
     12 C           1.3054   -1.7471   -0.7680 C.2     1  LIG1       -0.0681
     13 C           1.4631   -3.2505   -0.8666 C.3     1  LIG1       -0.0432
     14 C           2.5377   -1.0732   -1.3765 C.3     1  LIG1       -0.0253
     15 C           2.6733    0.4703   -1.2946 C.3     1  LIG1       -0.0180
     16 C           4.0175    0.8370   -0.6233 C.3     1  LIG1        0.0129
     17 C           4.1833    2.3411   -0.5082 C.2     1  LIG1        0.1504
     18 C           3.0322    3.1298    0.1194 C.3     1  LIG1        0.1229
     19 C           3.1849    2.9777    1.6444 C.3     1  LIG1       -0.0425
     20 C           3.0530    4.6103   -0.2396 C.2     1  LIG1        0.3201
     21 O           3.4860    4.7985   -1.5126 O.3     1  LIG1       -0.4673
     22 C           3.2371    6.0886   -2.0671 C.3     1  LIG1        0.0817
     23 O           2.5769    5.4997    0.4738 O.2     1  LIG1       -0.2498
     24 C           1.6443    2.6052   -0.3552 C.3     1  LIG1       -0.0265
     25 O           5.2648    2.8534   -0.7970 O.2     1  LIG1       -0.2962
     26 C           2.7591    1.0331   -2.7436 C.3     1  LIG1       -0.0586
     27 C           1.5475    1.0655   -0.4001 C.3     1  LIG1       -0.0242
     28 H           1.7718    0.7506    0.6326 H       1  LIG1        0.0315
     29 C           0.1308    0.4385   -0.6750 C.3     1  LIG1       -0.0034
     30 C          -0.2777    0.5082   -2.1737 C.3     1  LIG1       -0.0553
     31 C          -0.9509    1.2256    0.0965 C.3     1  LIG1       -0.0422
     32 C          -2.2721    0.4721    0.1740 C.3     1  LIG1       -0.0388
     33 C          -2.1241   -0.8317    0.9757 C.3     1  LIG1        0.0189
     34 C          -1.9481   -0.4107    2.4761 C.3     1  LIG1       -0.0515
     35 C          -3.3947   -1.7184    0.9149 C.2     1  LIG1       -0.0259
     36 C          -4.5900   -1.3376    0.4300 C.2     1  LIG1       -0.0067
     37 H          -7.4888   -3.7279    1.0104 H       1  LIG1        0.2923
     38 H          -5.2700   -5.5721    2.8971 H       1  LIG1        0.0279
     39 H          -3.8047   -4.8922    3.5900 H       1  LIG1        0.0279
     40 H          -3.7258   -5.8834    2.1109 H       1  LIG1        0.0279
     41 H          -1.8126   -4.5499    2.0404 H       1  LIG1        0.0624
     42 H           0.0302   -3.5418    1.0330 H       1  LIG1        0.0621
     43 H           0.5081   -3.7639   -1.0062 H       1  LIG1        0.0275
     44 H           1.9967   -3.6441    0.0037 H       1  LIG1        0.0275
     45 H           2.0471   -3.5204   -1.7550 H       1  LIG1        0.0275
     46 H           2.6059   -1.3924   -2.4255 H       1  LIG1        0.0316
     47 H           3.4104   -1.5234   -0.8815 H       1  LIG1        0.0316
     48 H           4.8594    0.4416   -1.2051 H       1  LIG1        0.0347
     49 H           4.0967    0.4119    0.3837 H       1  LIG1        0.0347
     50 H           2.4127    3.5352    2.1865 H       1  LIG1        0.0244
     51 H           4.1589    3.3539    1.9800 H       1  LIG1        0.0244
     52 H           3.1190    1.9332    1.9644 H       1  LIG1        0.0244
     53 H           3.3733    6.0049   -3.1484 H       1  LIG1        0.0661
     54 H           3.9423    6.8289   -1.6782 H       1  LIG1        0.0661
     55 H           2.2033    6.3937   -1.8788 H       1  LIG1        0.0661
     56 H           1.3860    3.0199   -1.3371 H       1  LIG1        0.0283
     57 H           0.8911    3.0144    0.3291 H       1  LIG1        0.0283
     58 H           3.6944    0.7134   -3.2206 H       1  LIG1        0.0235
     59 H           2.7462    2.1254   -2.7818 H       1  LIG1        0.0235
     60 H           1.9652    0.6789   -3.4002 H       1  LIG1        0.0235
     61 H           0.2605   -0.2110   -2.7958 H       1  LIG1        0.0238
     62 H          -0.1234    1.5140   -2.5784 H       1  LIG1        0.0238
     63 H          -1.3294    0.2598   -2.3397 H       1  LIG1        0.0238
     64 H          -0.6020    1.4748    1.1043 H       1  LIG1        0.0274
     65 H          -1.1402    2.1875   -0.3986 H       1  LIG1        0.0274
     66 H          -2.6628    0.2685   -0.8277 H       1  LIG1        0.0277
     67 H          -3.0131    1.1323    0.6453 H       1  LIG1        0.0277
     68 H          -0.9812    0.0700    2.6591 H       1  LIG1        0.0241
     69 H          -2.0012   -1.2560    3.1716 H       1  LIG1        0.0241
     70 H          -2.7342    0.2912    2.7818 H       1  LIG1        0.0241
     71 H          -4.7875   -0.3689   -0.0087 H       1  LIG1        0.0660
@<TRIPOS>BOND
     1     2     3    1
     2     3     5    2
     3     5     7    1
     4     7     8    2
     5     8     9    1
     6     9    10    2
     7    10    11    1
     8    11    12    2
     9    12    14    1
    10    14    15    1
    11    15    16    1
    12    16    17    1
    13    17    18    1
    14    20    21    1
    15    21    22    1
    16    20    23    2
    17    18    24    1
    18    15    27    1
    19    24    27    1
    20    27    29    1
    21    11    29    1
    22    29    31    1
    23    31    32    1
    24    10    33    1
    25    32    33    1
    26    33    35    1
    27     7    35    1
    28    35    36    2
    29     2    36    1
    30     1     2    2
    31     3     4    1
    32     5     6    1
    33    12    13    1
    34    15    26    1
    35    17    25    2
    36    27    28    1
    37    29    30    1
    38    33    34    1
    39    18    20    1
    40    18    19    1
    41     4    37    1
    42     6    38    1
    43     6    39    1
    44     6    40    1
    45     8    41    1
    46     9    42    1
    47    13    43    1
    48    13    44    1
    49    13    45    1
    50    14    46    1
    51    14    47    1
    52    16    48    1
    53    16    49    1
    54    19    50    1
    55    19    51    1
    56    19    52    1
    57    22    53    1
    58    22    54    1
    59    22    55    1
    60    24    56    1
    61    24    57    1
    62    26    58    1
    63    26    59    1
    64    26    60    1
    65    30    61    1
    66    30    62    1
    67    30    63    1
    68    31    64    1
    69    31    65    1
    70    32    66    1
    71    32    67    1
    72    34    68    1
    73    34    69    1
    74    34    70    1
    75    36    71    1
