REMARK  Name = NuBBE_2503
REMARK  11 active torsions:
REMARK  status: ('A' for Active; 'I' for Inactive)
REMARK    1  A    between atoms: C_1  and  C_2
REMARK    2  A    between atoms: C_2  and  O_4
REMARK    3  A    between atoms: O_4  and  C_5
REMARK    4  A    between atoms: C_9  and  C_10
REMARK    5  A    between atoms: C_15  and  C_16
REMARK    6  A    between atoms: C_19  and  C_21
REMARK    7  A    between atoms: C_22  and  C_24
REMARK    8  A    between atoms: C_27  and  C_28
REMARK    9  A    between atoms: C_31  and  C_32
REMARK   10  A    between atoms: C_38  and  C_39
REMARK   11  A    between atoms: C_38  and  C_40
REMARK                            x       y       z     vdW  Elec       q    Type
REMARK                         _______ _______ _______ _____ _____    ______ ____
ROOT
ATOM      1  C   LIG A   1      -3.304  -2.736   3.097  0.00  0.00    +0.182 C 
ATOM      2  C   LIG A   1      -4.024  -1.772   2.151  0.00  0.00    +0.046 C 
ATOM      3  C   LIG A   1      -3.054  -0.880   1.386  0.00  0.00    +0.011 C 
ATOM      4  C   LIG A   1      -2.007  -1.662   0.552  0.00  0.00    -0.022 C 
ATOM      5  C   LIG A   1      -2.702  -2.258  -0.699  0.00  0.00    +0.012 C 
ATOM      6  C   LIG A   1      -0.858  -0.656   0.104  0.00  0.00    +0.021 C 
ATOM      7  C   LIG A   1      -1.360   0.372  -0.920  0.00  0.00    +0.009 C 
ATOM      8  C   LIG A   1      -0.291   1.411  -1.216  0.00  0.00    +0.008 C 
ATOM      9  C   LIG A   1       0.984   0.810  -1.853  0.00  0.00    -0.019 C 
ATOM     10  C   LIG A   1       0.566   0.177  -3.215  0.00  0.00    +0.012 C 
ATOM     11  C   LIG A   1       2.089   1.959  -2.057  0.00  0.00    +0.005 C 
ATOM     12  C   LIG A   1       1.948   3.144  -3.129  0.00  0.00    -0.007 C 
ATOM     13  C   LIG A   1       0.800   3.074  -4.135  0.00  0.00    +0.008 C 
ATOM     14  C   LIG A   1       2.103   4.564  -2.518  0.00  0.00    -0.011 C 
ATOM     15  C   LIG A   1       2.033   5.719  -3.528  0.00  0.00    +0.008 C 
ATOM     16  C   LIG A   1       3.420   4.698  -1.728  0.00  0.00    +0.004 C 
ATOM     17  C   LIG A   1       3.925   3.398  -1.104  0.00  0.00    +0.007 C 
ATOM     18  C   LIG A   1       2.776   2.442  -0.708  0.00  0.00    -0.028 C 
ATOM     19  C   LIG A   1       1.898   3.189   0.332  0.00  0.00    +0.011 C 
ATOM     20  C   LIG A   1       3.379   1.208  -0.001  0.00  0.00    +0.008 C 
ATOM     21  C   LIG A   1       2.332   0.138   0.307  0.00  0.00    +0.012 C 
ATOM     22  C   LIG A   1       1.568  -0.394  -0.939  0.00  0.00    -0.005 C 
ATOM     23  C   LIG A   1       2.609  -1.230  -1.762  0.00  0.00    +0.016 C 
ATOM     24  C   LIG A   1       0.439  -1.327  -0.371  0.00  0.00    -0.063 C 
ATOM     25  C   LIG A   1       0.620  -2.651  -0.164  0.00  0.00    -0.026 C 
ATOM     26  C   LIG A   1      -0.314  -3.547   0.603  0.00  0.00    +0.032 C 
ATOM     27  C   LIG A   1      -1.328  -2.752   1.449  0.00  0.00    +0.009 C 
ATOM     28  C   LIG A   1      -2.265  -3.637   2.356  0.00  0.00    +0.006 C 
ATOM     29  C   LIG A   1      -1.386  -4.358   3.420  0.00  0.00    +0.015 C 
ATOM     30  C   LIG A   1      -3.020  -4.758   1.612  0.00  0.00    +0.015 C 
ENDROOT
BRANCH   1  31
ATOM     31  O   LIG A   1      -2.612  -2.011   4.140  0.00  0.00    -0.461 OA
BRANCH  31  33
ATOM     32  C   LIG A   1      -2.495  -1.441   6.414  0.00  0.00    +0.136 C 
ATOM     33  C   LIG A   1      -3.368  -1.631   5.208  0.00  0.00    +0.304 C 
ATOM     34  O   LIG A   1      -4.584  -1.576   5.236  0.00  0.00    -0.251 OA
ENDBRANCH  31  33
ENDBRANCH   1  31
TORSDOF 2
