@<TRIPOS>MOLECULE
NuBBE_591
 43 47 0 0 0
SMALL
GASTEIGER

@<TRIPOS>ATOM
      1 C          -0.1381   -1.2965   -3.0656 C.3     1  LIG1       -0.0609
      2 C          -0.4711   -1.3288   -1.5595 C.3     1  LIG1       -0.0233
      3 H          -1.5551   -1.4993   -1.5109 H       1  LIG1        0.0314
      4 C           0.2322   -2.5276   -0.8919 C.3     1  LIG1        0.0227
      5 H           0.1782   -3.3718   -1.5936 H       1  LIG1        0.0381
      6 C           1.7096   -2.2903   -0.6283 C.2     1  LIG1        0.1666
      7 O           2.4777   -3.2295   -0.4268 O.2     1  LIG1       -0.2918
      8 C          -0.4334   -2.9875    0.4042 C.3     1  LIG1       -0.0551
      9 C          -0.1334    0.0394   -0.9068 C.3     1  LIG1        0.0168
     10 H          -0.4222    0.8126   -1.6360 H       1  LIG1        0.0401
     11 C          -0.9908    0.3329    0.3280 C.ar    1  LIG1       -0.0359
     12 C          -0.4693    0.3607    1.6452 C.ar    1  LIG1       -0.0543
     13 C          -1.2861    0.6396    2.7482 C.ar    1  LIG1       -0.0159
     14 C          -2.6180    0.8927    2.5148 C.ar    1  LIG1        0.1662
     15 O          -3.5519    1.1822    3.4592 O.3     1  LIG1       -0.4526
     16 C          -4.7252    1.3489    2.6366 C.3     1  LIG1        0.2332
     17 O          -4.4725    1.1541    1.2293 O.3     1  LIG1       -0.4526
     18 C          -3.1415    0.8761    1.2462 C.ar    1  LIG1        0.1665
     19 C          -2.3618    0.6041    0.1413 C.ar    1  LIG1       -0.0124
     20 C           1.3566    0.1997   -0.7119 C.ar    1  LIG1        0.0162
     21 C           2.2231   -0.8963   -0.5696 C.ar    1  LIG1        0.0251
     22 C           3.6097   -0.7011   -0.3689 C.ar    1  LIG1       -0.0473
     23 C           4.1514    0.5846   -0.3084 C.ar    1  LIG1       -0.0155
     24 C           3.2874    1.6454   -0.4527 C.ar    1  LIG1        0.1666
     25 C           1.9369    1.4611   -0.6500 C.ar    1  LIG1        0.1706
     26 O           1.2765    2.6477   -0.7688 O.3     1  LIG1       -0.4523
     27 C           2.3552    3.5891   -0.6012 C.3     1  LIG1        0.2332
     28 O           3.6379    2.9583   -0.4186 O.3     1  LIG1       -0.4526
     29 H           0.9315   -1.1588   -3.2516 H       1  LIG1        0.0233
     30 H          -0.6759   -0.4822   -3.5631 H       1  LIG1        0.0233
     31 H          -0.4443   -2.2311   -3.5480 H       1  LIG1        0.0233
     32 H          -0.2046   -2.3300    1.2455 H       1  LIG1        0.0237
     33 H          -0.0663   -3.9823    0.6829 H       1  LIG1        0.0237
     34 H          -1.5200   -3.0567    0.2931 H       1  LIG1        0.0237
     35 H           0.5831    0.1603    1.8347 H       1  LIG1        0.0622
     36 H          -0.8826    0.6570    3.7544 H       1  LIG1        0.0655
     37 H          -5.1165    2.3619    2.7853 H       1  LIG1        0.1166
     38 H          -5.4850    0.6277    2.9593 H       1  LIG1        0.1166
     39 H          -2.8096    0.6084   -0.8476 H       1  LIG1        0.0658
     40 H           4.2703   -1.5605   -0.2592 H       1  LIG1        0.0626
     41 H           5.2131    0.7414   -0.1537 H       1  LIG1        0.0655
     42 H           2.1428    4.2145    0.2736 H       1  LIG1        0.1166
     43 H           2.4023    4.2299   -1.4891 H       1  LIG1        0.1166
@<TRIPOS>BOND
     1     2     4    1
     2     4     6    1
     3     6     7    2
     4     2     9    1
     5     9    10    1
     6     9    11    1
     7    11    12   ar
     8    12    13   ar
     9    13    14   ar
    10    14    15    1
    11    15    16    1
    12    16    17    1
    13    17    18    1
    14    14    18   ar
    15    18    19   ar
    16    11    19   ar
    17     9    20    1
    18    20    21   ar
    19     6    21    1
    20    21    22   ar
    21    22    23   ar
    22    23    24   ar
    23    24    25   ar
    24    20    25   ar
    25    25    26    1
    26    26    27    1
    27    27    28    1
    28    24    28    1
    29     2     3    1
    30     2     1    1
    31     4     8    1
    32     4     5    1
    33     1    29    1
    34     1    30    1
    35     1    31    1
    36     8    32    1
    37     8    33    1
    38     8    34    1
    39    12    35    1
    40    13    36    1
    41    16    37    1
    42    16    38    1
    43    19    39    1
    44    22    40    1
    45    23    41    1
    46    27    42    1
    47    27    43    1
