REMARK  Name = NuBBE_2244
REMARK  6 active torsions:
REMARK  status: ('A' for Active; 'I' for Inactive)
REMARK    1  A    between atoms: C_1  and  C_2
REMARK    2  A    between atoms: C_2  and  C_3
REMARK    3  A    between atoms: C_13  and  C_14
REMARK    4  A    between atoms: C_15  and  O_17
REMARK    5  A    between atoms: C_19  and  C_20
REMARK    6  A    between atoms: C_19  and  C_21
REMARK                            x       y       z     vdW  Elec       q    Type
REMARK                         _______ _______ _______ _____ _____    ______ ____
ROOT
ATOM      1  C   LIG A   1      -4.167   1.478   0.840  0.00  0.00    +0.018 C 
ATOM      2  C   LIG A   1      -3.020   1.347  -0.193  0.00  0.00    +0.018 C 
ATOM      3  C   LIG A   1      -3.541   0.460  -1.350  0.00  0.00    +0.018 C 
ATOM      4  C   LIG A   1      -2.645   2.715  -0.808  0.00  0.00    -0.068 C 
ATOM      5  C   LIG A   1      -1.344   2.710  -1.571  0.00  0.00    +0.034 C 
ATOM      6  C   LIG A   1      -0.152   2.405  -0.667  0.00  0.00    +0.043 C 
ATOM      7  C   LIG A   1      -0.346   1.173   0.197  0.00  0.00    +0.108 C 
ATOM      8  O   LIG A   1      -1.115   1.518   1.385  0.00  0.00    -0.360 OA
ATOM      9  C   LIG A   1      -1.796   0.658   0.481  0.00  0.00    +0.108 C 
ATOM     10  C   LIG A   1      -2.008  -0.730   1.046  0.00  0.00    +0.039 C 
ATOM     11  C   LIG A   1      -0.750  -1.379   1.612  0.00  0.00    +0.007 C 
ATOM     12  C   LIG A   1       0.426  -1.193   0.649  0.00  0.00    +0.001 C 
ATOM     13  C   LIG A   1       0.906   0.296   0.576  0.00  0.00    +0.029 C 
ATOM     14  C   LIG A   1       1.484   0.813   1.924  0.00  0.00    +0.017 C 
ATOM     15  C   LIG A   1       2.051   0.337  -0.500  0.00  0.00    +0.124 C 
ATOM     16  C   LIG A   1       3.176  -0.690  -0.259  0.00  0.00    +0.042 C 
ATOM     17  C   LIG A   1       2.716  -2.145  -0.044  0.00  0.00    -0.012 C 
ATOM     18  C   LIG A   1       3.901  -2.937   0.556  0.00  0.00    +0.015 C 
ATOM     19  C   LIG A   1       1.557  -2.180   0.979  0.00  0.00    +0.015 C 
ATOM     20  C   LIG A   1      -3.346   3.858  -0.693  0.00  0.00    +0.008 C 
ENDROOT
BRANCH  15  21
ATOM     21  O   LIG A   1       2.696   1.618  -0.516  0.00  0.00    -0.391 OA
ATOM     22  H   LIG A   1       3.366   1.604  -1.222  0.00  0.00    +0.210 HD
ENDBRANCH  15  21
BRANCH  17  23
ATOM     23  C   LIG A   1       2.253  -2.728  -1.382  0.00  0.00    -0.028 C 
ATOM     24  C   LIG A   1       2.704  -3.830  -1.998  0.00  0.00    +0.004 C 
ENDBRANCH  17  23
TORSDOF 2
