@<TRIPOS>MOLECULE
NuBBE_217
 40 41 0 0 0
SMALL
GASTEIGER

@<TRIPOS>ATOM
      1 O           2.5825    3.3264    1.5939 O.3     1  LIG1       -0.5065
      2 C           1.7389    2.2841    1.3288 C.ar    1  LIG1        0.1200
      3 C           0.6927    2.4393    0.4182 C.ar    1  LIG1       -0.0161
      4 C          -0.1749    1.3696    0.1182 C.ar    1  LIG1       -0.0352
      5 C           0.0409    0.1347    0.7567 C.ar    1  LIG1       -0.0399
      6 C           1.0751    0.0152    1.7085 C.ar    1  LIG1       -0.0517
      7 C           1.9326    1.0814    1.9995 C.ar    1  LIG1       -0.0087
      8 C           3.0345    0.9207    3.0050 C.3     1  LIG1       -0.0362
      9 C          -0.8275   -1.0803    0.4642 C.3     1  LIG1       -0.0086
     10 H          -0.8814   -1.6829    1.3827 H       1  LIG1        0.0353
     11 C          -2.2647   -0.5790    0.2114 C.3     1  LIG1       -0.0191
     12 C          -2.3518    0.4172   -0.9433 C.3     1  LIG1        0.0623
     13 H          -3.3801    0.7993   -0.9842 H       1  LIG1        0.0599
     14 C          -1.3919    1.6251   -0.7680 C.3     1  LIG1        0.0077
     15 H          -1.9738    2.3739   -0.2090 H       1  LIG1        0.0371
     16 C          -1.0179    2.2527   -2.1180 C.3     1  LIG1       -0.0560
     17 O          -2.1552   -0.2798   -2.1730 O.3     1  LIG1       -0.3912
     18 C          -0.2265   -1.9950   -0.6556 C.3     1  LIG1       -0.0137
     19 H          -0.1286   -1.4292   -1.5893 H       1  LIG1        0.0326
     20 C          -1.1328   -3.2047   -0.9428 C.3     1  LIG1       -0.0598
     21 C           1.1894   -2.5006   -0.3089 C.3     1  LIG1        0.0473
     22 O           1.7067   -3.3442   -1.3348 O.3     1  LIG1       -0.3947
     23 H           2.3718    4.0584    0.9932 H       1  LIG1        0.2921
     24 H           0.5296    3.4096   -0.0404 H       1  LIG1        0.0657
     25 H           1.2168   -0.9315    2.2277 H       1  LIG1        0.0624
     26 H           3.0012   -0.0638    3.4835 H       1  LIG1        0.0279
     27 H           2.9405    1.6728    3.7953 H       1  LIG1        0.0279
     28 H           4.0096    1.0245    2.5187 H       1  LIG1        0.0279
     29 H          -2.6334   -0.0872    1.1227 H       1  LIG1        0.0296
     30 H          -2.9371   -1.4241    0.0317 H       1  LIG1        0.0296
     31 H          -0.3476    1.6011   -2.6892 H       1  LIG1        0.0236
     32 H          -0.5129    3.2162   -1.9970 H       1  LIG1        0.0236
     33 H          -1.9140    2.4428   -2.7188 H       1  LIG1        0.0236
     34 H          -2.5180    0.2668   -2.8906 H       1  LIG1        0.2098
     35 H          -0.7000   -3.8576   -1.7079 H       1  LIG1        0.0233
     36 H          -2.1126   -2.9006   -1.3197 H       1  LIG1        0.0233
     37 H          -1.2840   -3.8030   -0.0377 H       1  LIG1        0.0233
     38 H           1.1833   -3.0743    0.6235 H       1  LIG1        0.0560
     39 H           1.8989   -1.6765   -0.2022 H       1  LIG1        0.0560
     40 H           1.7218   -2.8176   -2.1529 H       1  LIG1        0.2094
@<TRIPOS>BOND
     1     1     2    1
     2     2     3   ar
     3     3     4   ar
     4     4     5   ar
     5     5     6   ar
     6     6     7   ar
     7     2     7   ar
     8     7     8    1
     9     5     9    1
    10     9    10    1
    11     9    11    1
    12    11    12    1
    13    12    14    1
    14     4    14    1
    15    18    20    1
    16    18    21    1
    17    21    22    1
    18    12    17    1
    19    12    13    1
    20    14    16    1
    21    14    15    1
    22    18    19    1
    23    18     9    1
    24     1    23    1
    25     3    24    1
    26     6    25    1
    27     8    26    1
    28     8    27    1
    29     8    28    1
    30    11    29    1
    31    11    30    1
    32    16    31    1
    33    16    32    1
    34    16    33    1
    35    17    34    1
    36    20    35    1
    37    20    36    1
    38    20    37    1
    39    21    38    1
    40    21    39    1
    41    22    40    1
