REMARK  Name = NuBBE_2337
REMARK  4 active torsions:
REMARK  status: ('A' for Active; 'I' for Inactive)
REMARK    1  A    between atoms: C_1  and  C_2
REMARK    2  A    between atoms: C_8  and  C_10
REMARK    3  A    between atoms: C_15  and  C_16
REMARK    4  A    between atoms: C_15  and  C_17
REMARK                            x       y       z     vdW  Elec       q    Type
REMARK                         _______ _______ _______ _____ _____    ______ ____
ROOT
ATOM      1  C   LIG A   1      -1.341   2.526  -0.637  0.00  0.00    +0.012 C 
ATOM      2  C   LIG A   1       0.172   2.332  -0.625  0.00  0.00    +0.012 C 
ATOM      3  C   LIG A   1       0.811   3.088   0.554  0.00  0.00    +0.012 C 
ATOM      4  C   LIG A   1       1.660   2.088   1.335  0.00  0.00    +0.031 C 
ATOM      5  C   LIG A   1       0.613   0.907  -0.416  0.00  0.00    -0.063 C 
ATOM      6  C   LIG A   1       1.439   0.788   0.631  0.00  0.00    -0.067 C 
ATOM      7  C   LIG A   1       2.039  -0.476   1.181  0.00  0.00    +0.012 C 
ATOM      8  C   LIG A   1       3.155  -1.037   0.293  0.00  0.00    +0.012 C 
ATOM      9  C   LIG A   1       0.944  -1.512   1.500  0.00  0.00    +0.012 C 
ATOM     10  C   LIG A   1       0.262  -2.174   0.296  0.00  0.00    +0.031 C 
ATOM     11  C   LIG A   1      -0.629  -1.272  -0.555  0.00  0.00    -0.067 C 
ATOM     12  C   LIG A   1       0.159  -0.210  -1.316  0.00  0.00    +0.061 C 
ATOM     13  C   LIG A   1      -1.972  -1.446  -0.675  0.00  0.00    -0.076 C 
ATOM     14  C   LIG A   1      -2.859  -0.692  -1.640  0.00  0.00    +0.038 C 
ATOM     15  C   LIG A   1      -2.790  -2.424   0.142  0.00  0.00    +0.038 C 
ENDROOT
TORSDOF 0
