@<TRIPOS>MOLECULE
NuBBE_190
 79 83 0 0 0
SMALL
GASTEIGER

@<TRIPOS>ATOM
      1 C          -5.0902   -1.2172    0.7548 C.3     1  LIG1       -0.0528
      2 C          -4.0783   -1.5122   -0.3811 C.3     1  LIG1        0.0267
      3 C          -4.3557   -0.4269   -1.4521 C.2     1  LIG1        0.1392
      4 C          -3.4364   -0.3219   -2.6256 C.3     1  LIG1        0.0069
      5 C          -1.9866   -0.3230   -2.1779 C.3     1  LIG1       -0.0404
      6 C          -1.5545   -1.5290   -1.2583 C.3     1  LIG1       -0.0243
      7 C          -2.5133   -1.3519   -0.0110 C.3     1  LIG1       -0.0235
      8 H          -2.4509   -0.2874    0.2735 H       1  LIG1        0.0315
      9 C          -1.9251   -2.0325    1.2329 C.3     1  LIG1       -0.0483
     10 C          -0.4861   -1.4543    1.5629 C.3     1  LIG1       -0.0463
     11 C           0.6476   -1.8294    0.5486 C.3     1  LIG1       -0.0194
     12 C           0.0511   -1.5729   -0.9560 C.3     1  LIG1       -0.0257
     13 C           0.7053   -0.4576   -1.8083 C.3     1  LIG1       -0.0306
     14 C           2.1543   -0.2844   -1.5542 C.2     1  LIG1       -0.0836
     15 C           2.2972    0.0333   -0.2576 C.2     1  LIG1       -0.0632
     16 C           2.2315   -1.1341    0.7248 C.3     1  LIG1       -0.0051
     17 C           2.7878   -0.7037    2.1373 C.3     1  LIG1       -0.0429
     18 C           3.5004    0.6904    2.1625 C.3     1  LIG1       -0.0463
     19 C           2.5592    1.7989    1.6349 C.3     1  LIG1       -0.0253
     20 C           2.3887    1.5086    0.1239 C.3     1  LIG1       -0.0111
     21 H           3.3882    1.7376   -0.2958 H       1  LIG1        0.0354
     22 C           1.4731    2.5449   -0.6179 C.3     1  LIG1       -0.0343
     23 H           1.5183    2.3249   -1.6941 H       1  LIG1        0.0307
     24 C           2.0814    3.9611   -0.4547 C.3     1  LIG1       -0.0407
     25 H           3.0730    3.9506   -0.9296 H       1  LIG1        0.0301
     26 C           2.3013    4.3019    1.0283 C.3     1  LIG1       -0.0497
     27 C           3.1489    3.2327    1.7574 C.3     1  LIG1       -0.0468
     28 C           1.2761    5.0392   -1.1922 C.3     1  LIG1       -0.0622
     29 C          -0.0134    2.5008   -0.2217 C.3     1  LIG1       -0.0616
     30 C           1.2947    1.7475    2.5071 C.3     1  LIG1       -0.0590
     31 C           3.3381   -2.1786    0.2687 C.3     1  LIG1       -0.0553
     32 C           0.8277   -3.3723    0.7791 C.3     1  LIG1       -0.0585
     33 C          -1.7564   -2.8203   -2.0887 C.3     1  LIG1       -0.0590
     34 O          -5.3468    0.3445   -1.3983 O.2     1  LIG1       -0.2968
     35 C          -4.4961   -2.8966   -0.9276 C.3     1  LIG1       -0.0528
     36 H          -4.9811   -0.2096    1.1680 H       1  LIG1        0.0239
     37 H          -5.0511   -1.9546    1.5583 H       1  LIG1        0.0239
     38 H          -6.1166   -1.2623    0.3483 H       1  LIG1        0.0239
     39 H          -3.6303    0.6273   -3.1433 H       1  LIG1        0.0342
     40 H          -3.6515   -1.1193   -3.3390 H       1  LIG1        0.0342
     41 H          -1.8318    0.6139   -1.6233 H       1  LIG1        0.0275
     42 H          -1.3900   -0.2638   -3.0902 H       1  LIG1        0.0275
     43 H          -1.9235   -3.1186    1.1135 H       1  LIG1        0.0269
     44 H          -2.5703   -1.8271    2.0972 H       1  LIG1        0.0269
     45 H          -0.2104   -1.8053    2.5673 H       1  LIG1        0.0271
     46 H          -0.5934   -0.3726    1.6241 H       1  LIG1        0.0271
     47 H           0.4299   -2.4736   -1.4622 H       1  LIG1        0.0315
     48 H           0.2183    0.4911   -1.6204 H       1  LIG1        0.0310
     49 H           0.5863   -0.6708   -2.8750 H       1  LIG1        0.0310
     50 H           2.5855   -1.2028   -1.9579 H       1  LIG1        0.0572
     51 H           3.5565   -1.4100    2.4878 H       1  LIG1        0.0274
     52 H           2.0168   -0.7651    2.9072 H       1  LIG1        0.0274
     53 H           4.4171    0.6500    1.5526 H       1  LIG1        0.0271
     54 H           3.8382    0.9195    3.1804 H       1  LIG1        0.0271
     55 H           1.3371    4.4293    1.5324 H       1  LIG1        0.0268
     56 H           2.8068    5.2713    1.1069 H       1  LIG1        0.0268
     57 H           3.2419    3.5158    2.8124 H       1  LIG1        0.0271
     58 H           4.1640    3.2570    1.3400 H       1  LIG1        0.0271
     59 H           1.6693    6.0377   -0.9775 H       1  LIG1        0.0233
     60 H           0.2158    5.0400   -0.9238 H       1  LIG1        0.0233
     61 H           1.3404    4.8845   -2.2759 H       1  LIG1        0.0233
     62 H          -0.3065    3.3147    0.4467 H       1  LIG1        0.0233
     63 H          -0.2935    1.5610    0.2589 H       1  LIG1        0.0233
     64 H          -0.6373    2.6068   -1.1169 H       1  LIG1        0.0233
     65 H           0.7537    0.8191    2.3761 H       1  LIG1        0.0235
     66 H           0.5868    2.5512    2.3198 H       1  LIG1        0.0235
     67 H           1.5662    1.8070    3.5680 H       1  LIG1        0.0235
     68 H           4.3143   -1.6902    0.1396 H       1  LIG1        0.0238
     69 H           3.1101   -2.6873   -0.6721 H       1  LIG1        0.0238
     70 H           3.4823   -2.9690    1.0170 H       1  LIG1        0.0238
     71 H          -0.1081   -3.9304    0.7226 H       1  LIG1        0.0235
     72 H           1.2609   -3.5642    1.7696 H       1  LIG1        0.0235
     73 H           1.4740   -3.8387    0.0318 H       1  LIG1        0.0235
     74 H          -2.7138   -2.8872   -2.5970 H       1  LIG1        0.0235
     75 H          -1.6146   -3.7131   -1.4728 H       1  LIG1        0.0235
     76 H          -1.0282   -2.8605   -2.9092 H       1  LIG1        0.0235
     77 H          -3.7366   -3.6579   -0.7415 H       1  LIG1        0.0239
     78 H          -4.7371   -2.8670   -1.9968 H       1  LIG1        0.0239
     79 H          -5.4007   -3.2872   -0.4457 H       1  LIG1        0.0239
@<TRIPOS>BOND
     1     2     3    1
     2     3     4    1
     3     4     5    1
     4     5     6    1
     5     6     7    1
     6     7     9    1
     7     9    10    1
     8    10    11    1
     9    11    12    1
    10    12    13    1
    11    13    14    1
    12    14    15    2
    13    15    16    1
    14    16    17    1
    15    17    18    1
    16    18    19    1
    17    19    20    1
    18    15    20    1
    19    20    22    1
    20    22    24    1
    21    24    26    1
    22    26    27    1
    23    27    19    1
    24    11    16    1
    25    12     6    1
    26     7     2    1
    27     1     2    1
    28     2    35    1
    29     3    34    2
    30     6    33    1
    31     7     8    1
    32    11    32    1
    33    16    31    1
    34    19    30    1
    35    20    21    1
    36    22    29    1
    37    22    23    1
    38    24    28    1
    39    24    25    1
    40     1    36    1
    41     1    37    1
    42     1    38    1
    43     4    39    1
    44     4    40    1
    45     5    41    1
    46     5    42    1
    47     9    43    1
    48     9    44    1
    49    10    45    1
    50    10    46    1
    51    12    47    1
    52    13    48    1
    53    13    49    1
    54    14    50    1
    55    17    51    1
    56    17    52    1
    57    18    53    1
    58    18    54    1
    59    26    55    1
    60    26    56    1
    61    27    57    1
    62    27    58    1
    63    28    59    1
    64    28    60    1
    65    28    61    1
    66    29    62    1
    67    29    63    1
    68    29    64    1
    69    30    65    1
    70    30    66    1
    71    30    67    1
    72    31    68    1
    73    31    69    1
    74    31    70    1
    75    32    71    1
    76    32    72    1
    77    32    73    1
    78    33    74    1
    79    33    75    1
    80    33    76    1
    81    35    77    1
    82    35    78    1
    83    35    79    1
