REMARK  Name = NuBBE_1307
REMARK  13 active torsions:
REMARK  status: ('A' for Active; 'I' for Inactive)
REMARK    1  A    between atoms: C_4  and  C_5
REMARK    2  A    between atoms: C_7  and  O_8
REMARK    3  A    between atoms: O_8  and  C_9
REMARK    4  A    between atoms: C_10  and  O_11
REMARK    5  A    between atoms: O_11  and  C_12
REMARK    6  A    between atoms: C_13  and  O_14
REMARK    7  A    between atoms: O_14  and  C_15
REMARK    8  A    between atoms: C_21  and  O_22
REMARK    9  A    between atoms: O_22  and  C_23
REMARK   10  A    between atoms: C_24  and  O_25
REMARK   11  A    between atoms: O_25  and  C_26
REMARK   12  A    between atoms: C_27  and  O_28
REMARK   13  A    between atoms: O_28  and  C_29
REMARK                            x       y       z     vdW  Elec       q    Type
REMARK                         _______ _______ _______ _____ _____    ______ ____
ROOT
ATOM      1  O   LIG A   1      -3.800   0.633   0.466  0.00  0.00    -0.287 OA
ATOM      2  C   LIG A   1      -2.587   0.626   0.368  0.00  0.00    +0.197 A 
ATOM      3  C   LIG A   1      -1.890  -0.680   0.376  0.00  0.00    +0.098 A 
ATOM      4  C   LIG A   1      -0.556  -0.744   0.283  0.00  0.00    +0.140 A 
ATOM      5  O   LIG A   1       0.236   0.384   0.182  0.00  0.00    -0.454 OA
ATOM      6  C   LIG A   1      -1.730   1.831   0.218  0.00  0.00    +0.109 A 
ATOM      7  C   LIG A   1      -0.358   1.618   0.135  0.00  0.00    +0.146 A 
ATOM      8  C   LIG A   1       0.526   2.685  -0.003  0.00  0.00    +0.096 A 
ATOM      9  C   LIG A   1       0.058   3.998  -0.038  0.00  0.00    +0.169 A 
ATOM     10  C   LIG A   1      -1.336   4.238   0.023  0.00  0.00    +0.204 A 
ATOM     11  C   LIG A   1      -2.237   3.141   0.147  0.00  0.00    +0.179 A 
ENDROOT
BRANCH   4  12
ATOM     12  C   LIG A   1       0.215  -2.020   0.285  0.00  0.00    +0.025 A 
ATOM     13  C   LIG A   1       1.615  -2.011   0.167  0.00  0.00    +0.061 A 
ATOM     14  C   LIG A   1       2.359  -3.198   0.200  0.00  0.00    +0.166 A 
ATOM     15  C   LIG A   1       1.707  -4.436   0.374  0.00  0.00    +0.203 A 
ATOM     16  C   LIG A   1       0.307  -4.468   0.471  0.00  0.00    +0.166 A 
ATOM     17  C   LIG A   1      -0.414  -3.265   0.430  0.00  0.00    +0.061 A 
BRANCH  14  18
ATOM     18  O   LIG A   1       3.732  -3.228   0.125  0.00  0.00    -0.491 OA
ATOM     19  C   LIG A   1       4.349  -2.216  -0.662  0.00  0.00    +0.277 C 
ENDBRANCH  14  18
BRANCH  15  20
ATOM     20  O   LIG A   1       2.544  -5.521   0.476  0.00  0.00    -0.488 OA
ATOM     21  C   LIG A   1       2.055  -6.765  -0.001  0.00  0.00    +0.277 C 
ENDBRANCH  15  20
BRANCH  16  22
ATOM     22  O   LIG A   1      -0.325  -5.664   0.699  0.00  0.00    -0.491 OA
ATOM     23  C   LIG A   1      -1.637  -5.797   0.156  0.00  0.00    +0.277 C 
ENDBRANCH  16  22
ENDBRANCH   4  12
BRANCH   9  24
ATOM     24  O   LIG A   1       0.898   5.074  -0.100  0.00  0.00    -0.491 OA
ATOM     25  C   LIG A   1       2.306   4.905  -0.138  0.00  0.00    +0.277 C 
ENDBRANCH   9  24
BRANCH  10  26
ATOM     26  O   LIG A   1      -1.927   5.476   0.003  0.00  0.00    -0.488 OA
ATOM     27  C   LIG A   1      -1.155   6.659  -0.108  0.00  0.00    +0.277 C 
ENDBRANCH  10  26
BRANCH  11  28
ATOM     28  O   LIG A   1      -3.598   3.263   0.289  0.00  0.00    -0.490 OA
ATOM     29  C   LIG A   1      -4.265   4.314  -0.399  0.00  0.00    +0.277 C 
ENDBRANCH  11  28
TORSDOF 7
