@<TRIPOS>MOLECULE
NuBBE_1890
 57 59 0 0 0
SMALL
GASTEIGER

@<TRIPOS>ATOM
      1 O          -3.3845   -1.5198    0.7823 O.2     1  LIG1       -0.2830
      2 C          -2.2250   -1.3684    0.4151 C.ar    1  LIG1        0.2381
      3 C          -1.3214   -2.5268    0.2858 C.ar    1  LIG1        0.1101
      4 C          -1.7679   -3.8324    0.0476 C.ar    1  LIG1        0.1495
      5 O          -3.1560   -4.0024   -0.1616 O.3     1  LIG1       -0.4251
      6 C          -3.8992   -5.1297    0.1837 C.2     1  LIG1        0.3092
      7 C          -5.3567   -4.7844    0.0573 C.3     1  LIG1        0.0336
      8 O          -3.4641   -6.1985    0.5839 O.2     1  LIG1       -0.2507
      9 C          -0.8492   -4.8796   -0.0651 C.ar    1  LIG1        0.0234
     10 C           0.5148   -4.6260    0.1355 C.ar    1  LIG1        0.1271
     11 C           0.9541   -3.3216    0.3717 C.ar    1  LIG1        0.0233
     12 C           0.0377   -2.2762    0.4127 C.ar    1  LIG1        0.1466
     13 O           0.5439   -1.0107    0.5523 O.2     1  LIG1       -0.4505
     14 C          -0.2760    0.0397    0.1748 C.ar    1  LIG1        0.1845
     15 C           0.4901    1.2624   -0.1396 C.ar    1  LIG1        0.0671
     16 C           0.9614    1.4600   -1.4516 C.ar    1  LIG1       -0.0012
     17 C           1.7102    2.6042   -1.7568 C.ar    1  LIG1        0.1739
     18 O           2.0117    2.8217   -3.1175 O.3     1  LIG1       -0.4223
     19 C           3.2617    3.3568   -3.4400 C.2     1  LIG1        0.3093
     20 C           3.1419    4.0885   -4.7424 C.3     1  LIG1        0.0336
     21 O           4.2995    3.2339   -2.8019 O.2     1  LIG1       -0.2507
     22 C           2.0019    3.5663   -0.7790 C.ar    1  LIG1        0.1657
     23 C           1.5582    3.3588    0.5243 C.ar    1  LIG1        0.0269
     24 C           0.7857    2.2334    0.8310 C.ar    1  LIG1        0.1461
     25 O           0.3104    2.0089    2.1422 O.3     1  LIG1       -0.4252
     26 C          -0.0694    3.0586    2.9944 C.2     1  LIG1        0.3092
     27 C          -0.5264    2.4737    4.2853 C.3     1  LIG1        0.0336
     28 O          -0.0469    4.2527    2.7422 O.2     1  LIG1       -0.2507
     29 O           2.6049    4.7310   -1.1761 O.3     1  LIG1       -0.4913
     30 C           3.5177    5.2929   -0.2370 C.3     1  LIG1        0.0790
     31 C          -1.6204   -0.0342    0.0917 C.ar    1  LIG1        0.2108
     32 O          -2.3694    1.0493   -0.3369 O.3     1  LIG1       -0.4883
     33 C          -3.7021    1.1412    0.1532 C.3     1  LIG1        0.0791
     34 O           1.3521   -5.7049    0.0290 O.3     1  LIG1       -0.4949
     35 C           2.5658   -5.6035    0.7726 C.3     1  LIG1        0.0788
     36 H          -5.5267   -4.1824   -0.8402 H       1  LIG1        0.0342
     37 H          -5.6738   -4.2277    0.9435 H       1  LIG1        0.0342
     38 H          -5.9502   -5.6980   -0.0326 H       1  LIG1        0.0342
     39 H          -1.1723   -5.8911   -0.2980 H       1  LIG1        0.0691
     40 H           2.0047   -3.0801    0.4894 H       1  LIG1        0.0691
     41 H           0.7273    0.7423   -2.2322 H       1  LIG1        0.0664
     42 H           2.2599    4.7361   -4.7226 H       1  LIG1        0.0342
     43 H           3.0742    3.3746   -5.5654 H       1  LIG1        0.0342
     44 H           4.0176    4.7292   -4.8819 H       1  LIG1        0.0342
     45 H           1.7703    4.0969    1.2877 H       1  LIG1        0.0692
     46 H           0.2530    1.8309    4.7090 H       1  LIG1        0.0342
     47 H          -1.4454    1.9043    4.1244 H       1  LIG1        0.0342
     48 H          -0.7290    3.2777    5.0022 H       1  LIG1        0.0342
     49 H           4.1049    6.0544   -0.7589 H       1  LIG1        0.0660
     50 H           4.2134    4.5425    0.1558 H       1  LIG1        0.0660
     51 H           2.9786    5.7916    0.5734 H       1  LIG1        0.0660
     52 H          -4.1336    2.0683   -0.2356 H       1  LIG1        0.0660
     53 H          -3.7100    1.1946    1.2466 H       1  LIG1        0.0660
     54 H          -4.3331    0.3281   -0.2158 H       1  LIG1        0.0660
     55 H           3.1130   -6.5437    0.6627 H       1  LIG1        0.0660
     56 H           2.3536   -5.4538    1.8371 H       1  LIG1        0.0660
     57 H           3.2144   -4.8096    0.3884 H       1  LIG1        0.0660
@<TRIPOS>BOND
     1     1     2    2
     2     2     3   ar
     3     3     4   ar
     4     4     5    1
     5     5     6    1
     6     6     7    1
     7     6     8    2
     8     4     9   ar
     9     9    10   ar
    10    10    11   ar
    11    11    12   ar
    12     3    12   ar
    13    12    13   ar
    14    13    14   ar
    15    14    15    1
    16    15    16   ar
    17    16    17   ar
    18    17    18    1
    19    18    19    1
    20    19    20    1
    21    19    21    2
    22    17    22   ar
    23    22    23   ar
    24    23    24   ar
    25    15    24   ar
    26    24    25    1
    27    25    26    1
    28    26    27    1
    29    26    28    2
    30    22    29    1
    31    29    30    1
    32    14    31   ar
    33     2    31   ar
    34    31    32    1
    35    32    33    1
    36    10    34    1
    37    34    35    1
    38     7    36    1
    39     7    37    1
    40     7    38    1
    41     9    39    1
    42    11    40    1
    43    16    41    1
    44    20    42    1
    45    20    43    1
    46    20    44    1
    47    23    45    1
    48    27    46    1
    49    27    47    1
    50    27    48    1
    51    30    49    1
    52    30    50    1
    53    30    51    1
    54    33    52    1
    55    33    53    1
    56    33    54    1
    57    35    55    1
    58    35    56    1
    59    35    57    1
