REMARK  Name = NuBBE_2424
REMARK  4 active torsions:
REMARK  status: ('A' for Active; 'I' for Inactive)
REMARK    1  A    between atoms: C_1  and  C_2
REMARK    2  A    between atoms: C_1  and  C_15
REMARK    3  A    between atoms: C_18  and  O_21
REMARK    4  A    between atoms: O_21  and  C_22
REMARK                            x       y       z     vdW  Elec       q    Type
REMARK                         _______ _______ _______ _____ _____    ______ ____
ROOT
ATOM      1  C   LIG A   1      -1.867   0.097  -0.307  0.00  0.00    +0.053 A 
ATOM      2  C   LIG A   1      -1.221   1.121  -1.044  0.00  0.00    +0.007 A 
ATOM      3  C   LIG A   1      -1.588   2.462  -0.737  0.00  0.00    -0.011 A 
ATOM      4  C   LIG A   1      -0.993   3.546  -1.407  0.00  0.00    +0.058 A 
ATOM      5  C   LIG A   1      -0.048   3.277  -2.371  0.00  0.00    +0.167 A 
ATOM      6  C   LIG A   1       0.308   1.996  -2.691  0.00  0.00    +0.167 A 
ATOM      7  C   LIG A   1      -0.251   0.903  -2.056  0.00  0.00    +0.059 A 
ATOM      8  O   LIG A   1       1.248   1.948  -3.674  0.00  0.00    -0.453 OA
ATOM      9  C   LIG A   1       1.492   3.356  -3.881  0.00  0.00    +0.466 C 
ATOM     10  O   LIG A   1       0.628   4.206  -3.099  0.00  0.00    -0.453 OA
ATOM     11  C   LIG A   1      -2.550   2.712   0.245  0.00  0.00    +0.028 A 
ATOM     12  C   LIG A   1      -3.122   1.640   0.899  0.00  0.00    +0.112 A 
ATOM     13  N   LIG A   1      -2.807   0.357   0.651  0.00  0.00    -0.259 NA
ENDROOT
BRANCH   1  14
ATOM     14  C   LIG A   1      -1.551  -1.375  -0.493  0.00  0.00    +0.091 C 
BRANCH  14  15
ATOM     15  C   LIG A   1      -0.396  -1.877   0.348  0.00  0.00    -0.041 A 
ATOM     16  C   LIG A   1       0.723  -2.488  -0.232  0.00  0.00    +0.007 A 
ATOM     17  C   LIG A   1       1.769  -2.962   0.573  0.00  0.00    +0.046 A 
ATOM     18  C   LIG A   1       1.710  -2.837   1.963  0.00  0.00    +0.120 A 
ATOM     19  C   LIG A   1       0.599  -2.228   2.541  0.00  0.00    +0.046 A 
ATOM     20  C   LIG A   1      -0.447  -1.762   1.743  0.00  0.00    +0.007 A 
BRANCH  18  21
ATOM     21  O   LIG A   1       2.781  -3.339   2.653  0.00  0.00    -0.495 OA
ATOM     22  C   LIG A   1       2.703  -3.243   4.073  0.00  0.00    +0.277 C 
ENDBRANCH  18  21
ENDBRANCH  14  15
ENDBRANCH   1  14
TORSDOF 3
