@<TRIPOS>MOLECULE
NuBBE_1727
 100 105 0 0 0
SMALL
GASTEIGER

@<TRIPOS>ATOM
      1 C          -3.4681    0.0123   -1.2647 C.3     1  LIG1       -0.0588
      2 C          -1.9411   -0.0431   -1.5369 C.3     1  LIG1       -0.0231
      3 C          -1.4313    1.2868   -2.2962 C.3     1  LIG1       -0.0232
      4 C          -0.0992    1.0260   -3.0780 C.3     1  LIG1       -0.0588
      5 C          -1.1444    2.5013   -1.3370 C.3     1  LIG1       -0.0297
      6 H          -0.0602    2.5942   -1.2258 H       1  LIG1        0.0310
      7 C          -1.7378    3.7730   -2.0271 C.3     1  LIG1       -0.0088
      8 H          -2.7105    3.9756   -1.5533 H       1  LIG1        0.0331
      9 C          -2.0226    3.3365   -3.4686 C.3     1  LIG1       -0.0468
     10 C          -2.4335    1.8776   -3.3179 C.3     1  LIG1       -0.0465
     11 C          -0.8915    5.0705   -1.9106 C.3     1  LIG1        0.0704
     12 C          -1.5945    6.2452   -2.6180 C.3     1  LIG1       -0.0355
     13 O          -0.7919    5.4566   -0.5182 O.3     1  LIG1       -0.3673
     14 C           0.5775    5.8041   -0.2082 C.3     1  LIG1        0.0876
     15 H           0.9825    4.9650    0.3722 H       1  LIG1        0.0625
     16 C           1.3094    5.8946   -1.5427 C.3     1  LIG1       -0.0213
     17 C           0.5466    4.9318   -2.4153 C.3     1  LIG1       -0.0213
     18 C           0.6436    7.0992    0.6450 C.3     1  LIG1        0.0865
     19 C          -0.1060    6.9498    1.9733 C.3     1  LIG1       -0.0339
     20 C           2.0939    7.5024    0.9193 C.3     1  LIG1       -0.0339
     21 O           0.0293    8.1827   -0.0681 O.3     1  LIG1       -0.3866
     22 C          -1.6552    2.3394    0.0876 C.3     1  LIG1       -0.0491
     23 C          -1.1835    1.0424    0.7277 C.3     1  LIG1       -0.0489
     24 C          -1.1031   -0.1860   -0.2132 C.3     1  LIG1       -0.0294
     25 H          -0.0573   -0.1745   -0.5580 H       1  LIG1        0.0312
     26 C          -1.2188   -1.5687    0.5589 C.3     1  LIG1       -0.0247
     27 C          -2.5986   -1.7321    1.2464 C.3     1  LIG1       -0.0590
     28 C          -0.8981   -2.7149   -0.4720 C.3     1  LIG1       -0.0250
     29 H           0.0914   -2.4513   -0.8845 H       1  LIG1        0.0315
     30 C          -1.8593   -2.6546   -1.6768 C.3     1  LIG1       -0.0484
     31 C          -1.7201   -1.3166   -2.4156 C.3     1  LIG1       -0.0466
     32 C          -0.6735   -4.1484    0.1287 C.3     1  LIG1        0.0082
     33 C          -1.9282   -4.8345    0.6876 C.3     1  LIG1       -0.0543
     34 C          -0.1194   -5.0914   -0.9735 C.3     1  LIG1       -0.0543
     35 C           0.3649   -3.9891    1.2707 C.2     1  LIG1        0.0427
     36 N           1.4115   -4.7602    1.2760 N.2     1  LIG1       -0.1908
     37 N           2.3507   -4.6087    2.2293 N.pl3   1  LIG1       -0.2356
     38 C           3.1776   -5.6942    2.5716 C.ar    1  LIG1        0.0785
     39 C           4.1842   -5.6052    3.5626 C.ar    1  LIG1        0.1507
     40 N           4.3988   -4.3614    4.3242 N.pl3   1  LIG1        0.0584
     41 O           3.6621   -3.3960    4.1048 O.2     1  LIG1       -0.1261
     42 O           5.3069   -4.3614    5.1733 O.2     1  LIG1       -0.1261
     43 C           5.0036   -6.7075    3.8675 C.ar    1  LIG1        0.0006
     44 C           4.8117   -7.8956    3.1653 C.ar    1  LIG1        0.1285
     45 C           3.8484   -8.0169    2.1665 C.ar    1  LIG1       -0.0296
     46 C           3.0540   -6.9119    1.8678 C.ar    1  LIG1       -0.0348
     47 N           5.6415   -9.0425    3.4742 N.pl3   1  LIG1        0.0565
     48 O           6.8671   -8.8903    3.3586 O.2     1  LIG1       -0.1261
     49 O           5.0670  -10.0720    3.8318 O.2     1  LIG1       -0.1261
     50 C           0.0494   -2.9481    2.3283 C.3     1  LIG1       -0.0118
     51 C          -0.1221   -1.5926    1.6639 C.3     1  LIG1       -0.0419
     52 H          -3.7739    0.8608   -0.6553 H       1  LIG1        0.0235
     53 H          -3.8445   -0.8813   -0.7707 H       1  LIG1        0.0235
     54 H          -4.0374    0.0536   -2.1994 H       1  LIG1        0.0235
     55 H           0.6567    0.5431   -2.4515 H       1  LIG1        0.0235
     56 H           0.3566    1.9515   -3.4448 H       1  LIG1        0.0235
     57 H          -0.2652    0.4034   -3.9639 H       1  LIG1        0.0235
     58 H          -1.1439    3.4341   -4.1134 H       1  LIG1        0.0269
     59 H          -2.8297    3.9226   -3.9206 H       1  LIG1        0.0269
     60 H          -2.4254    1.3496   -4.2770 H       1  LIG1        0.0271
     61 H          -3.4618    1.8759   -2.9478 H       1  LIG1        0.0271
     62 H          -2.5709    6.4464   -2.1627 H       1  LIG1        0.0257
     63 H          -1.7352    6.0611   -3.6870 H       1  LIG1        0.0257
     64 H          -1.0207    7.1732   -2.5184 H       1  LIG1        0.0257
     65 H           2.3664    5.6266   -1.4498 H       1  LIG1        0.0292
     66 H           1.2572    6.9001   -1.9721 H       1  LIG1        0.0292
     67 H           0.9605    3.9352   -2.2512 H       1  LIG1        0.0294
     68 H           0.6549    5.1432   -3.4832 H       1  LIG1        0.0294
     69 H           0.3081    6.1383    2.5798 H       1  LIG1        0.0258
     70 H          -1.1736    6.7619    1.8158 H       1  LIG1        0.0258
     71 H          -0.0443    7.8778    2.5555 H       1  LIG1        0.0258
     72 H           2.6329    6.7148    1.4554 H       1  LIG1        0.0258
     73 H           2.1371    8.4215    1.5146 H       1  LIG1        0.0258
     74 H           2.6294    7.7222   -0.0105 H       1  LIG1        0.0258
     75 H          -0.8838    7.8958   -0.2576 H       1  LIG1        0.2102
     76 H          -2.7453    2.4054    0.1246 H       1  LIG1        0.0268
     77 H          -1.3013    3.1736    0.7059 H       1  LIG1        0.0268
     78 H          -1.8077    0.8559    1.6055 H       1  LIG1        0.0268
     79 H          -0.1741    1.2154    1.1286 H       1  LIG1        0.0268
     80 H          -3.0819   -0.7742    1.4520 H       1  LIG1        0.0235
     81 H          -2.5337   -2.2272    2.2181 H       1  LIG1        0.0235
     82 H          -3.3000   -2.3236    0.6553 H       1  LIG1        0.0235
     83 H          -2.8965   -2.8333   -1.3829 H       1  LIG1        0.0269
     84 H          -1.6171   -3.4399   -2.4003 H       1  LIG1        0.0269
     85 H          -2.4027   -1.3047   -3.2747 H       1  LIG1        0.0271
     86 H          -0.7099   -1.3290   -2.8354 H       1  LIG1        0.0271
     87 H          -2.7201   -4.9004   -0.0654 H       1  LIG1        0.0239
     88 H          -2.3388   -4.3391    1.5676 H       1  LIG1        0.0239
     89 H          -1.6941   -5.8578    1.0079 H       1  LIG1        0.0239
     90 H          -0.8937   -5.3641   -1.6990 H       1  LIG1        0.0239
     91 H           0.2530   -6.0343   -0.5555 H       1  LIG1        0.0239
     92 H           0.7089   -4.6275   -1.5206 H       1  LIG1        0.0239
     93 H           2.3358   -3.8523    2.9170 H       1  LIG1        0.1744
     94 H           5.7710   -6.6502    4.6390 H       1  LIG1        0.0664
     95 H           3.7112   -8.9441    1.6172 H       1  LIG1        0.0641
     96 H           2.3098   -7.0021    1.0764 H       1  LIG1        0.0638
     97 H           0.8209   -2.8498    3.0900 H       1  LIG1        0.0326
     98 H          -0.8442   -3.2676    2.8693 H       1  LIG1        0.0326
     99 H           0.8435   -1.3016    1.2276 H       1  LIG1        0.0274
    100 H          -0.3462   -0.8564    2.4447 H       1  LIG1        0.0274
@<TRIPOS>BOND
     1     1     2    1
     2     2     3    1
     3     3     4    1
     4     3     5    1
     5     5     6    1
     6     5     7    1
     7     7     8    1
     8     7     9    1
     9     9    10    1
    10     3    10    1
    11     7    11    1
    12    11    12    1
    13    11    13    1
    14    13    14    1
    15    14    15    1
    16    14    16    1
    17    16    17    1
    18    11    17    1
    19    14    18    1
    20    18    19    1
    21    18    20    1
    22    18    21    1
    23     5    22    1
    24    22    23    1
    25    23    24    1
    26    24    25    1
    27     2    24    1
    28    24    26    1
    29    26    27    1
    30    26    28    1
    31    28    29    1
    32    28    30    1
    33    30    31    1
    34     2    31    1
    35    28    32    1
    36    32    33    1
    37    32    34    1
    38    32    35    1
    39    35    36    2
    40    36    37    1
    41    37    38    1
    42    38    39   ar
    43    39    40    1
    44    40    41    2
    45    40    42    2
    46    39    43   ar
    47    43    44   ar
    48    44    45   ar
    49    45    46   ar
    50    38    46   ar
    51    44    47    1
    52    47    48    2
    53    47    49    2
    54    35    50    1
    55    50    51    1
    56    26    51    1
    57     1    52    1
    58     1    53    1
    59     1    54    1
    60     4    55    1
    61     4    56    1
    62     4    57    1
    63     9    58    1
    64     9    59    1
    65    10    60    1
    66    10    61    1
    67    12    62    1
    68    12    63    1
    69    12    64    1
    70    16    65    1
    71    16    66    1
    72    17    67    1
    73    17    68    1
    74    19    69    1
    75    19    70    1
    76    19    71    1
    77    20    72    1
    78    20    73    1
    79    20    74    1
    80    21    75    1
    81    22    76    1
    82    22    77    1
    83    23    78    1
    84    23    79    1
    85    27    80    1
    86    27    81    1
    87    27    82    1
    88    30    83    1
    89    30    84    1
    90    31    85    1
    91    31    86    1
    92    33    87    1
    93    33    88    1
    94    33    89    1
    95    34    90    1
    96    34    91    1
    97    34    92    1
    98    37    93    1
    99    43    94    1
   100    45    95    1
   101    46    96    1
   102    50    97    1
   103    50    98    1
   104    51    99    1
   105    51   100    1
