REMARK  Name = NuBBE_388
REMARK  15 active torsions:
REMARK  status: ('A' for Active; 'I' for Inactive)
REMARK    1  A    between atoms: C_1  and  C_2
REMARK    2  A    between atoms: C_3  and  C_47
REMARK    3  A    between atoms: C_7  and  C_8
REMARK    4  A    between atoms: C_7  and  C_46
REMARK    5  A    between atoms: C_9  and  O_34
REMARK    6  A    between atoms: C_11  and  O_33
REMARK    7  A    between atoms: C_14  and  C_32
REMARK    8  A    between atoms: C_20  and  C_21
REMARK    9  A    between atoms: C_21  and  O_22
REMARK   10  A    between atoms: C_28  and  C_29
REMARK   11  A    between atoms: C_28  and  C_31
REMARK   12  A    between atoms: O_34  and  C_35
REMARK   13  A    between atoms: C_35  and  C_36
REMARK   14  A    between atoms: C_37  and  C_38
REMARK   15  A    between atoms: C_41  and  O_44
REMARK                            x       y       z     vdW  Elec       q    Type
REMARK                         _______ _______ _______ _____ _____    ______ ____
ROOT
ATOM      1  C   LIG A   1      -1.476   3.177  -1.999  0.00  0.00    +0.016 C 
ATOM      2  C   LIG A   1      -0.445   3.168  -0.822  0.00  0.00    -0.005 C 
ATOM      3  C   LIG A   1      -0.470   1.776   0.021  0.00  0.00    -0.019 C 
ATOM      4  C   LIG A   1      -1.865   1.538   0.654  0.00  0.00    +0.008 C 
ATOM      5  C   LIG A   1      -2.107   0.119   1.160  0.00  0.00    +0.005 C 
ATOM      6  C   LIG A   1      -1.900  -0.910   0.033  0.00  0.00    +0.004 C 
ATOM      7  C   LIG A   1      -2.501  -2.328   0.353  0.00  0.00    +0.008 C 
ATOM      8  C   LIG A   1      -2.121  -2.828   1.770  0.00  0.00    +0.015 C 
ATOM      9  C   LIG A   1      -2.159  -3.361  -0.783  0.00  0.00    +0.211 C 
ATOM     10  C   LIG A   1      -1.453  -2.765  -2.014  0.00  0.00    +0.156 C 
ATOM     11  C   LIG A   1      -0.276  -1.831  -1.730  0.00  0.00    +0.042 C 
ATOM     12  C   LIG A   1      -0.420  -0.880  -0.492  0.00  0.00    -0.023 C 
ATOM     13  C   LIG A   1      -0.117   0.609  -0.971  0.00  0.00    +0.006 C 
ATOM     14  C   LIG A   1       1.281   0.834  -1.593  0.00  0.00    +0.031 C 
ATOM     15  C   LIG A   1       1.635   2.271  -1.867  0.00  0.00    -0.026 C 
ATOM     16  C   LIG A   1       0.929   3.364  -1.498  0.00  0.00    -0.063 C 
ATOM     17  C   LIG A   1       1.360   4.798  -1.887  0.00  0.00    +0.033 C 
ATOM     18  C   LIG A   1       0.900   5.922  -0.903  0.00  0.00    +0.074 C 
ATOM     19  C   LIG A   1      -0.569   5.725  -0.474  0.00  0.00    +0.019 C 
ATOM     20  C   LIG A   1      -0.830   4.347   0.112  0.00  0.00    +0.012 C 
ATOM     21  C   LIG A   1       1.818   5.958   0.345  0.00  0.00    +0.019 C 
ATOM     22  C   LIG A   1       3.301   6.135   0.020  0.00  0.00    +0.007 C 
ATOM     23  C   LIG A   1       3.838   5.116  -1.003  0.00  0.00    -0.034 C 
ATOM     24  C   LIG A   1       5.206   5.611  -1.520  0.00  0.00    +0.011 C 
ATOM     25  C   LIG A   1       2.874   4.999  -2.213  0.00  0.00    +0.015 C 
ATOM     26  C   LIG A   1       4.088   3.768  -0.305  0.00  0.00    +0.011 C 
ATOM     27  C   LIG A   1       0.597  -1.351   0.575  0.00  0.00    +0.012 C 
ATOM     28  C   LIG A   1      -4.055  -2.210   0.369  0.00  0.00    +0.015 C 
ATOM     29  C   LIG A   1       0.563   1.850   1.193  0.00  0.00    +0.012 C 
ENDROOT
BRANCH  18  30
ATOM     30  C   LIG A   1       0.916   7.273  -1.638  0.00  0.00    +0.311 C 
ATOM     31  O   LIG A   1       0.694   7.459  -2.823  0.00  0.00    -0.250 OA
BRANCH  30  32
ATOM     32  O   LIG A   1       1.143   8.335  -0.839  0.00  0.00    -0.480 OA
ATOM     33  H   LIG A   1       1.132   9.101  -1.451  0.00  0.00    +0.295 HD
ENDBRANCH  30  32
ENDBRANCH  18  30
BRANCH  10  34
ATOM     34  O   LIG A   1      -2.402  -2.018  -2.797  0.00  0.00    -0.388 OA
ATOM     35  H   LIG A   1      -3.032  -2.651  -3.183  0.00  0.00    +0.210 HD
ENDBRANCH  10  34
BRANCH   9  36
ATOM     36  O   LIG A   1      -1.434  -4.488  -0.254  0.00  0.00    -0.455 OA
BRANCH  36  37
ATOM     37  C   LIG A   1      -2.229  -5.489   0.198  0.00  0.00    +0.332 C 
ATOM     38  O   LIG A   1      -3.452  -5.585   0.039  0.00  0.00    -0.246 OA
BRANCH  37  39
ATOM     39  C   LIG A   1      -1.443  -6.426   0.996  0.00  0.00    +0.092 C 
ATOM     40  C   LIG A   1      -2.026  -7.554   1.434  0.00  0.00    +0.015 C 
BRANCH  40  41
ATOM     41  C   LIG A   1      -1.251  -8.533   2.176  0.00  0.00    -0.025 A 
ATOM     42  C   LIG A   1      -1.198  -8.476   3.572  0.00  0.00    +0.011 A 
ATOM     43  C   LIG A   1      -0.411  -9.387   4.274  0.00  0.00    +0.046 A 
ATOM     44  C   LIG A   1       0.315 -10.347   3.572  0.00  0.00    +0.117 A 
ATOM     45  C   LIG A   1       0.267 -10.412   2.184  0.00  0.00    +0.046 A 
ATOM     46  C   LIG A   1      -0.519  -9.502   1.482  0.00  0.00    +0.011 A 
BRANCH  44  47
ATOM     47  O   LIG A   1       1.099 -11.252   4.222  0.00  0.00    -0.507 OA
ATOM     48  H   LIG A   1       1.016 -11.099   5.178  0.00  0.00    +0.292 HD
ENDBRANCH  44  47
ENDBRANCH  40  41
ENDBRANCH  37  39
ENDBRANCH  36  37
ENDBRANCH   9  36
TORSDOF 8
