REMARK  Name = NuBBE_367
REMARK  15 active torsions:
REMARK  status: ('A' for Active; 'I' for Inactive)
REMARK    1  A    between atoms: O_1  and  C_2
REMARK    2  A    between atoms: C_8  and  O_40
REMARK    3  A    between atoms: C_9  and  C_10
REMARK    4  A    between atoms: C_13  and  C_36
REMARK    5  A    between atoms: C_15  and  O_35
REMARK    6  A    between atoms: C_17  and  O_34
REMARK    7  A    between atoms: C_19  and  O_21
REMARK    8  A    between atoms: O_21  and  C_22
REMARK    9  A    between atoms: C_22  and  C_23
REMARK   10  A    between atoms: C_24  and  C_25
REMARK   11  A    between atoms: C_27  and  O_28
REMARK   12  A    between atoms: C_29  and  O_32
REMARK   13  A    between atoms: C_36  and  O_37
REMARK   14  A    between atoms: C_38  and  O_39
REMARK   15  A    between atoms: C_46  and  O_47
REMARK                            x       y       z     vdW  Elec       q    Type
REMARK                         _______ _______ _______ _____ _____    ______ ____
ROOT
ATOM      1  C   LIG A   1       0.039   0.672  -2.556  0.00  0.00    +0.199 C 
ATOM      2  O   LIG A   1       0.644   0.876  -3.845  0.00  0.00    -0.360 OA
ATOM      3  C   LIG A   1      -0.319   1.289  -4.829  0.00  0.00    +0.175 C 
ATOM      4  C   LIG A   1      -0.812   2.691  -4.468  0.00  0.00    +0.177 C 
ATOM      5  C   LIG A   1      -1.604   2.587  -3.159  0.00  0.00    +0.189 C 
ATOM      6  C   LIG A   1      -0.787   1.889  -2.058  0.00  0.00    +0.241 C 
ENDROOT
BRANCH   1  14
ATOM      7  C   LIG A   1       5.298  -3.260   3.445  0.00  0.00    +0.162 A 
ATOM      8  C   LIG A   1       5.283  -2.097   2.674  0.00  0.00    +0.096 A 
ATOM      9  C   LIG A   1       4.181  -1.827   1.858  0.00  0.00    +0.143 A 
ATOM     10  O   LIG A   1       4.224  -0.663   1.129  0.00  0.00    -0.454 OA
ATOM     11  C   LIG A   1       3.179  -0.386   0.280  0.00  0.00    +0.146 A 
ATOM     12  C   LIG A   1       3.273   0.795  -0.455  0.00  0.00    +0.093 A 
ATOM     13  C   LIG A   1       2.261   1.139  -1.357  0.00  0.00    +0.130 A 
ATOM     14  C   LIG A   1       1.140   0.314  -1.560  0.00  0.00    +0.068 A 
ATOM     15  C   LIG A   1       1.047  -0.854  -0.783  0.00  0.00    +0.141 A 
ATOM     16  C   LIG A   1       2.061  -1.202   0.125  0.00  0.00    +0.106 A 
ATOM     17  C   LIG A   1       1.982  -2.421   0.939  0.00  0.00    +0.204 A 
ATOM     18  O   LIG A   1       1.001  -3.156   0.871  0.00  0.00    -0.286 OA
ATOM     19  C   LIG A   1       3.115  -2.724   1.821  0.00  0.00    +0.068 A 
ATOM     20  C   LIG A   1       3.121  -3.888   2.595  0.00  0.00    +0.064 A 
ATOM     21  C   LIG A   1       4.220  -4.150   3.408  0.00  0.00    +0.159 A 
BRANCH   7  22
ATOM     22  O   LIG A   1       6.367  -3.546   4.246  0.00  0.00    -0.503 OA
ATOM     23  H   LIG A   1       7.036  -2.849   4.162  0.00  0.00    +0.292 HD
ENDBRANCH   7  22
BRANCH  15  24
ATOM     24  O   LIG A   1      -0.069  -1.640  -0.931  0.00  0.00    -0.505 OA
ATOM     25  H   LIG A   1       0.018  -2.427  -0.346  0.00  0.00    +0.292 HD
ENDBRANCH  15  24
BRANCH  13  26
ATOM     26  O   LIG A   1       2.355   2.319  -2.045  0.00  0.00    -0.506 OA
ATOM     27  H   LIG A   1       3.197   2.755  -1.832  0.00  0.00    +0.292 HD
ENDBRANCH  13  26
BRANCH  21  28
ATOM     28  O   LIG A   1       4.257  -5.279   4.176  0.00  0.00    -0.503 OA
ATOM     29  H   LIG A   1       3.438  -5.784   4.052  0.00  0.00    +0.292 HD
ENDBRANCH  21  28
ENDBRANCH   1  14
BRANCH   5  30
ATOM     30  O   LIG A   1      -1.966   3.917  -2.735  0.00  0.00    -0.385 OA
ATOM     31  H   LIG A   1      -2.383   4.327  -3.519  0.00  0.00    +0.210 HD
ENDBRANCH   5  30
BRANCH   4  32
ATOM     32  O   LIG A   1      -1.671   3.263  -5.459  0.00  0.00    -0.387 OA
ATOM     33  H   LIG A   1      -1.112   3.584  -6.189  0.00  0.00    +0.210 HD
ENDBRANCH   4  32
BRANCH   6  34
ATOM     34  O   LIG A   1      -1.605   1.529  -0.915  0.00  0.00    -0.453 OA
BRANCH  34  35
ATOM     35  C   LIG A   1      -2.566   0.586  -1.068  0.00  0.00    +0.332 C 
ATOM     36  O   LIG A   1      -2.927   0.077  -2.119  0.00  0.00    -0.246 OA
BRANCH  35  37
ATOM     37  C   LIG A   1      -3.166   0.235   0.232  0.00  0.00    +0.092 C 
ATOM     38  C   LIG A   1      -2.619   0.623   1.394  0.00  0.00    +0.015 C 
BRANCH  38  39
ATOM     39  C   LIG A   1      -3.247   0.341   2.677  0.00  0.00    -0.021 A 
ATOM     40  C   LIG A   1      -4.191   1.244   3.182  0.00  0.00    +0.057 A 
ATOM     41  C   LIG A   1      -4.765   0.999   4.422  0.00  0.00    +0.159 A 
ATOM     42  C   LIG A   1      -4.407  -0.132   5.151  0.00  0.00    +0.158 A 
ATOM     43  C   LIG A   1      -3.476  -1.036   4.656  0.00  0.00    +0.050 A 
ATOM     44  C   LIG A   1      -2.893  -0.799   3.410  0.00  0.00    +0.012 A 
BRANCH  41  45
ATOM     45  O   LIG A   1      -5.686   1.849   4.970  0.00  0.00    -0.503 OA
ATOM     46  H   LIG A   1      -5.831   2.580   4.343  0.00  0.00    +0.292 HD
ENDBRANCH  41  45
BRANCH  42  47
ATOM     47  O   LIG A   1      -4.973  -0.359   6.372  0.00  0.00    -0.503 OA
ATOM     48  H   LIG A   1      -5.583   0.394   6.501  0.00  0.00    +0.292 HD
ENDBRANCH  42  47
ENDBRANCH  38  39
ENDBRANCH  35  37
ENDBRANCH  34  35
ENDBRANCH   6  34
BRANCH   3  49
ATOM     49  C   LIG A   1       0.376   1.229  -6.189  0.00  0.00    +0.190 C 
BRANCH  49  50
ATOM     50  O   LIG A   1       0.824  -0.106  -6.435  0.00  0.00    -0.392 OA
ATOM     51  H   LIG A   1       1.212  -0.411  -5.591  0.00  0.00    +0.209 HD
ENDBRANCH  49  50
ENDBRANCH   3  49
TORSDOF 15
