REMARK  Name = NuBBE_1302
REMARK  10 active torsions:
REMARK  status: ('A' for Active; 'I' for Inactive)
REMARK    1  A    between atoms: C_2  and  C_3
REMARK    2  A    between atoms: C_2  and  C_13
REMARK    3  A    between atoms: C_4  and  C_5
REMARK    4  A    between atoms: C_8  and  O_11
REMARK    5  A    between atoms: O_11  and  C_12
REMARK    6  A    between atoms: C_14  and  O_27
REMARK    7  A    between atoms: C_16  and  O_25
REMARK    8  A    between atoms: C_20  and  C_21
REMARK    9  A    between atoms: C_20  and  C_22
REMARK   10  A    between atoms: O_25  and  C_26
REMARK                            x       y       z     vdW  Elec       q    Type
REMARK                         _______ _______ _______ _____ _____    ______ ____
ROOT
ATOM      1  C   LIG A   1      -1.405  -2.059  -0.136  0.00  0.00    +0.105 A 
ATOM      2  C   LIG A   1      -1.887  -3.256  -0.688  0.00  0.00    +0.135 A 
ATOM      3  C   LIG A   1      -1.323  -4.485  -0.358  0.00  0.00    +0.092 A 
ATOM      4  C   LIG A   1      -0.279  -4.554   0.564  0.00  0.00    +0.134 A 
ATOM      5  C   LIG A   1       0.214  -3.363   1.143  0.00  0.00    +0.059 A 
ATOM      6  C   LIG A   1      -0.341  -2.116   0.784  0.00  0.00    +0.147 A 
ATOM      7  O   LIG A   1       0.087  -0.946   1.366  0.00  0.00    -0.481 OA
ATOM      8  C   LIG A   1       1.390  -0.920   1.992  0.00  0.00    +0.123 C 
ATOM      9  C   LIG A   1       2.405  -0.404   0.964  0.00  0.00    +0.060 C 
ATOM     10  C   LIG A   1       1.288   0.082   3.150  0.00  0.00    +0.060 C 
ATOM     11  C   LIG A   1       1.843  -2.251   2.525  0.00  0.00    +0.020 C 
ATOM     12  C   LIG A   1       1.290  -3.402   2.136  0.00  0.00    +0.015 C 
ENDROOT
BRANCH   1  14
ATOM     13  O   LIG A   1      -3.257  -0.824  -0.881  0.00  0.00    -0.287 OA
ATOM     14  C   LIG A   1      -2.070  -0.799  -0.571  0.00  0.00    +0.193 C 
BRANCH  14  15
ATOM     15  C   LIG A   1      -1.243   0.414  -0.772  0.00  0.00    +0.052 C 
ATOM     16  C   LIG A   1      -1.811   1.620  -0.934  0.00  0.00    +0.012 C 
BRANCH  16  17
ATOM     17  C   LIG A   1      -1.021   2.834  -1.180  0.00  0.00    -0.025 A 
ATOM     18  C   LIG A   1      -1.561   3.881  -1.933  0.00  0.00    +0.011 A 
ATOM     19  C   LIG A   1      -0.810   5.036  -2.192  0.00  0.00    +0.046 A 
ATOM     20  C   LIG A   1       0.482   5.164  -1.682  0.00  0.00    +0.120 A 
ATOM     21  C   LIG A   1       1.023   4.128  -0.925  0.00  0.00    +0.046 A 
ATOM     22  C   LIG A   1       0.271   2.983  -0.662  0.00  0.00    +0.011 A 
BRANCH  20  23
ATOM     23  O   LIG A   1       1.314   6.228  -1.889  0.00  0.00    -0.495 OA
ATOM     24  C   LIG A   1       0.666   7.476  -2.103  0.00  0.00    +0.277 C 
ENDBRANCH  20  23
ENDBRANCH  16  17
ENDBRANCH  14  15
ENDBRANCH   1  14
BRANCH   4  25
ATOM     25  O   LIG A   1       0.314  -5.728   0.960  0.00  0.00    -0.494 OA
ATOM     26  C   LIG A   1      -0.171  -6.934   0.380  0.00  0.00    +0.277 C 
ENDBRANCH   4  25
BRANCH   2  27
ATOM     27  O   LIG A   1      -2.924  -3.306  -1.586  0.00  0.00    -0.506 OA
ATOM     28  H   LIG A   1      -3.377  -2.432  -1.578  0.00  0.00    +0.292 HD
ENDBRANCH   2  27
TORSDOF 6
