@<TRIPOS>MOLECULE
NuBBE_639
 101 103 0 0 0
SMALL
GASTEIGER

@<TRIPOS>ATOM
      1 C           1.5435    3.6204    4.2469 C.3     1  LIG1        0.0333
      2 C           2.0847    3.1516    2.9393 C.2     1  LIG1        0.3063
      3 O           1.2845    3.5874    1.9310 O.3     1  LIG1       -0.4311
      4 C           0.8396    2.6152    0.9618 C.3     1  LIG1        0.2315
      5 H           0.1199    3.1459    0.3381 H       1  LIG1        0.1111
      6 O           1.8881    2.1353    0.1322 O.3     1  LIG1       -0.2971
      7 C           2.2589    0.8295    0.5946 C.3     1  LIG1        0.2216
      8 H           2.8123    0.9051    1.5264 H       1  LIG1        0.1068
      9 O           3.2740    0.2574   -0.2739 O.3     1  LIG1       -0.4341
     10 C           4.4951    0.9375   -0.4231 C.2     1  LIG1        0.3061
     11 C           5.5772   -0.0611   -0.7891 C.3     1  LIG1        0.0333
     12 O           4.7526    2.1201   -0.2196 O.2     1  LIG1       -0.2511
     13 C           0.2237    1.3991    1.6347 C.2     1  LIG1        0.0136
     14 C          -0.3720    1.5093    2.8476 C.2     1  LIG1       -0.0380
     15 C          -0.0173    0.6068    3.9996 C.3     1  LIG1        0.1220
     16 H           0.3635    1.2003    4.8399 H       1  LIG1        0.0779
     17 O          -1.1072   -0.1635    4.5388 O.3     1  LIG1       -0.4573
     18 C          -2.0747    0.5778    5.1398 C.2     1  LIG1        0.3045
     19 C          -2.1635    0.3131    6.6149 C.3     1  LIG1        0.0333
     20 O          -2.7807    1.3861    4.5539 O.2     1  LIG1       -0.2511
     21 C           1.1205   -0.3455    3.5733 C.3     1  LIG1       -0.0075
     22 C           0.7974   -0.9784    2.1834 C.3     1  LIG1       -0.0127
     23 H          -0.2932   -1.0982    2.3211 H       1  LIG1        0.0319
     24 C           0.8517    0.0990    1.0107 C.3     1  LIG1        0.1037
     25 C          -0.2369   -0.4178   -0.0458 C.3     1  LIG1        0.1557
     26 H          -1.2470   -0.1321    0.3213 H       1  LIG1        0.0783
     27 O          -0.1356    0.0902   -1.4266 O.3     1  LIG1       -0.4534
     28 C          -0.8046    1.1874   -1.8404 C.2     1  LIG1        0.3323
     29 C          -1.0842    1.2410   -3.2989 C.2     1  LIG1        0.0225
     30 C          -1.1504    0.2565   -4.2063 C.2     1  LIG1       -0.0553
     31 C          -1.5812    0.3816   -5.5728 C.2     1  LIG1       -0.0655
     32 C          -2.4895    1.2751   -5.9747 C.2     1  LIG1       -0.0840
     33 C          -2.8530    1.4193   -7.4126 C.3     1  LIG1       -0.0345
     34 C          -3.7745    2.6127   -7.6710 C.3     1  LIG1       -0.0496
     35 C          -3.1029    3.9503   -7.3384 C.3     1  LIG1       -0.0530
     36 C          -3.9779    5.1678   -7.6384 C.3     1  LIG1       -0.0559
     37 C          -5.2433    5.2668   -6.7970 C.3     1  LIG1       -0.0653
     38 O          -1.2080    2.0870   -1.1179 O.2     1  LIG1       -0.2456
     39 C          -0.2860   -1.9803   -0.2638 C.3     1  LIG1        0.1438
     40 H           0.3708   -2.1799   -1.1022 H       1  LIG1        0.0775
     41 O          -1.6781   -2.3317   -0.6236 O.3     1  LIG1       -0.4575
     42 C          -1.8512   -2.3548   -1.9817 C.2     1  LIG1        0.3043
     43 C          -3.2930   -2.4744   -2.4048 C.3     1  LIG1        0.0332
     44 O          -0.9778   -2.2857   -2.7509 O.2     1  LIG1       -0.2512
     45 C           0.1445   -3.0301    0.7688 C.3     1  LIG1        0.0026
     46 H          -0.7930   -3.3292    1.2722 H       1  LIG1        0.0340
     47 C           0.5251   -4.3601    0.0639 C.3     1  LIG1       -0.0584
     48 C           1.1122   -2.5178    1.8832 C.3     1  LIG1       -0.0216
     49 C           0.4938   -3.2893    3.0414 C.3     1  LIG1       -0.0589
     50 C           2.6390   -2.9959    1.8495 C.3     1  LIG1       -0.0430
     51 C           3.6416   -2.5948    3.0130 C.3     1  LIG1       -0.0277
     52 C           3.5325   -3.2621    4.3940 C.2     1  LIG1       -0.0550
     53 C           2.3943   -3.1088    5.2641 C.2     1  LIG1       -0.0662
     54 C           1.5314   -4.1084    5.4927 C.2     1  LIG1       -0.0985
     55 C           4.5318   -3.9209    4.9948 C.2     1  LIG1       -0.0955
     56 O           3.0304    2.3968    2.8914 O.2     1  LIG1       -0.2511
     57 H           2.0465    4.5356    4.5208 H       1  LIG1        0.0342
     58 H           1.7341    2.8244    4.9757 H       1  LIG1        0.0342
     59 H           0.4612    3.7624    4.1952 H       1  LIG1        0.0342
     60 H           5.5581   -0.8545   -0.0406 H       1  LIG1        0.0342
     61 H           6.5822    0.3852   -0.7407 H       1  LIG1        0.0342
     62 H           5.4312   -0.4853   -1.7846 H       1  LIG1        0.0342
     63 H          -0.8124    2.4586    3.1546 H       1  LIG1        0.0610
     64 H          -2.7097    1.1407    7.0818 H       1  LIG1        0.0342
     65 H          -1.1635    0.2981    7.0573 H       1  LIG1        0.0342
     66 H          -2.6895   -0.6211    6.8202 H       1  LIG1        0.0342
     67 H           1.1267   -1.0565    4.3784 H       1  LIG1        0.0307
     68 H           2.0995    0.1432    3.5848 H       1  LIG1        0.0307
     69 H          -1.3557    2.2443   -3.6112 H       1  LIG1        0.0689
     70 H          -0.8773   -0.7580   -4.0085 H       1  LIG1        0.0620
     71 H          -1.1730   -0.3462   -6.2762 H       1  LIG1        0.0615
     72 H          -2.9194    1.9700   -5.2590 H       1  LIG1        0.0572
     73 H          -3.3333    0.4989   -7.7655 H       1  LIG1        0.0307
     74 H          -1.9210    1.5532   -7.9740 H       1  LIG1        0.0307
     75 H          -4.7007    2.4975   -7.0959 H       1  LIG1        0.0268
     76 H          -4.0467    2.6001   -8.7322 H       1  LIG1        0.0268
     77 H          -2.1829    4.0318   -7.9316 H       1  LIG1        0.0265
     78 H          -2.7938    3.9829   -6.2873 H       1  LIG1        0.0265
     79 H          -4.2481    5.1705   -8.6997 H       1  LIG1        0.0263
     80 H          -3.3771    6.0674   -7.4596 H       1  LIG1        0.0263
     81 H          -5.9525    4.4666   -7.0281 H       1  LIG1        0.0230
     82 H          -5.7510    6.2160   -7.0017 H       1  LIG1        0.0230
     83 H          -5.0142    5.2314   -5.7272 H       1  LIG1        0.0230
     84 H          -3.3411   -3.2886   -3.1341 H       1  LIG1        0.0342
     85 H          -3.6048   -1.5398   -2.8784 H       1  LIG1        0.0342
     86 H          -3.9536   -2.6985   -1.5697 H       1  LIG1        0.0342
     87 H           0.8117   -5.1577    0.7592 H       1  LIG1        0.0234
     88 H           1.3337   -4.2261   -0.6604 H       1  LIG1        0.0234
     89 H          -0.3448   -4.7420   -0.4888 H       1  LIG1        0.0234
     90 H          -0.5475   -3.0962    3.3179 H       1  LIG1        0.0235
     91 H           0.9785   -2.8136    3.8336 H       1  LIG1        0.0235
     92 H           0.6821   -4.3685    3.0188 H       1  LIG1        0.0235
     93 H           2.6725   -4.0999    1.8059 H       1  LIG1        0.0274
     94 H           3.0938   -2.6669    0.9056 H       1  LIG1        0.0274
     95 H           3.6657   -1.5070    3.1021 H       1  LIG1        0.0313
     96 H           4.6490   -2.8653    2.6411 H       1  LIG1        0.0313
     97 H           2.1173   -2.1088    5.5814 H       1  LIG1        0.0614
     98 H           1.6566   -5.0320    4.9319 H       1  LIG1        0.0535
     99 H           0.5629   -3.8570    5.9159 H       1  LIG1        0.0535
    100 H           5.5482   -3.8295    4.6481 H       1  LIG1        0.0537
    101 H           4.3439   -4.4683    5.9195 H       1  LIG1        0.0537
@<TRIPOS>BOND
     1     1     2    1
     2     2     3    1
     3     4     6    1
     4     6     7    1
     5     9    10    1
     6    10    11    1
     7    10    12    2
     8     4    13    1
     9    13    14    2
    10    14    15    1
    11    17    18    1
    12    18    19    1
    13    18    20    2
    14    15    21    1
    15    21    22    1
    16    22    24    1
    17     7    24    1
    18    13    24    1
    19    24    25    1
    20    27    28    1
    21    28    29    1
    22    29    30    2
    23    30    31    1
    24    31    32    2
    25    32    33    1
    26    33    34    1
    27    34    35    1
    28    35    36    1
    29    36    37    1
    30    28    38    2
    31    25    39    1
    32    41    42    1
    33    42    43    1
    34    42    44    2
    35    39    45    1
    36    45    48    1
    37    22    48    1
    38    50    51    1
    39    51    52    1
    40    52    53    1
    41    53    54    2
    42    52    55    2
    43     2    56    2
    44    22    23    1
    45    25    26    1
    46    25    27    1
    47    45    46    1
    48    45    47    1
    49    48    49    1
    50    48    50    1
    51     7     9    1
    52     7     8    1
    53     4     5    1
    54     4     3    1
    55    15    17    1
    56    15    16    1
    57    39    41    1
    58    39    40    1
    59     1    57    1
    60     1    58    1
    61     1    59    1
    62    11    60    1
    63    11    61    1
    64    11    62    1
    65    14    63    1
    66    19    64    1
    67    19    65    1
    68    19    66    1
    69    21    67    1
    70    21    68    1
    71    29    69    1
    72    30    70    1
    73    31    71    1
    74    32    72    1
    75    33    73    1
    76    33    74    1
    77    34    75    1
    78    34    76    1
    79    35    77    1
    80    35    78    1
    81    36    79    1
    82    36    80    1
    83    37    81    1
    84    37    82    1
    85    37    83    1
    86    43    84    1
    87    43    85    1
    88    43    86    1
    89    47    87    1
    90    47    88    1
    91    47    89    1
    92    49    90    1
    93    49    91    1
    94    49    92    1
    95    50    93    1
    96    50    94    1
    97    51    95    1
    98    51    96    1
    99    53    97    1
   100    54    98    1
   101    54    99    1
   102    55   100    1
   103    55   101    1
