@<TRIPOS>MOLECULE
NuBBE_2286
 52 55 0 0 0
SMALL
GASTEIGER

@<TRIPOS>ATOM
      1 O          -0.7726    1.4887   -0.9077 O.2     1  LIG1       -0.2502
      2 C           0.2893    0.8852   -0.8797 C.2     1  LIG1        0.3146
      3 C           0.8418    0.0917    0.2965 C.3     1  LIG1        0.0776
      4 C           0.1237   -1.2932    0.5817 C.3     1  LIG1       -0.0150
      5 C          -1.2951   -1.2016    1.2738 C.3     1  LIG1        0.0033
      6 C          -1.6932   -2.5859    1.8652 C.3     1  LIG1       -0.0550
      7 C          -2.3668   -0.8721    0.2275 C.2     1  LIG1        0.0388
      8 C          -2.2087   -1.2219   -1.0700 C.2     1  LIG1       -0.0735
      9 C          -1.0057   -1.8949   -1.6495 C.3     1  LIG1       -0.0337
     10 C           0.0610   -2.2578   -0.6243 C.3     1  LIG1       -0.0449
     11 C          -3.6742   -0.2658    0.6433 C.2     1  LIG1        0.3351
     12 O          -4.0810   -0.2399    1.7950 O.2     1  LIG1       -0.2453
     13 O          -4.3613    0.2027   -0.4311 O.3     1  LIG1       -0.4647
     14 C          -5.6686    0.6963   -0.1443 C.3     1  LIG1        0.0820
     15 C          -1.1595   -0.2572    2.4966 C.3     1  LIG1       -0.0428
     16 C          -0.5759    1.1071    2.1856 C.3     1  LIG1       -0.0486
     17 C           0.8284    0.9893    1.5771 C.3     1  LIG1       -0.0277
     18 C           1.3964    2.4083    1.3905 C.3     1  LIG1       -0.0614
     19 C           2.2939   -0.1559   -0.1602 C.3     1  LIG1        0.0050
     20 C           2.3140    0.1264   -1.6515 C.3     1  LIG1        0.1320
     21 O           1.1522    0.9028   -1.9271 O.3     1  LIG1       -0.4560
     22 C           3.5554    0.8242   -2.0983 C.ar    1  LIG1        0.0304
     23 C           3.7887    2.2291   -2.1769 C.ar    1  LIG1       -0.0172
     24 C           5.0724    2.3893   -2.6408 C.ar    1  LIG1        0.0921
     25 O           5.6510    1.1811   -2.8538 O.2     1  LIG1       -0.4706
     26 C           4.7306    0.2389   -2.5277 C.ar    1  LIG1        0.0983
     27 H           0.7785   -1.7937    1.3138 H       1  LIG1        0.0320
     28 H          -1.9178   -3.3286    1.0922 H       1  LIG1        0.0238
     29 H          -2.5887   -2.5047    2.4938 H       1  LIG1        0.0238
     30 H          -0.8923   -2.9943    2.4925 H       1  LIG1        0.0238
     31 H          -2.9871   -1.0110   -1.8009 H       1  LIG1        0.0577
     32 H          -0.5773   -1.2399   -2.4154 H       1  LIG1        0.0308
     33 H          -1.3236   -2.8050   -2.1718 H       1  LIG1        0.0308
     34 H           1.0306   -2.3597   -1.1190 H       1  LIG1        0.0271
     35 H          -0.1514   -3.2687   -0.2526 H       1  LIG1        0.0271
     36 H          -6.1507    0.9380   -1.0955 H       1  LIG1        0.0661
     37 H          -5.6081    1.6069    0.4585 H       1  LIG1        0.0661
     38 H          -6.2698   -0.0679    0.3585 H       1  LIG1        0.0661
     39 H          -0.4997   -0.7348    3.2369 H       1  LIG1        0.0274
     40 H          -2.1096   -0.1275    3.0226 H       1  LIG1        0.0274
     41 H          -0.5136    1.6757    3.1228 H       1  LIG1        0.0268
     42 H          -1.2531    1.6691    1.5348 H       1  LIG1        0.0268
     43 H           1.4672    0.4944    2.3235 H       1  LIG1        0.0309
     44 H           0.7636    3.0194    0.7392 H       1  LIG1        0.0233
     45 H           2.4059    2.4050    0.9729 H       1  LIG1        0.0233
     46 H           1.4550    2.9198    2.3582 H       1  LIG1        0.0233
     47 H           2.6433   -1.1751    0.0442 H       1  LIG1        0.0315
     48 H           3.0086    0.4801    0.3728 H       1  LIG1        0.0315
     49 H           2.2119   -0.8026   -2.2233 H       1  LIG1        0.0786
     50 H           3.0979    3.0248   -1.9315 H       1  LIG1        0.0653
     51 H           5.6879    3.2500   -2.8635 H       1  LIG1        0.1029
     52 H           5.0560   -0.7848   -2.6537 H       1  LIG1        0.1033
@<TRIPOS>BOND
     1     1     2    2
     2     2     3    1
     3     3     4    1
     4     4     5    1
     5     5     6    1
     6     5     7    1
     7     7     8    2
     8     8     9    1
     9     9    10    1
    10     4    10    1
    11     7    11    1
    12    11    12    2
    13    11    13    1
    14    13    14    1
    15     5    15    1
    16    15    16    1
    17    16    17    1
    18     3    17    1
    19    17    18    1
    20     3    19    1
    21    19    20    1
    22    20    21    1
    23     2    21    1
    24    20    22    1
    25    22    23   ar
    26    23    24   ar
    27    24    25   ar
    28    25    26   ar
    29    22    26   ar
    30     4    27    1
    31     6    28    1
    32     6    29    1
    33     6    30    1
    34     8    31    1
    35     9    32    1
    36     9    33    1
    37    10    34    1
    38    10    35    1
    39    14    36    1
    40    14    37    1
    41    14    38    1
    42    15    39    1
    43    15    40    1
    44    16    41    1
    45    16    42    1
    46    17    43    1
    47    18    44    1
    48    18    45    1
    49    18    46    1
    50    19    47    1
    51    19    48    1
    52    20    49    1
    53    23    50    1
    54    24    51    1
    55    26    52    1
