@<TRIPOS>MOLECULE
NuBBE_1720
 41 44 0 0 0
SMALL
GASTEIGER

@<TRIPOS>ATOM
      1 O          -3.3457   -0.8978   -0.2945 O.3     1  LIG1       -0.4942
      2 C          -4.0509   -2.1158   -0.1022 C.3     1  LIG1        0.0788
      3 C          -1.9811   -0.9087   -0.2022 C.ar    1  LIG1        0.1380
      4 C          -1.3051    0.3248   -0.2874 C.ar    1  LIG1        0.1069
      5 C           0.0962    0.3685   -0.2033 C.ar    1  LIG1        0.1534
      6 C           0.8367   -0.8161   -0.0298 C.ar    1  LIG1        0.0597
      7 C           0.1579   -2.0316    0.0622 C.ar    1  LIG1        0.1359
      8 C          -1.2341   -2.0789   -0.0344 C.ar    1  LIG1        0.0234
      9 O           0.7752   -3.2421    0.2202 O.3     1  LIG1       -0.4814
     10 C           2.1702   -3.2620    0.5870 C.3     1  LIG1        0.1235
     11 C           2.9119   -1.9712    0.3366 C.2     1  LIG1       -0.0408
     12 C           2.2958   -0.8227    0.0425 C.2     1  LIG1       -0.0478
     13 C           2.8064   -4.3818   -0.2450 C.3     1  LIG1       -0.0215
     14 C           2.2443   -3.6202    2.0760 C.3     1  LIG1       -0.0215
     15 O           0.8271    1.5351   -0.2773 O.2     1  LIG1       -0.4536
     16 C           0.1696    2.7282   -0.3935 C.ar    1  LIG1        0.1430
     17 C          -1.2138    2.8396   -0.4878 C.ar    1  LIG1        0.0684
     18 C          -2.0233    1.6140   -0.4580 C.ar    1  LIG1        0.2039
     19 O          -3.2380    1.7147   -0.5687 O.2     1  LIG1       -0.2863
     20 C          -1.8285    4.0948   -0.6049 C.ar    1  LIG1       -0.0022
     21 C          -1.0317    5.2309   -0.6233 C.ar    1  LIG1        0.1591
     22 C           0.3538    5.1186   -0.5293 C.ar    1  LIG1        0.1618
     23 C           0.9633    3.8765   -0.4160 C.ar    1  LIG1        0.0265
     24 O           1.1304    6.2411   -0.5468 O.3     1  LIG1       -0.5032
     25 O          -1.5631    6.4854   -0.7310 O.3     1  LIG1       -0.5033
     26 H          -5.1212   -1.8946   -0.1561 H       1  LIG1        0.0660
     27 H          -3.8487   -2.5389    0.8873 H       1  LIG1        0.0660
     28 H          -3.8195   -2.8336   -0.8957 H       1  LIG1        0.0660
     29 H          -1.7064   -3.0543    0.0269 H       1  LIG1        0.0691
     30 H           3.9955   -1.9850    0.4216 H       1  LIG1        0.0611
     31 H           2.8535    0.0923   -0.1230 H       1  LIG1        0.0624
     32 H           2.7292   -4.1642   -1.3171 H       1  LIG1        0.0271
     33 H           2.2832   -5.3320   -0.0853 H       1  LIG1        0.0271
     34 H           3.8641   -4.5268    0.0015 H       1  LIG1        0.0271
     35 H           1.7553   -2.8535    2.6890 H       1  LIG1        0.0271
     36 H           3.2786   -3.7263    2.4209 H       1  LIG1        0.0271
     37 H           1.7146   -4.5586    2.2781 H       1  LIG1        0.0271
     38 H          -2.9103    4.1611   -0.6766 H       1  LIG1        0.0663
     39 H           2.0443    3.8066   -0.3437 H       1  LIG1        0.0692
     40 H           0.4963    6.9817   -0.6300 H       1  LIG1        0.2923
     41 H          -2.5320    6.4025   -0.7869 H       1  LIG1        0.2923
@<TRIPOS>BOND
     1     1     2    1
     2     1     3    1
     3     3     4   ar
     4     4     5   ar
     5     5     6   ar
     6     6     7   ar
     7     7     8   ar
     8     3     8   ar
     9     7     9    1
    10     9    10    1
    11    10    11    1
    12    11    12    2
    13     6    12    1
    14    10    13    1
    15    10    14    1
    16     5    15   ar
    17    15    16   ar
    18    16    17   ar
    19    17    18   ar
    20     4    18   ar
    21    18    19    2
    22    17    20   ar
    23    20    21   ar
    24    21    22   ar
    25    22    23   ar
    26    16    23   ar
    27    22    24    1
    28    21    25    1
    29     2    26    1
    30     2    27    1
    31     2    28    1
    32     8    29    1
    33    11    30    1
    34    12    31    1
    35    13    32    1
    36    13    33    1
    37    13    34    1
    38    14    35    1
    39    14    36    1
    40    14    37    1
    41    20    38    1
    42    23    39    1
    43    24    40    1
    44    25    41    1
