REMARK  Name = NuBBE_1338
REMARK  5 active torsions:
REMARK  status: ('A' for Active; 'I' for Inactive)
REMARK    1  A    between atoms: C_1  and  C_2
REMARK    2  A    between atoms: C_5  and  C_6
REMARK    3  A    between atoms: C_6  and  C_7
REMARK    4  A    between atoms: C_6  and  C_8
REMARK    5  A    between atoms: C_11  and  C_12
REMARK                            x       y       z     vdW  Elec       q    Type
REMARK                         _______ _______ _______ _____ _____    ______ ____
ROOT
ATOM      1  C   LIG A   1      -3.346  -1.164   0.039  0.00  0.00    +0.044 C 
ATOM      2  C   LIG A   1      -1.899  -1.125  -0.360  0.00  0.00    -0.047 C 
ATOM      3  C   LIG A   1      -1.229  -2.252  -0.661  0.00  0.00    -0.022 C 
ATOM      4  C   LIG A   1       0.217  -2.261  -1.056  0.00  0.00    +0.036 C 
ATOM      5  C   LIG A   1       1.030  -1.070  -0.501  0.00  0.00    +0.026 C 
ATOM      6  C   LIG A   1       0.214   0.214  -0.570  0.00  0.00    -0.036 A 
ATOM      7  C   LIG A   1       0.870   1.448  -0.736  0.00  0.00    +0.007 A 
ATOM      8  C   LIG A   1       0.159   2.651  -0.756  0.00  0.00    -0.050 A 
ATOM      9  C   LIG A   1       0.871   3.955  -0.959  0.00  0.00    +0.044 C 
ATOM     10  C   LIG A   1      -1.231   2.612  -0.642  0.00  0.00    +0.004 A 
ATOM     11  C   LIG A   1      -1.897   1.391  -0.498  0.00  0.00    +0.009 A 
ATOM     12  C   LIG A   1      -1.194   0.177  -0.469  0.00  0.00    -0.019 A 
ENDROOT
BRANCH   5  13
ATOM     13  C   LIG A   1       1.641  -1.380   0.905  0.00  0.00    -0.010 C 
ATOM     14  C   LIG A   1       2.707  -0.359   1.323  0.00  0.00    +0.008 C 
ATOM     15  C   LIG A   1       0.625  -1.540   2.039  0.00  0.00    +0.008 C 
ENDBRANCH   5  13
TORSDOF 1
