@<TRIPOS>MOLECULE
NuBBE_343
 33 33 0 0 0
SMALL
GASTEIGER

@<TRIPOS>ATOM
      1 O          -1.6568    2.6532   -2.1184 O.2     1  LIG1       -0.2510
      2 C          -0.4983    2.7287   -2.5259 C.2     1  LIG1        0.3050
      3 O          -0.1840    2.4789   -3.8134 O.3     1  LIG1       -0.4806
      4 C           0.6801    3.1801   -1.6980 C.3     1  LIG1        0.0487
      5 C           0.5436    2.8452   -0.2138 C.3     1  LIG1       -0.0174
      6 C           0.4476    1.3693    0.0898 C.ar    1  LIG1       -0.0397
      7 C           1.5819    0.5821    0.2914 C.ar    1  LIG1       -0.0129
      8 C           1.4765   -0.7861    0.6064 C.ar    1  LIG1        0.1654
      9 O           2.7128   -1.3617    0.7781 O.3     1  LIG1       -0.4913
     10 C           2.7909   -2.7476    1.0765 C.3     1  LIG1        0.0790
     11 C           0.2034   -1.3842    0.7300 C.ar    1  LIG1        0.2035
     12 O           0.1518   -2.7025    1.0986 O.3     1  LIG1       -0.4885
     13 C          -0.8986   -3.5251    0.6042 C.3     1  LIG1        0.0791
     14 C          -0.9413   -0.5738    0.5920 C.ar    1  LIG1        0.1654
     15 O          -2.1681   -1.1289    0.8587 O.3     1  LIG1       -0.4913
     16 C          -3.1809   -0.2412    1.3161 C.3     1  LIG1        0.0790
     17 C          -0.8078    0.7693    0.2202 C.ar    1  LIG1       -0.0129
     18 H           0.7621    2.5993   -4.0284 H       1  LIG1        0.2951
     19 H           0.7493    4.2695   -1.8155 H       1  LIG1        0.0381
     20 H           1.6020    2.7383   -2.0898 H       1  LIG1        0.0381
     21 H          -0.3325    3.3554    0.2079 H       1  LIG1        0.0318
     22 H           1.4053    3.2580    0.3263 H       1  LIG1        0.0318
     23 H           2.5732    1.0283    0.2284 H       1  LIG1        0.0658
     24 H           2.3966   -3.3493    0.2514 H       1  LIG1        0.0660
     25 H           2.3086   -2.9832    2.0304 H       1  LIG1        0.0660
     26 H           3.8489   -3.0046    1.1882 H       1  LIG1        0.0660
     27 H          -0.4426   -4.3755    0.0885 H       1  LIG1        0.0660
     28 H          -1.5749   -3.0578   -0.1149 H       1  LIG1        0.0660
     29 H          -1.4631   -3.9123    1.4584 H       1  LIG1        0.0660
     30 H          -3.9521   -0.8461    1.8011 H       1  LIG1        0.0660
     31 H          -3.6435    0.2817    0.4733 H       1  LIG1        0.0660
     32 H          -2.7981    0.4664    2.0597 H       1  LIG1        0.0660
     33 H          -1.6921    1.3763    0.0425 H       1  LIG1        0.0658
@<TRIPOS>BOND
     1     1     2    2
     2     2     3    1
     3     2     4    1
     4     4     5    1
     5     5     6    1
     6     6     7   ar
     7     7     8   ar
     8     8     9    1
     9     9    10    1
    10     8    11   ar
    11    11    12    1
    12    12    13    1
    13    11    14   ar
    14    14    15    1
    15    15    16    1
    16    14    17   ar
    17     6    17   ar
    18     3    18    1
    19     4    19    1
    20     4    20    1
    21     5    21    1
    22     5    22    1
    23     7    23    1
    24    10    24    1
    25    10    25    1
    26    10    26    1
    27    13    27    1
    28    13    28    1
    29    13    29    1
    30    16    30    1
    31    16    31    1
    32    16    32    1
    33    17    33    1
