@<TRIPOS>MOLECULE
NuBBE_77
 78 81 0 0 0
SMALL
GASTEIGER

@<TRIPOS>ATOM
      1 C           0.4522   -2.2059    1.3235 C.3     1  LIG1       -0.0590
      2 C           0.0221   -1.1115    0.2964 C.3     1  LIG1       -0.0256
      3 C          -0.4010    0.2184    0.9589 C.3     1  LIG1       -0.0320
      4 H          -0.6009    0.9372    0.1499 H       1  LIG1        0.0309
      5 C          -1.7231    0.2103    1.7418 C.3     1  LIG1       -0.0307
      6 H          -1.9905    1.2794    1.8144 H       1  LIG1        0.0309
      7 C          -2.8729   -0.4142    0.8877 C.3     1  LIG1       -0.0285
      8 H          -3.4752    0.4788    0.6438 H       1  LIG1        0.0312
      9 C          -2.4007   -0.8795   -0.5190 C.3     1  LIG1       -0.0486
     10 C          -1.1337   -1.7371   -0.5039 C.3     1  LIG1       -0.0468
     11 C          -3.9077   -1.3721    1.6058 C.3     1  LIG1       -0.0078
     12 C          -5.2980   -1.0241    0.9902 C.3     1  LIG1       -0.0556
     13 C          -3.9347   -1.1959    3.1181 C.2     1  LIG1       -0.0648
     14 C          -2.9205   -0.6416    3.8151 C.2     1  LIG1       -0.0839
     15 C          -1.6335   -0.2075    3.2052 C.3     1  LIG1       -0.0311
     16 C          -5.0099   -1.9590    3.8561 C.3     1  LIG1       -0.0051
     17 C          -4.7931   -3.4601    3.6136 C.3     1  LIG1        0.0590
     18 H          -3.8878   -3.7773    4.1463 H       1  LIG1        0.0596
     19 C          -4.6306   -3.8076    2.1288 C.3     1  LIG1       -0.0258
     20 C          -3.6388   -2.8880    1.3944 C.3     1  LIG1       -0.0413
     21 O          -5.8768   -4.2090    4.1597 O.3     1  LIG1       -0.3915
     22 C           0.8800    0.7313    1.6085 C.3     1  LIG1       -0.0492
     23 C           2.0010    0.2341    0.6705 C.3     1  LIG1       -0.0489
     24 C           1.3181   -0.6192   -0.4594 C.3     1  LIG1       -0.0294
     25 H           1.9539   -1.4831   -0.6974 H       1  LIG1        0.0312
     26 C           1.2027    0.2596   -1.7641 C.3     1  LIG1       -0.0224
     27 H           0.6583    1.1804   -1.5244 H       1  LIG1        0.0343
     28 C           2.5923    0.6521   -2.2682 C.2     1  LIG1       -0.0845
     29 C           3.0559    1.9165   -2.2863 C.2     1  LIG1       -0.0843
     30 C           4.4448    2.3278   -2.7503 C.3     1  LIG1       -0.0208
     31 H           4.9937    1.4121   -3.0150 H       1  LIG1        0.0345
     32 C           5.2460    3.0075   -1.5912 C.3     1  LIG1       -0.0405
     33 C           6.7198    3.2344   -1.9592 C.3     1  LIG1       -0.0621
     34 C           4.6588    4.3397   -1.1047 C.3     1  LIG1       -0.0621
     35 C           4.3880    3.1998   -4.0245 C.3     1  LIG1       -0.0494
     36 C           3.6202    2.5662   -5.1786 C.3     1  LIG1       -0.0647
     37 C           0.4763   -0.3808   -2.9497 C.3     1  LIG1       -0.0587
     38 H          -0.3957   -2.5574    1.9186 H       1  LIG1        0.0235
     39 H           1.2169   -1.8790    2.0325 H       1  LIG1        0.0235
     40 H           0.8573   -3.0793    0.7983 H       1  LIG1        0.0235
     41 H          -2.2090    0.0124   -1.1300 H       1  LIG1        0.0268
     42 H          -3.2001   -1.4114   -1.0454 H       1  LIG1        0.0268
     43 H          -0.8269   -2.0135   -1.5124 H       1  LIG1        0.0271
     44 H          -1.4070   -2.7072   -0.0747 H       1  LIG1        0.0271
     45 H          -5.5843    0.0093    1.2194 H       1  LIG1        0.0238
     46 H          -6.1101   -1.6616    1.3493 H       1  LIG1        0.0238
     47 H          -5.2836   -1.1318   -0.1006 H       1  LIG1        0.0238
     48 H          -2.9550   -0.6367    4.9013 H       1  LIG1        0.0572
     49 H          -0.9083   -1.0111    3.3580 H       1  LIG1        0.0310
     50 H          -1.2543    0.6442    3.7875 H       1  LIG1        0.0310
     51 H          -6.0101   -1.6432    3.5395 H       1  LIG1        0.0335
     52 H          -4.9872   -1.7650    4.9356 H       1  LIG1        0.0335
     53 H          -5.6066   -3.7870    1.6291 H       1  LIG1        0.0290
     54 H          -4.2941   -4.8485    2.0386 H       1  LIG1        0.0290
     55 H          -3.6767   -3.1473    0.3308 H       1  LIG1        0.0274
     56 H          -2.6320   -3.1336    1.7518 H       1  LIG1        0.0274
     57 H          -6.6857   -3.9517    3.6855 H       1  LIG1        0.2098
     58 H           1.0327    0.3375    2.6182 H       1  LIG1        0.0268
     59 H           0.8804    1.8241    1.6794 H       1  LIG1        0.0268
     60 H           2.7082   -0.3877    1.2325 H       1  LIG1        0.0268
     61 H           2.5787    1.0833    0.2994 H       1  LIG1        0.0268
     62 H           3.2236   -0.1573   -2.6320 H       1  LIG1        0.0572
     63 H           2.4038    2.7114   -1.9317 H       1  LIG1        0.0572
     64 H           5.2338    2.3162   -0.7369 H       1  LIG1        0.0301
     65 H           6.8323    3.9771   -2.7561 H       1  LIG1        0.0233
     66 H           7.1938    2.3042   -2.2868 H       1  LIG1        0.0233
     67 H           7.2784    3.6069   -1.0929 H       1  LIG1        0.0233
     68 H           4.7998    5.1373   -1.8415 H       1  LIG1        0.0233
     69 H           5.1598    4.6563   -0.1825 H       1  LIG1        0.0233
     70 H           3.5922    4.2669   -0.8792 H       1  LIG1        0.0233
     71 H           5.4094    3.3838   -4.3772 H       1  LIG1        0.0268
     72 H           3.9463    4.1789   -3.8082 H       1  LIG1        0.0268
     73 H           3.9448    1.5364   -5.3562 H       1  LIG1        0.0230
     74 H           3.7910    3.1379   -6.0969 H       1  LIG1        0.0230
     75 H           2.5430    2.5669   -4.9861 H       1  LIG1        0.0230
     76 H           0.5826    0.2317   -3.8540 H       1  LIG1        0.0235
     77 H          -0.5994   -0.4443   -2.7792 H       1  LIG1        0.0235
     78 H           0.8628   -1.3800   -3.1775 H       1  LIG1        0.0235
@<TRIPOS>BOND
     1     2     3    1
     2     3     5    1
     3     5     7    1
     4     7     9    1
     5     9    10    1
     6     2    10    1
     7     7    11    1
     8    11    13    1
     9    13    14    2
    10    14    15    1
    11     5    15    1
    12    13    16    1
    13    16    17    1
    14    17    19    1
    15    19    20    1
    16    11    20    1
    17     3    22    1
    18    22    23    1
    19    23    24    1
    20     2    24    1
    21    26    27    1
    22    26    28    1
    23    28    29    2
    24    30    32    1
    25    32    33    1
    26    32    34    1
    27    30    35    1
    28    35    36    1
    29    26    37    1
    30     1     2    1
    31     3     4    1
    32     5     6    1
    33     7     8    1
    34    11    12    1
    35    17    21    1
    36    17    18    1
    37    24    26    1
    38    24    25    1
    39    30    31    1
    40    30    29    1
    41     1    38    1
    42     1    39    1
    43     1    40    1
    44     9    41    1
    45     9    42    1
    46    10    43    1
    47    10    44    1
    48    12    45    1
    49    12    46    1
    50    12    47    1
    51    14    48    1
    52    15    49    1
    53    15    50    1
    54    16    51    1
    55    16    52    1
    56    19    53    1
    57    19    54    1
    58    20    55    1
    59    20    56    1
    60    21    57    1
    61    22    58    1
    62    22    59    1
    63    23    60    1
    64    23    61    1
    65    28    62    1
    66    29    63    1
    67    32    64    1
    68    33    65    1
    69    33    66    1
    70    33    67    1
    71    34    68    1
    72    34    69    1
    73    34    70    1
    74    35    71    1
    75    35    72    1
    76    36    73    1
    77    36    74    1
    78    36    75    1
    79    37    76    1
    80    37    77    1
    81    37    78    1
