@<TRIPOS>MOLECULE
NuBBE_1092
 52 54 0 0 0
SMALL
GASTEIGER

@<TRIPOS>ATOM
      1 C           0.0228    1.3591   -4.0536 C.3     1  LIG1       -0.0327
      2 C          -1.1180    1.3247   -3.0349 C.3     1  LIG1        0.0787
      3 C          -2.2354    0.3954   -3.5218 C.3     1  LIG1       -0.0327
      4 C          -0.5911    0.8661   -1.6973 C.2     1  LIG1       -0.0541
      5 C          -0.5965    1.5564   -0.5394 C.2     1  LIG1       -0.0444
      6 C          -0.1152    1.0489    0.8271 C.3     1  LIG1        0.1659
      7 C           1.3956    1.4952    1.0573 C.3     1  LIG1        0.1413
      8 H           1.4185    2.1513    1.9371 H       1  LIG1        0.0771
      9 C           2.3768    0.3541    1.3352 C.3     1  LIG1       -0.0080
     10 C           1.8114   -0.6708    2.2938 C.3     1  LIG1       -0.0189
     11 C           0.5574   -1.2796    1.7301 C.ar    1  LIG1        0.0198
     12 C           0.2626   -2.6507    1.9317 C.ar    1  LIG1        0.1374
     13 C          -0.9838   -3.1387    1.4880 C.ar    1  LIG1        0.0816
     14 C          -1.8123   -2.2208    0.8525 C.ar    1  LIG1        0.2309
     15 N          -1.5518   -0.9392    0.5863 N.ar    1  LIG1       -0.2132
     16 C          -0.3608   -0.4717    1.0427 C.ar    1  LIG1        0.0909
     17 O          -2.9986   -2.7969    0.5177 O.2     1  LIG1       -0.4449
     18 C          -2.9407   -4.0884    0.9166 C.ar    1  LIG1        0.0952
     19 C          -1.7260   -4.3546    1.5033 C.ar    1  LIG1       -0.0109
     20 O           1.1990   -3.3737    2.6538 O.3     1  LIG1       -0.4940
     21 C           1.3105   -4.7525    2.3256 C.3     1  LIG1        0.0788
     22 O           1.9747    2.1983   -0.0847 O.3     1  LIG1       -0.4579
     23 C           2.5108    3.4212    0.1323 C.2     1  LIG1        0.3043
     24 C           3.1911    3.9514   -1.0886 C.3     1  LIG1        0.0332
     25 O           2.4719    4.0379    1.1968 O.2     1  LIG1       -0.2512
     26 O          -0.8679    1.7736    1.8569 O.3     1  LIG1       -0.3626
     27 C          -2.2839    1.5933    1.8716 C.3     1  LIG1        0.0382
     28 O          -1.6483    2.6432   -2.9145 O.3     1  LIG1       -0.3851
     29 H           0.5535    0.4022   -4.1082 H       1  LIG1        0.0260
     30 H           0.7444    2.1460   -3.8058 H       1  LIG1        0.0260
     31 H          -0.3576    1.5929   -5.0548 H       1  LIG1        0.0260
     32 H          -1.9052   -0.6476   -3.5848 H       1  LIG1        0.0260
     33 H          -2.5857    0.6985   -4.5161 H       1  LIG1        0.0260
     34 H          -3.1103    0.4436   -2.8628 H       1  LIG1        0.0260
     35 H          -0.1803   -0.1420   -1.6915 H       1  LIG1        0.0598
     36 H          -0.9965    2.5692   -0.5374 H       1  LIG1        0.0603
     37 H           3.3007    0.7742    1.7565 H       1  LIG1        0.0305
     38 H           2.6813   -0.1273    0.3958 H       1  LIG1        0.0305
     39 H           1.5852   -0.2167    3.2655 H       1  LIG1        0.0316
     40 H           2.5834   -1.4305    2.4592 H       1  LIG1        0.0316
     41 H          -3.8241   -4.6788    0.7166 H       1  LIG1        0.1030
     42 H          -1.4375   -5.3156    1.8983 H       1  LIG1        0.0657
     43 H           2.2577   -5.1168    2.7352 H       1  LIG1        0.0660
     44 H           1.3276   -4.9193    1.2431 H       1  LIG1        0.0660
     45 H           0.5179   -5.3281    2.8089 H       1  LIG1        0.0660
     46 H           3.4530    3.1400   -1.7722 H       1  LIG1        0.0342
     47 H           4.1276    4.4395   -0.7888 H       1  LIG1        0.0342
     48 H           2.5459    4.6706   -1.5962 H       1  LIG1        0.0342
     49 H          -2.7037    2.2643    2.6269 H       1  LIG1        0.0524
     50 H          -2.5605    0.5809    2.1740 H       1  LIG1        0.0524
     51 H          -2.7417    1.8467    0.9116 H       1  LIG1        0.0524
     52 H          -1.9479    2.9218   -3.7947 H       1  LIG1        0.2106
@<TRIPOS>BOND
     1     1     2    1
     2     2     3    1
     3     2     4    1
     4     4     5    2
     5     5     6    1
     6     6     7    1
     7     7     8    1
     8     7     9    1
     9     9    10    1
    10    10    11    1
    11    11    12   ar
    12    12    13   ar
    13    13    14   ar
    14    14    15   ar
    15    15    16   ar
    16    11    16   ar
    17    14    17   ar
    18    17    18   ar
    19    18    19   ar
    20    13    19   ar
    21    12    20    1
    22    20    21    1
    23     7    22    1
    24    22    23    1
    25    23    24    1
    26    23    25    2
    27    16     6    1
    28     6    26    1
    29    26    27    1
    30     2    28    1
    31     1    29    1
    32     1    30    1
    33     1    31    1
    34     3    32    1
    35     3    33    1
    36     3    34    1
    37     4    35    1
    38     5    36    1
    39     9    37    1
    40     9    38    1
    41    10    39    1
    42    10    40    1
    43    18    41    1
    44    19    42    1
    45    21    43    1
    46    21    44    1
    47    21    45    1
    48    24    46    1
    49    24    47    1
    50    24    48    1
    51    27    49    1
    52    27    50    1
    53    27    51    1
    54    28    52    1
