REMARK  Name = NuBBE_2154
REMARK  14 active torsions:
REMARK  status: ('A' for Active; 'I' for Inactive)
REMARK    1  A    between atoms: C_1  and  O_2
REMARK    2  A    between atoms: O_2  and  C_3
REMARK    3  A    between atoms: C_4  and  O_5
REMARK    4  A    between atoms: O_5  and  C_6
REMARK    5  A    between atoms: C_7  and  O_8
REMARK    6  A    between atoms: O_8  and  C_9
REMARK    7  A    between atoms: C_11  and  C_12
REMARK    8  A    between atoms: C_14  and  C_16
REMARK    9  A    between atoms: C_19  and  C_20
REMARK   10  A    between atoms: C_20  and  C_21
REMARK   11  A    between atoms: C_24  and  O_26
REMARK   12  A    between atoms: O_26  and  C_27
REMARK   13  A    between atoms: C_28  and  O_29
REMARK   14  A    between atoms: O_29  and  C_30
REMARK                            x       y       z     vdW  Elec       q    Type
REMARK                         _______ _______ _______ _____ _____    ______ ____
ROOT
ATOM      1  C   LIG A   1      -1.382   0.534  -0.394  0.00  0.00    +0.073 C 
ATOM      2  C   LIG A   1      -1.961  -0.180  -1.666  0.00  0.00    +0.178 C 
ATOM      3  C   LIG A   1      -3.462  -0.033  -1.854  0.00  0.00    +0.052 C 
ATOM      4  O   LIG A   1      -1.234   0.296  -2.804  0.00  0.00    -0.488 OA
ATOM      5  C   LIG A   1      -0.006   0.609  -2.266  0.00  0.00    +0.150 C 
ATOM      6  C   LIG A   1      -0.225   1.419  -1.025  0.00  0.00    +0.048 C 
ATOM      7  C   LIG A   1       1.034   1.712  -0.206  0.00  0.00    +0.055 C 
ATOM      8  C   LIG A   1       2.212   0.768  -0.440  0.00  0.00    +0.193 C 
ATOM      9  C   LIG A   1       1.185   0.178  -2.750  0.00  0.00    +0.203 C 
ATOM     10  C   LIG A   1       2.440   0.580  -1.989  0.00  0.00    +0.229 C 
ATOM     11  O   LIG A   1       3.489   0.814  -2.562  0.00  0.00    -0.286 OA
ENDROOT
BRANCH   1  16
ATOM     12  C   LIG A   1      -0.373  -0.861   3.078  0.00  0.00    +0.165 A 
ATOM     13  C   LIG A   1      -0.594  -2.243   2.934  0.00  0.00    +0.203 A 
ATOM     14  C   LIG A   1      -1.160  -2.715   1.741  0.00  0.00    +0.165 A 
ATOM     15  C   LIG A   1      -1.401  -1.818   0.692  0.00  0.00    +0.053 A 
ATOM     16  C   LIG A   1      -1.084  -0.451   0.754  0.00  0.00    -0.033 A 
ATOM     17  C   LIG A   1      -0.639   0.008   1.999  0.00  0.00    +0.053 A 
BRANCH  12  19
ATOM     18  C   LIG A   1       0.770   0.785   4.353  0.00  0.00    +0.277 C 
ATOM     19  O   LIG A   1      -0.041  -0.384   4.324  0.00  0.00    -0.491 OA
ENDBRANCH  12  19
BRANCH  13  20
ATOM     20  O   LIG A   1      -0.403  -3.181   3.916  0.00  0.00    -0.488 OA
ATOM     21  C   LIG A   1       0.774  -3.080   4.708  0.00  0.00    +0.277 C 
ENDBRANCH  13  20
BRANCH  14  22
ATOM     22  O   LIG A   1      -1.496  -4.049   1.676  0.00  0.00    -0.491 OA
ATOM     23  C   LIG A   1      -1.876  -4.571   0.404  0.00  0.00    +0.277 C 
ENDBRANCH  14  22
ENDBRANCH   1  16
BRANCH   8  24
ATOM     24  O   LIG A   1       3.373   1.325   0.201  0.00  0.00    -0.372 OA
ATOM     25  C   LIG A   1       3.314   1.374   1.617  0.00  0.00    +0.195 C 
ENDBRANCH   8  24
BRANCH   9  26
ATOM     26  O   LIG A   1       1.373  -0.489  -3.937  0.00  0.00    -0.489 OA
ATOM     27  C   LIG A   1       0.362  -0.330  -4.930  0.00  0.00    +0.277 C 
ENDBRANCH   9  26
BRANCH   6  28
ATOM     28  C   LIG A   1      -0.797   2.825  -1.480  0.00  0.00    +0.042 C 
BRANCH  28  29
ATOM     29  C   LIG A   1       0.059   3.766  -2.326  0.00  0.00    -0.034 C 
ATOM     30  C   LIG A   1       0.992   3.490  -3.249  0.00  0.00    +0.004 C 
ENDBRANCH  28  29
ENDBRANCH   6  28
TORSDOF 8
