@<TRIPOS>MOLECULE
NuBBE_1148
 81 85 0 0 0
SMALL
GASTEIGER

@<TRIPOS>ATOM
      1 C          -3.5742   -0.7071    2.0204 C.3     1  LIG1       -0.0587
      2 C          -2.2928   -0.4779    2.9048 C.3     1  LIG1       -0.0212
      3 C          -1.1540   -0.0969    1.8938 C.3     1  LIG1       -0.0136
      4 H          -1.6984    0.4170    1.0970 H       1  LIG1        0.0351
      5 C          -0.5137   -1.2876    1.2252 C.2     1  LIG1       -0.0634
      6 C           0.2975   -0.9628   -0.0404 C.3     1  LIG1       -0.0051
      7 C           0.7545    0.5529   -0.1616 C.3     1  LIG1       -0.0199
      8 C          -0.2197    1.5957   -0.7421 C.3     1  LIG1       -0.0585
      9 C           2.0661    0.5185   -1.0444 C.3     1  LIG1       -0.0322
     10 H           2.7189    1.3137   -0.6510 H       1  LIG1        0.0309
     11 C           2.0162    0.8319   -2.6050 C.3     1  LIG1       -0.0381
     12 H           1.5326    1.8091   -2.7183 H       1  LIG1        0.0302
     13 C           3.4424    1.0028   -3.1561 C.3     1  LIG1       -0.0621
     14 C           1.2465   -0.1614   -3.4958 C.3     1  LIG1       -0.0215
     15 C           1.0519    0.1919   -4.9862 C.3     1  LIG1        0.0843
     16 H           2.0054    0.2674   -5.5119 H       1  LIG1        0.0620
     17 O           0.3592   -0.9216   -5.5721 O.3     1  LIG1       -0.3891
     18 C           0.1845    1.4027   -5.1664 C.3     1  LIG1        0.1136
     19 H          -0.6870    1.3721   -4.5214 H       1  LIG1        0.0651
     20 O          -0.0749    1.7337   -6.5464 O.3     1  LIG1       -0.3627
     21 C           0.5953    2.7397   -5.7762 C.3     1  LIG1        0.0930
     22 C          -0.2546    3.9267   -5.4352 C.3     1  LIG1       -0.0335
     23 C           1.9690    3.0453   -6.2858 C.3     1  LIG1       -0.0335
     24 C           2.7175   -0.8208   -0.6786 C.3     1  LIG1       -0.0486
     25 C           1.6585   -1.7101   -0.0180 C.3     1  LIG1       -0.0431
     26 C           1.1104    1.0179    1.3040 C.3     1  LIG1       -0.0460
     27 C          -0.0559    0.8968    2.3199 C.3     1  LIG1       -0.0455
     28 C          -0.6080   -1.4918   -1.1684 C.3     1  LIG1       -0.0553
     29 C          -0.7469   -2.5581    1.6187 C.2     1  LIG1       -0.0836
     30 C          -1.6905   -2.9501    2.7104 C.3     1  LIG1       -0.0302
     31 C          -1.9922   -1.7979    3.6858 C.3     1  LIG1       -0.0198
     32 H          -2.9440   -2.0698    4.1691 H       1  LIG1        0.0318
     33 C          -0.9366   -1.6921    4.8416 C.3     1  LIG1        0.0270
     34 C           0.4946   -2.1548    4.4816 C.3     1  LIG1       -0.0528
     35 C          -0.8318   -0.2628    5.3864 C.2     1  LIG1        0.1392
     36 C          -2.0242    0.6465    5.2444 C.3     1  LIG1        0.0069
     37 C          -2.6722    0.6637    3.8718 C.3     1  LIG1       -0.0401
     38 O           0.1342    0.1106    6.0378 O.2     1  LIG1       -0.2968
     39 C          -1.4175   -2.5828    6.0093 C.3     1  LIG1       -0.0528
     40 H          -3.3973   -1.3988    1.1898 H       1  LIG1        0.0235
     41 H          -3.9116    0.2376    1.5745 H       1  LIG1        0.0235
     42 H          -4.4051   -1.1052    2.6125 H       1  LIG1        0.0235
     43 H          -0.6027    1.3150   -1.7238 H       1  LIG1        0.0235
     44 H           0.2951    2.5595   -0.8539 H       1  LIG1        0.0235
     45 H          -1.0821    1.8093   -0.1107 H       1  LIG1        0.0235
     46 H           3.4312    1.2759   -4.2150 H       1  LIG1        0.0233
     47 H           4.0308    0.0853   -3.0631 H       1  LIG1        0.0233
     48 H           3.9670    1.8057   -2.6301 H       1  LIG1        0.0233
     49 H           0.2352   -0.2366   -3.1074 H       1  LIG1        0.0294
     50 H           1.7016   -1.1585   -3.4279 H       1  LIG1        0.0294
     51 H           0.1431   -0.6539   -6.4846 H       1  LIG1        0.2099
     52 H          -1.3096    3.6532   -5.3258 H       1  LIG1        0.0258
     53 H          -0.1896    4.6950   -6.2121 H       1  LIG1        0.0258
     54 H           0.0810    4.3634   -4.4891 H       1  LIG1        0.0258
     55 H           2.6139    3.3870   -5.4710 H       1  LIG1        0.0258
     56 H           1.9217    3.8497   -7.0304 H       1  LIG1        0.0258
     57 H           2.4423    2.1877   -6.7726 H       1  LIG1        0.0258
     58 H           3.5238   -0.6390    0.0464 H       1  LIG1        0.0268
     59 H           3.1816   -1.3292   -1.5262 H       1  LIG1        0.0268
     60 H           1.9842   -1.9179    1.0110 H       1  LIG1        0.0274
     61 H           1.6075   -2.6794   -0.5255 H       1  LIG1        0.0274
     62 H           1.4765    2.0532    1.3035 H       1  LIG1        0.0271
     63 H           1.9474    0.4233    1.6947 H       1  LIG1        0.0271
     64 H          -0.4999    1.8922    2.4420 H       1  LIG1        0.0271
     65 H           0.3721    0.6398    3.2911 H       1  LIG1        0.0271
     66 H          -1.4091   -0.7858   -1.4089 H       1  LIG1        0.0238
     67 H          -1.1120   -2.4303   -0.9051 H       1  LIG1        0.0238
     68 H          -0.0498   -1.7698   -2.0559 H       1  LIG1        0.0238
     69 H          -0.2996   -3.3872    1.0733 H       1  LIG1        0.0572
     70 H          -1.3138   -3.8306    3.2407 H       1  LIG1        0.0311
     71 H          -2.6198   -3.2908    2.2351 H       1  LIG1        0.0311
     72 H           0.9380   -1.5467    3.6894 H       1  LIG1        0.0239
     73 H           0.5310   -3.2052    4.1735 H       1  LIG1        0.0239
     74 H           1.1671   -2.0756    5.3431 H       1  LIG1        0.0239
     75 H          -1.7081    1.6652    5.4978 H       1  LIG1        0.0342
     76 H          -2.7552    0.3417    6.0009 H       1  LIG1        0.0342
     77 H          -2.5070    1.6362    3.3920 H       1  LIG1        0.0275
     78 H          -3.7568    0.6469    4.0529 H       1  LIG1        0.0275
     79 H          -2.3932   -2.2541    6.3859 H       1  LIG1        0.0239
     80 H          -0.7210   -2.5500    6.8539 H       1  LIG1        0.0239
     81 H          -1.5148   -3.6285    5.6944 H       1  LIG1        0.0239
@<TRIPOS>BOND
     1     2     3    1
     2     3     5    1
     3     5     6    1
     4     6     7    1
     5     7     9    1
     6    11    12    1
     7    11    13    1
     8    11    14    1
     9    14    15    1
    10    15    16    1
    11    15    17    1
    12    15    18    1
    13    18    19    1
    14    18    20    1
    15    18    21    1
    16    21    22    1
    17    20    21    1
    18    21    23    1
    19     9    24    1
    20    24    25    1
    21     7    26    1
    22    26    27    1
    23     3    27    1
    24    25     6    1
    25     5    29    2
    26    29    30    1
    27    30    31    1
    28     2    31    1
    29    31    33    1
    30    33    35    1
    31    35    36    1
    32    36    37    1
    33     2    37    1
    34     1     2    1
    35     3     4    1
    36     6    28    1
    37     7     8    1
    38     9    10    1
    39     9    11    1
    40    31    32    1
    41    33    34    1
    42    33    39    1
    43    35    38    2
    44     1    40    1
    45     1    41    1
    46     1    42    1
    47     8    43    1
    48     8    44    1
    49     8    45    1
    50    13    46    1
    51    13    47    1
    52    13    48    1
    53    14    49    1
    54    14    50    1
    55    17    51    1
    56    22    52    1
    57    22    53    1
    58    22    54    1
    59    23    55    1
    60    23    56    1
    61    23    57    1
    62    24    58    1
    63    24    59    1
    64    25    60    1
    65    25    61    1
    66    26    62    1
    67    26    63    1
    68    27    64    1
    69    27    65    1
    70    28    66    1
    71    28    67    1
    72    28    68    1
    73    29    69    1
    74    30    70    1
    75    30    71    1
    76    34    72    1
    77    34    73    1
    78    34    74    1
    79    36    75    1
    80    36    76    1
    81    37    77    1
    82    37    78    1
    83    39    79    1
    84    39    80    1
    85    39    81    1
