@<TRIPOS>MOLECULE
NuBBE_2209
 29 29 0 0 0
SMALL
GASTEIGER

@<TRIPOS>ATOM
      1 C          -1.0418    0.0986    0.2412 C.2     1  LIG1        0.1895
      2 O          -1.6918    0.9930    0.7805 O.2     1  LIG1       -0.2872
      3 C          -1.6935   -1.0577   -0.4373 C.2     1  LIG1       -0.0155
      4 C          -2.9686   -1.4811   -0.2765 C.2     1  LIG1       -0.0721
      5 C          -3.9864   -0.9016    0.6676 C.3     1  LIG1       -0.0436
      6 C          -3.4783   -2.6510   -1.0773 C.3     1  LIG1       -0.0436
      7 C           0.4381    0.2360    0.1592 C.ar    1  LIG1        0.0636
      8 C           0.9582    1.5423    0.0750 C.ar    1  LIG1       -0.0403
      9 C           2.3376    1.7745    0.0067 C.ar    1  LIG1       -0.0247
     10 C           2.8413    3.1522   -0.0952 C.2     1  LIG1       -0.0617
     11 C           4.0320    3.5569    0.3682 C.2     1  LIG1       -0.0981
     12 C           3.2014    0.6728   -0.0078 C.ar    1  LIG1       -0.0511
     13 C           2.7055   -0.6272    0.1018 C.ar    1  LIG1       -0.0189
     14 C           1.3304   -0.8465    0.2004 C.ar    1  LIG1        0.1277
     15 O           0.8838   -2.1270    0.3636 O.3     1  LIG1       -0.5061
     16 H          -1.0599   -1.5684   -1.1568 H       1  LIG1        0.0655
     17 H          -3.5640   -0.2448    1.4291 H       1  LIG1        0.0274
     18 H          -4.4969   -1.7057    1.2110 H       1  LIG1        0.0274
     19 H          -4.7425   -0.3423    0.1068 H       1  LIG1        0.0274
     20 H          -2.6961   -3.1086   -1.6921 H       1  LIG1        0.0274
     21 H          -4.2854   -2.3303   -1.7442 H       1  LIG1        0.0274
     22 H          -3.8664   -3.4291   -0.4112 H       1  LIG1        0.0274
     23 H           0.2646    2.3834    0.0753 H       1  LIG1        0.0632
     24 H           2.1811    3.8783   -0.5651 H       1  LIG1        0.0618
     25 H           4.7220    2.8899    0.8751 H       1  LIG1        0.0535
     26 H           4.3429    4.5917    0.2641 H       1  LIG1        0.0535
     27 H           4.2754    0.8147   -0.1014 H       1  LIG1        0.0625
     28 H           3.4130   -1.4516    0.1108 H       1  LIG1        0.0654
     29 H           1.6445   -2.7113    0.5283 H       1  LIG1        0.2922
@<TRIPOS>BOND
     1     1     2    2
     2     1     3    1
     3     3     4    2
     4     4     5    1
     5     4     6    1
     6     1     7    1
     7     7     8   ar
     8     8     9   ar
     9     9    10    1
    10    10    11    2
    11     9    12   ar
    12    12    13   ar
    13    13    14   ar
    14     7    14   ar
    15    14    15    1
    16     3    16    1
    17     5    17    1
    18     5    18    1
    19     5    19    1
    20     6    20    1
    21     6    21    1
    22     6    22    1
    23     8    23    1
    24    10    24    1
    25    11    25    1
    26    11    26    1
    27    12    27    1
    28    13    28    1
    29    15    29    1
