@<TRIPOS>MOLECULE
NuBBE_2401
 39 41 0 0 0
SMALL
GASTEIGER

@<TRIPOS>ATOM
      1 O           2.7931   -1.8309    0.0795 O.3     1  LIG1       -0.4947
      2 C           4.0936   -1.8102   -0.4997 C.3     1  LIG1        0.0788
      3 C           1.7624   -1.4425   -0.7393 C.ar    1  LIG1        0.1271
      4 C           0.6344   -0.8839   -0.1030 C.ar    1  LIG1        0.0011
      5 C          -0.4414   -0.4746   -0.9061 C.ar    1  LIG1       -0.0513
      6 C          -0.4269   -0.6508   -2.2899 C.ar    1  LIG1       -0.0195
      7 C           0.6741   -1.2356   -2.9079 C.ar    1  LIG1        0.1236
      8 C           1.7657   -1.6273   -2.1284 C.ar    1  LIG1        0.0220
      9 O           0.7932   -1.4751   -4.2501 O.3     1  LIG1       -0.4950
     10 C          -0.2994   -1.0646   -5.0659 C.3     1  LIG1        0.0788
     11 C           0.6001   -0.7278    1.4190 C.3     1  LIG1        0.0258
     12 H           1.1416   -1.5925    1.8266 H       1  LIG1        0.0386
     13 C          -0.7954   -0.7881    2.0567 C.3     1  LIG1       -0.0142
     14 C          -1.4619    0.5580    2.1256 C.ar    1  LIG1       -0.0048
     15 C          -0.7318    1.7364    1.9320 C.ar    1  LIG1        0.1272
     16 O           0.5981    1.7565    1.6152 O.3     1  LIG1       -0.4910
     17 C           1.3105    0.5455    1.8927 C.3     1  LIG1        0.0968
     18 C          -1.3656    2.9780    1.9940 C.ar    1  LIG1        0.0218
     19 C          -2.7284    3.0414    2.2605 C.ar    1  LIG1        0.1203
     20 C          -3.4699    1.8811    2.4539 C.ar    1  LIG1       -0.0197
     21 C          -2.8363    0.6407    2.3897 C.ar    1  LIG1       -0.0516
     22 O          -3.3864    4.2330    2.3382 O.3     1  LIG1       -0.5066
     23 H           4.2258   -2.6278   -1.2146 H       1  LIG1        0.0660
     24 H           4.8172   -1.9617    0.3078 H       1  LIG1        0.0660
     25 H           4.3066   -0.8403   -0.9615 H       1  LIG1        0.0660
     26 H          -1.3250   -0.0090   -0.4763 H       1  LIG1        0.0623
     27 H          -1.2981   -0.3260   -2.8471 H       1  LIG1        0.0654
     28 H           2.6027   -2.1008   -2.6318 H       1  LIG1        0.0691
     29 H          -0.0549   -1.3018   -6.1050 H       1  LIG1        0.0660
     30 H          -0.4560    0.0179   -5.0001 H       1  LIG1        0.0660
     31 H          -1.2129   -1.6111   -4.8056 H       1  LIG1        0.0660
     32 H          -0.6952   -1.1474    3.0895 H       1  LIG1        0.0321
     33 H          -1.4327   -1.5078    1.5279 H       1  LIG1        0.0321
     34 H           1.4844    0.5011    2.9761 H       1  LIG1        0.0703
     35 H           2.2966    0.6412    1.4242 H       1  LIG1        0.0703
     36 H          -0.7809    3.8786    1.8323 H       1  LIG1        0.0691
     37 H          -4.5356    1.9440    2.6515 H       1  LIG1        0.0654
     38 H          -3.4239   -0.2639    2.5357 H       1  LIG1        0.0623
     39 H          -2.7417    4.9480    2.2040 H       1  LIG1        0.2921
@<TRIPOS>BOND
     1     1     2    1
     2     1     3    1
     3     3     4   ar
     4     4     5   ar
     5     5     6   ar
     6     6     7   ar
     7     7     8   ar
     8     3     8   ar
     9     7     9    1
    10     9    10    1
    11    11    13    1
    12    13    14    1
    13    14    15   ar
    14    15    16    1
    15    16    17    1
    16    11    17    1
    17    15    18   ar
    18    18    19   ar
    19    19    20   ar
    20    20    21   ar
    21    14    21   ar
    22    19    22    1
    23    11    12    1
    24    11     4    1
    25     2    23    1
    26     2    24    1
    27     2    25    1
    28     5    26    1
    29     6    27    1
    30     8    28    1
    31    10    29    1
    32    10    30    1
    33    10    31    1
    34    13    32    1
    35    13    33    1
    36    17    34    1
    37    17    35    1
    38    18    36    1
    39    20    37    1
    40    21    38    1
    41    22    39    1
