REMARK  Name = NuBBE_1794
REMARK  18 active torsions:
REMARK  status: ('A' for Active; 'I' for Inactive)
REMARK    1  A    between atoms: C_2  and  C_3
REMARK    2  A    between atoms: C_3  and  C_4
REMARK    3  A    between atoms: C_4  and  C_5
REMARK    4  A    between atoms: C_5  and  C_6
REMARK    5  A    between atoms: C_6  and  C_7
REMARK    6  A    between atoms: C_7  and  C_8
REMARK    7  A    between atoms: C_8  and  C_9
REMARK    8  A    between atoms: C_9  and  C_10
REMARK    9  A    between atoms: C_10  and  C_11
REMARK   10  A    between atoms: C_13  and  C_14
REMARK   11  A    between atoms: C_14  and  C_15
REMARK   12  A    between atoms: C_15  and  O_16
REMARK   13  A    between atoms: C_15  and  C_20
REMARK   14  A    between atoms: O_16  and  C_17
REMARK   15  A    between atoms: C_17  and  C_18
REMARK   16  A    between atoms: C_20  and  O_21
REMARK   17  A    between atoms: O_21  and  C_22
REMARK   18  A    between atoms: C_22  and  C_23
REMARK                            x       y       z     vdW  Elec       q    Type
REMARK                         _______ _______ _______ _____ _____    ______ ____
ROOT
ATOM      1  C   LIG A   1       0.427   0.422   0.568  0.00  0.00    +0.177 C 
ATOM      2  C   LIG A   1       1.652  -0.198  -0.084  0.00  0.00    +0.059 C 
ATOM      3  C   LIG A   1       1.964  -1.388   0.813  0.00  0.00    +0.105 C 
ATOM      4  C   LIG A   1       1.502  -0.835   2.146  0.00  0.00    +0.311 C 
ATOM      5  O   LIG A   1       0.586   0.155   1.961  0.00  0.00    -0.461 OA
ATOM      6  O   LIG A   1       1.903  -1.185   3.241  0.00  0.00    -0.251 OA
ENDROOT
BRANCH   1   7
ATOM      7  C   LIG A   1       0.323   1.933   0.339  0.00  0.00    +0.045 C 
BRANCH   7   8
ATOM      8  C   LIG A   1      -0.890   2.541   1.065  0.00  0.00    +0.003 C 
BRANCH   8   9
ATOM      9  C   LIG A   1      -1.018   4.063   0.918  0.00  0.00    +0.000 C 
BRANCH   9  10
ATOM     10  C   LIG A   1      -1.173   4.550  -0.521  0.00  0.00    -0.000 C 
BRANCH  10  11
ATOM     11  C   LIG A   1      -2.418   4.033  -1.242  0.00  0.00    +0.000 C 
BRANCH  11  12
ATOM     12  C   LIG A   1      -2.597   4.540  -2.680  0.00  0.00    +0.000 C 
BRANCH  12  13
ATOM     13  C   LIG A   1      -1.577   4.050  -3.722  0.00  0.00    +0.004 C 
BRANCH  13  14
ATOM     14  C   LIG A   1      -0.196   4.702  -3.642  0.00  0.00    +0.026 C 
BRANCH  14  16
ATOM     15  C   LIG A   1       0.642   4.523  -6.004  0.00  0.00    +0.004 C 
ATOM     16  C   LIG A   1       0.765   4.246  -4.703  0.00  0.00    -0.035 C 
ENDBRANCH  14  16
ENDBRANCH  13  14
ENDBRANCH  12  13
ENDBRANCH  11  12
ENDBRANCH  10  11
ENDBRANCH   9  10
ENDBRANCH   8   9
ENDBRANCH   7   8
ENDBRANCH   1   7
BRANCH   3  17
ATOM     17  C   LIG A   1       1.256  -2.672   0.344  0.00  0.00    +0.063 C 
BRANCH  17  18
ATOM     18  C   LIG A   1       1.456  -3.886   1.282  0.00  0.00    +0.214 C 
BRANCH  18  19
ATOM     19  C   LIG A   1       0.981  -5.220   0.657  0.00  0.00    +0.276 C 
BRANCH  19  20
ATOM     20  O   LIG A   1       1.276  -6.476   1.332  0.00  0.00    -0.461 OA
BRANCH  20  21
ATOM     21  C   LIG A   1       1.036  -6.688   2.653  0.00  0.00    +0.304 C 
ATOM     22  C   LIG A   1       0.796  -8.139   2.930  0.00  0.00    +0.136 C 
ATOM     23  O   LIG A   1       0.992  -5.860   3.541  0.00  0.00    -0.251 OA
ENDBRANCH  20  21
ENDBRANCH  19  20
ENDBRANCH  18  19
BRANCH  18  24
ATOM     24  O   LIG A   1       0.836  -3.607   2.546  0.00  0.00    -0.458 OA
BRANCH  24  25
ATOM     25  C   LIG A   1      -0.514  -3.616   2.664  0.00  0.00    +0.304 C 
ATOM     26  C   LIG A   1      -0.920  -3.643   4.106  0.00  0.00    +0.136 C 
ATOM     27  O   LIG A   1      -1.307  -3.658   1.733  0.00  0.00    -0.251 OA
ENDBRANCH  24  25
ENDBRANCH  18  24
ENDBRANCH  17  18
ENDBRANCH   3  17
TORSDOF 16
