REMARK  Name = NuBBE_2058
REMARK  10 active torsions:
REMARK  status: ('A' for Active; 'I' for Inactive)
REMARK    1  A    between atoms: C_6  and  O_7
REMARK    2  A    between atoms: O_7  and  C_8
REMARK    3  A    between atoms: C_8  and  C_9
REMARK    4  A    between atoms: C_9  and  O_10
REMARK    5  A    between atoms: C_9  and  C_11
REMARK    6  A    between atoms: C_11  and  C_12
REMARK    7  A    between atoms: C_11  and  O_13
REMARK    8  A    between atoms: C_11  and  C_14
REMARK    9  A    between atoms: C_15  and  O_20
REMARK   10  A    between atoms: O_20  and  C_21
REMARK                            x       y       z     vdW  Elec       q    Type
REMARK                         _______ _______ _______ _____ _____    ______ ____
ROOT
ATOM      1  O   LIG A   1      -6.575   2.098  -1.349  0.00  0.00    -0.245 OA
ATOM      2  C   LIG A   1      -5.366   2.248  -1.179  0.00  0.00    +0.337 A 
ATOM      3  O   LIG A   1      -4.451   1.221  -1.379  0.00  0.00    -0.422 OA
ATOM      4  C   LIG A   1      -3.084   1.397  -1.082  0.00  0.00    +0.143 A 
ATOM      5  C   LIG A   1      -2.230   0.305  -1.231  0.00  0.00    +0.096 A 
ATOM      6  C   LIG A   1      -0.875   0.424  -0.887  0.00  0.00    +0.166 A 
ATOM      7  C   LIG A   1      -0.383   1.666  -0.437  0.00  0.00    +0.162 A 
ATOM      8  C   LIG A   1      -1.260   2.759  -0.327  0.00  0.00    +0.061 A 
ATOM      9  C   LIG A   1      -2.613   2.625  -0.637  0.00  0.00    +0.021 A 
ATOM     10  C   LIG A   1      -3.532   3.743  -0.512  0.00  0.00    +0.019 A 
ATOM     11  C   LIG A   1      -4.829   3.554  -0.762  0.00  0.00    +0.092 A 
ENDROOT
BRANCH   7  12
ATOM     12  O   LIG A   1       0.960   1.805  -0.199  0.00  0.00    -0.491 OA
ATOM     13  C   LIG A   1       1.319   2.738   0.819  0.00  0.00    +0.277 C 
ENDBRANCH   7  12
BRANCH   6  14
ATOM     14  O   LIG A   1      -0.160  -0.740  -1.056  0.00  0.00    -0.485 OA
BRANCH  14  15
ATOM     15  C   LIG A   1       0.972  -0.933  -0.186  0.00  0.00    +0.263 C 
BRANCH  15  16
ATOM     16  C   LIG A   1       1.237  -2.447  -0.047  0.00  0.00    +0.183 C 
BRANCH  16  17
ATOM     17  C   LIG A   1       2.380  -2.775   0.955  0.00  0.00    +0.089 C 
ATOM     18  C   LIG A   1       3.727  -2.166   0.544  0.00  0.00    +0.044 C 
ATOM     19  C   LIG A   1       2.546  -4.295   1.101  0.00  0.00    +0.044 C 
BRANCH  17  20
ATOM     20  O   LIG A   1       2.032  -2.245   2.242  0.00  0.00    -0.387 OA
ATOM     21  H   LIG A   1       2.749  -2.473   2.860  0.00  0.00    +0.210 HD
ENDBRANCH  17  20
ENDBRANCH  16  17
BRANCH  16  22
ATOM     22  O   LIG A   1       1.533  -3.010  -1.334  0.00  0.00    -0.386 OA
ATOM     23  H   LIG A   1       0.875  -2.635  -1.949  0.00  0.00    +0.210 HD
ENDBRANCH  16  22
ENDBRANCH  15  16
ENDBRANCH  14  15
ENDBRANCH   6  14
TORSDOF 7
