@<TRIPOS>MOLECULE
NuBBE_2312
 53 56 0 0 0
SMALL
GASTEIGER

@<TRIPOS>ATOM
      1 C           0.7050    3.0403   -1.9883 C.ar    1  LIG1        0.0000
      2 C          -0.2940    3.3848   -2.8680 C.ar    1  LIG1        0.0000
      3 C          -1.4738    2.7646   -2.8911 C.ar    1  LIG1        0.0000
      4 C          -1.7870    1.7252   -2.0043 C.ar    1  LIG1        0.0000
      5 C          -0.8249    1.3328   -1.0294 C.ar    1  LIG1        0.0000
      6 C          -1.2038    0.2905    0.1190 C.3     1  LIG1        0.0000
      7 H          -2.2767    0.4409    0.3674 H       1  LIG1        0.0000
      8 C          -0.9277   -1.1731   -0.3049 C.3     1  LIG1        0.0000
      9 H          -1.2127   -1.1989   -1.3696 H       1  LIG1        0.0000
     10 C           0.6089   -1.4200    0.0387 C.3     1  LIG1        0.0000
     11 C           0.8012   -2.2649    1.2994 C.2     1  LIG1        0.0000
     12 C           0.3515   -1.8278    2.4928 C.2     1  LIG1        0.0000
     13 O           0.5845   -2.5011    3.6585 O.2     1  LIG1        0.0000
     14 C          -0.2246   -2.5263    4.7789 C.3     1  LIG1        0.0000
     15 C          -0.3633   -0.4983    2.5755 C.3     1  LIG1        0.0000
     16 H           0.1369    0.0151    3.4255 H       1  LIG1        0.0000
     17 C          -0.1980    0.4656    1.3059 C.3     1  LIG1        0.0000
     18 C           1.1096    0.0099    0.5304 C.3     1  LIG1        0.0000
     19 O           2.2310    0.0196    1.3810 O.3     1  LIG1        0.0000
     20 AC          4.2018   -0.6961    0.1024 Ac      1  LIG1        0.0000
     21 O          -0.1493    1.8281    1.7432 O.3     1  LIG1        0.0000
     22 C          -0.0019    2.7706    0.6729 C.3     1  LIG1        0.0000
     23 O          -1.7072   -0.7446    2.8847 O.3     1  LIG1        0.0000
     24 AC         -2.8662    1.4104    3.0188 Ac      1  LIG1        0.0000
     25 C           1.2312   -2.2091   -1.1808 C.3     1  LIG1        0.0000
     26 C           2.6758   -2.6008   -1.1725 C.2     1  LIG1        0.0000
     27 C           3.0091   -3.7909   -0.6499 C.2     1  LIG1        0.0000
     28 C          -1.8799   -2.2832    0.1898 C.3     1  LIG1        0.0000
     29 C           0.4507    2.0129   -1.0684 C.ar    1  LIG1        0.0000
     30 O          -2.2409    3.3170   -3.8294 O.3     1  LIG1        0.0000
     31 C          -1.5196    4.3576   -4.4338 C.3     1  LIG1        0.0000
     32 O          -0.2831    4.3507   -3.7889 O.3     1  LIG1        0.0000
     33 H           1.6495    3.5687   -1.9810 H       1  LIG1        0.0000
     34 H          -2.7558    1.2795   -2.0633 H       1  LIG1        0.0000
     35 H           1.3542   -3.1924    1.2373 H       1  LIG1        0.0000
     36 H           0.0627   -3.3971    5.4042 H       1  LIG1        0.0000
     37 H          -1.2959   -2.6714    4.5237 H       1  LIG1        0.0000
     38 H          -0.0737   -1.5984    5.3653 H       1  LIG1        0.0000
     39 H           1.3667    0.6810   -0.3053 H       1  LIG1        0.0000
     40 H          -0.8961    3.4245    0.6171 H       1  LIG1        0.0000
     41 H           0.1802    2.3417   -0.3299 H       1  LIG1        0.0000
     42 H           0.8736    3.4261    0.8280 H       1  LIG1        0.0000
     43 H           0.6108   -3.0947   -1.4357 H       1  LIG1        0.0000
     44 H           1.1345   -1.6037   -2.1064 H       1  LIG1        0.0000
     45 H           3.4410   -1.9617   -1.5942 H       1  LIG1        0.0000
     46 H           2.2403   -4.4438   -0.2339 H       1  LIG1        0.0000
     47 H           4.0124   -4.1279   -0.6352 H       1  LIG1        0.0000
     48 H          -1.8299   -2.5066    1.2658 H       1  LIG1        0.0000
     49 H          -1.6295   -3.2246   -0.3478 H       1  LIG1        0.0000
     50 H          -2.9306   -2.0196   -0.0528 H       1  LIG1        0.0000
     51 H           1.2374    1.8232   -0.3701 H       1  LIG1        0.0000
     52 H          -2.0301    5.3326   -4.2738 H       1  LIG1        0.0000
     53 H          -1.3842    4.1632   -5.5176 H       1  LIG1        0.0000
@<TRIPOS>BOND
     1     1     2   ar
     2     2     3   ar
     3     3     4   ar
     4     4     5   ar
     5     6     8    1
     6     8    10    1
     7    10    11    1
     8    11    12    2
     9    13    14    1
    10    12    15    1
    11    15    17    1
    12     6    17    1
    13    17    18    1
    14    10    18    1
    15    19    20    1
    16    21    22    1
    17    23    24    1
    18    25    26    1
    19    26    27    2
    20     5    29   ar
    21     1    29   ar
    22     3    30    1
    23    30    31    1
    24    31    32    1
    25     2    32    1
    26    10    25    1
    27    12    13    1
    28    15    16    1
    29    15    23    1
    30    17    21    1
    31    18    19    1
    32     8    28    1
    33     8     9    1
    34     6     7    1
    35     6     5    1
    36     1    33    1
    37     4    34    1
    38    11    35    1
    39    14    36    1
    40    14    37    1
    41    14    38    1
    42    18    39    1
    43    22    40    1
    44    22    41    1
    45    22    42    1
    46    25    43    1
    47    25    44    1
    48    26    45    1
    49    27    46    1
    50    27    47    1
    51    28    48    1
    52    28    49    1
    53    28    50    1
    54    29    51    1
    55    31    52    1
    56    31    53    1
