@<TRIPOS>MOLECULE
NuBBE_39
 46 47 0 0 0
SMALL
GASTEIGER

@<TRIPOS>ATOM
      1 O          -1.6724    0.8198    0.0396 O.2     1  LIG1       -0.2456
      2 C          -0.6065    0.6645   -0.5405 C.2     1  LIG1        0.3323
      3 O           0.1108   -0.4758   -0.6191 O.3     1  LIG1       -0.4555
      4 C          -0.5148   -1.6663   -0.0907 C.3     1  LIG1        0.1346
      5 H          -1.5840   -1.6416   -0.3379 H       1  LIG1        0.0762
      6 C          -0.2985   -1.7356    1.4278 C.3     1  LIG1        0.0264
      7 C          -0.7930   -3.0604    2.0183 C.3     1  LIG1        0.1678
      8 O          -2.2109   -3.1513    1.7994 O.3     1  LIG1       -0.3772
      9 C          -0.4592   -3.1204    3.5235 C.2     1  LIG1        0.3391
     10 O          -1.4810   -2.5603    4.2359 O.3     1  LIG1       -0.4659
     11 C          -1.3330   -2.6521    5.6544 C.3     1  LIG1        0.0818
     12 O           0.5639   -3.5904    4.0035 O.2     1  LIG1       -0.2476
     13 C          -0.1537   -4.2631    1.3072 C.3     1  LIG1        0.0153
     14 C          -0.3544   -4.2073   -0.2045 C.3     1  LIG1        0.0877
     15 H           0.1838   -5.0331   -0.6826 H       1  LIG1        0.0621
     16 O          -1.7348   -4.3893   -0.5534 O.3     1  LIG1       -0.3890
     17 C           0.1311   -2.8755   -0.7934 C.3     1  LIG1        0.1180
     18 H           1.2226   -2.8041   -0.7154 H       1  LIG1        0.0656
     19 O          -0.1874   -2.8502   -2.1922 O.3     1  LIG1       -0.3856
     20 C           0.1129    1.7089   -1.2889 C.2     1  LIG1        0.0231
     21 C          -0.1621    3.0083   -1.1097 C.2     1  LIG1       -0.0477
     22 C           0.5052    4.0778   -1.8702 C.ar    1  LIG1       -0.0211
     23 C           1.8378    3.9571   -2.2977 C.ar    1  LIG1       -0.0094
     24 C           2.4234    4.9778   -3.0383 C.ar    1  LIG1        0.1588
     25 O           3.7096    4.8889   -3.4955 O.3     1  LIG1       -0.5033
     26 C           1.7045    6.1281   -3.3430 C.ar    1  LIG1        0.1582
     27 O           2.2872    7.1188   -4.0789 O.3     1  LIG1       -0.5033
     28 C           0.3973    6.2808   -2.9087 C.ar    1  LIG1       -0.0160
     29 C          -0.2008    5.2568   -2.1657 C.ar    1  LIG1       -0.0509
     30 H          -0.8242   -0.8960    1.9003 H       1  LIG1        0.0335
     31 H           0.7642   -1.5806    1.6581 H       1  LIG1        0.0335
     32 H          -2.6311   -2.6152    2.5051 H       1  LIG1        0.2109
     33 H          -0.5541   -1.9670    6.0016 H       1  LIG1        0.0661
     34 H          -1.1127   -3.6800    5.9598 H       1  LIG1        0.0661
     35 H          -2.2846   -2.3588    6.1062 H       1  LIG1        0.0661
     36 H          -0.6051   -5.1873    1.6905 H       1  LIG1        0.0324
     37 H           0.9213   -4.3046    1.5218 H       1  LIG1        0.0324
     38 H          -2.2790   -4.0236    0.1788 H       1  LIG1        0.2099
     39 H          -1.0438   -3.3194   -2.2735 H       1  LIG1        0.2100
     40 H           0.8483    1.3518   -1.9986 H       1  LIG1        0.0689
     41 H          -0.9284    3.3179   -0.4001 H       1  LIG1        0.0626
     42 H           2.4118    3.0690   -2.0560 H       1  LIG1        0.0661
     43 H           4.0739    4.0321   -3.2134 H       1  LIG1        0.2923
     44 H           3.1864    6.7846   -4.2699 H       1  LIG1        0.2923
     45 H          -0.1547    7.1833   -3.1537 H       1  LIG1        0.0655
     46 H          -1.2318    5.3834   -1.8403 H       1  LIG1        0.0625
@<TRIPOS>BOND
     1     1     2    2
     2     2     3    1
     3     4     6    1
     4     6     7    1
     5     7     8    1
     6     7     9    1
     7     9    10    1
     8    10    11    1
     9     9    12    2
    10     7    13    1
    11    13    14    1
    12    14    17    1
    13     4    17    1
    14     2    20    1
    15    20    21    2
    16    21    22    1
    17    22    23   ar
    18    23    24   ar
    19    24    25    1
    20    24    26   ar
    21    26    27    1
    22    26    28   ar
    23    28    29   ar
    24    22    29   ar
    25    14    16    1
    26    14    15    1
    27     4     5    1
    28     4     3    1
    29    17    19    1
    30    17    18    1
    31     6    30    1
    32     6    31    1
    33     8    32    1
    34    11    33    1
    35    11    34    1
    36    11    35    1
    37    13    36    1
    38    13    37    1
    39    16    38    1
    40    19    39    1
    41    20    40    1
    42    21    41    1
    43    23    42    1
    44    25    43    1
    45    27    44    1
    46    28    45    1
    47    29    46    1
