@<TRIPOS>MOLECULE
NuBBE_1434
 36 39 0 0 0
SMALL
GASTEIGER

@<TRIPOS>ATOM
      1 O          -4.1197   -1.7711    0.0045 O.2     1  LIG1       -0.2864
      2 C          -2.8820   -1.7650    0.0031 C.ar    1  LIG1        0.2004
      3 C          -2.1097   -2.9651    0.0017 C.ar    1  LIG1        0.0853
      4 C          -0.7402   -2.8874    0.0012 C.ar    1  LIG1        0.2120
      5 O          -0.1983   -4.1337   -0.0010 O.2     1  LIG1       -0.4465
      6 C          -1.2445   -5.0104   -0.0016 C.ar    1  LIG1        0.0951
      7 C          -2.4446   -4.3361    0.0003 C.ar    1  LIG1       -0.0108
      8 N           0.0014   -1.7530    0.0022 N.ar    1  LIG1       -0.3108
      9 C           1.4601   -1.8698    0.0013 C.3     1  LIG1        0.0153
     10 C          -0.6900   -0.5007    0.0014 C.ar    1  LIG1        0.0980
     11 C          -2.1137   -0.4912    0.0020 C.ar    1  LIG1        0.0496
     12 C          -2.8660    0.6992    0.0008 C.ar    1  LIG1       -0.0481
     13 C          -2.2323    1.9260   -0.0032 C.ar    1  LIG1       -0.0503
     14 C          -0.8481    1.9736   -0.0048 C.ar    1  LIG1        0.0186
     15 C          -0.0865    0.7786   -0.0006 C.ar    1  LIG1        0.1530
     16 O           1.2724    0.8314    0.0021 O.3     1  LIG1       -0.4795
     17 C           1.9267    2.1082    0.0016 C.3     1  LIG1        0.1236
     18 C           2.6426    2.1323   -1.3504 C.3     1  LIG1       -0.0215
     19 C           2.6302    2.1424    1.3600 C.3     1  LIG1       -0.0215
     20 C           1.0847    3.3493   -0.0076 C.2     1  LIG1       -0.0409
     21 C          -0.2399    3.2947   -0.0115 C.2     1  LIG1       -0.0513
     22 H          -0.9778   -6.0580   -0.0036 H       1  LIG1        0.1030
     23 H          -3.4373   -4.7656    0.0004 H       1  LIG1        0.0657
     24 H           1.8041   -2.9142    0.0019 H       1  LIG1        0.0457
     25 H           1.8985   -1.4201    0.8988 H       1  LIG1        0.0457
     26 H           1.8974   -1.4213   -0.8974 H       1  LIG1        0.0457
     27 H          -3.9509    0.6676    0.0021 H       1  LIG1        0.0625
     28 H          -2.8173    2.8404   -0.0050 H       1  LIG1        0.0625
     29 H           1.8637    2.1406   -2.1375 H       1  LIG1        0.0271
     30 H           3.2152    1.2245   -1.5598 H       1  LIG1        0.0271
     31 H           3.2531    3.0221   -1.5230 H       1  LIG1        0.0271
     32 H           1.8444    2.1595    2.1401 H       1  LIG1        0.0271
     33 H           3.2414    3.0323    1.5302 H       1  LIG1        0.0271
     34 H           3.1987    1.2352    1.5825 H       1  LIG1        0.0271
     35 H           1.6010    4.3072   -0.0116 H       1  LIG1        0.0611
     36 H          -0.8368    4.1978   -0.0196 H       1  LIG1        0.0623
@<TRIPOS>BOND
     1     1     2    2
     2     2     3   ar
     3     3     4   ar
     4     4     5   ar
     5     5     6   ar
     6     6     7   ar
     7     3     7   ar
     8     4     8   ar
     9     8     9    1
    10     8    10   ar
    11    10    11   ar
    12     2    11   ar
    13    11    12   ar
    14    12    13   ar
    15    13    14   ar
    16    14    15   ar
    17    10    15   ar
    18    15    16    1
    19    16    17    1
    20    17    18    1
    21    17    19    1
    22    17    20    1
    23    20    21    2
    24    14    21    1
    25     6    22    1
    26     7    23    1
    27     9    24    1
    28     9    25    1
    29     9    26    1
    30    12    27    1
    31    13    28    1
    32    18    29    1
    33    18    30    1
    34    18    31    1
    35    19    32    1
    36    19    33    1
    37    19    34    1
    38    20    35    1
    39    21    36    1
