@<TRIPOS>MOLECULE
NuBBE_1935
 39 41 0 0 0
SMALL
GASTEIGER

@<TRIPOS>ATOM
      1 C          -3.1751    0.0386    2.3965 C.3     1  LIG1       -0.0435
      2 C          -1.7912   -0.3694    2.0108 C.2     1  LIG1       -0.0726
      3 C          -1.1120   -1.5435    2.4286 C.2     1  LIG1       -0.0844
      4 C           0.5464   -1.8747    1.8520 C.3     1  LIG1       -0.0309
      5 C           1.1990   -0.6008    0.7262 C.3     1  LIG1       -0.0280
      6 H           2.1970   -0.3844    1.1286 H       1  LIG1        0.0312
      7 C           0.5157    0.7922   -0.1337 C.3     1  LIG1       -0.0273
      8 C          -0.9295    0.7846    0.9212 C.3     1  LIG1       -0.0111
      9 H          -1.0769    1.7724    1.3772 H       1  LIG1        0.0354
     10 C           0.0946   -0.0884    1.3481 C.3     1  LIG1       -0.0219
     11 C           0.4686    0.5422    2.7622 C.3     1  LIG1       -0.0587
     12 C          -0.8337   -1.1286    0.0053 C.3     1  LIG1       -0.0465
     13 C          -0.2263   -0.9897   -1.4190 C.3     1  LIG1       -0.0492
     14 C           0.1895    0.4552   -1.5735 C.3     1  LIG1       -0.0350
     15 H          -0.6594    1.0616   -1.9128 H       1  LIG1        0.0306
     16 C           1.3880    0.6552   -2.5237 C.3     1  LIG1       -0.0436
     17 C           1.7162    2.1422   -2.7070 C.3     1  LIG1       -0.0624
     18 C           1.1247    0.0380   -3.9026 C.3     1  LIG1       -0.0624
     19 H          -3.6401   -0.7015    3.0548 H       1  LIG1        0.0274
     20 H          -3.7993    0.1436    1.5044 H       1  LIG1        0.0274
     21 H          -3.1529    0.9980    2.9215 H       1  LIG1        0.0274
     22 H          -1.5451   -2.2891    3.0868 H       1  LIG1        0.0572
     23 H           0.5849   -2.8399    1.3285 H       1  LIG1        0.0310
     24 H           1.2215   -1.9593    2.7146 H       1  LIG1        0.0310
     25 H           1.0969    1.7153    0.0064 H       1  LIG1        0.0312
     26 H           1.1386    1.3978    2.5871 H       1  LIG1        0.0235
     27 H           1.0311   -0.1142    3.4339 H       1  LIG1        0.0235
     28 H          -0.3636    0.9538    3.3499 H       1  LIG1        0.0235
     29 H          -1.8909   -0.8204   -0.1314 H       1  LIG1        0.0271
     30 H          -0.8769   -2.2083    0.2048 H       1  LIG1        0.0271
     31 H          -0.9511   -1.2906   -2.1836 H       1  LIG1        0.0268
     32 H           0.6309   -1.6694   -1.5117 H       1  LIG1        0.0268
     33 H           2.2752    0.1686   -2.0976 H       1  LIG1        0.0298
     34 H           0.8522    2.6941   -3.0927 H       1  LIG1        0.0232
     35 H           2.5420    2.2726   -3.4151 H       1  LIG1        0.0232
     36 H           2.0245    2.6075   -1.7668 H       1  LIG1        0.0232
     37 H           0.2218    0.4589   -4.3581 H       1  LIG1        0.0232
     38 H           1.0003   -1.0474   -3.8397 H       1  LIG1        0.0232
     39 H           1.9645    0.2269   -4.5802 H       1  LIG1        0.0232
@<TRIPOS>BOND
     1     2     3    2
     2     3     4    1
     3     4     5    1
     4     5     7    1
     5     7     8    1
     6     2     8    1
     7     8    10    1
     8     5    10    1
     9    10    12    1
    10    12    13    1
    11    13    14    1
    12     7    14    1
    13    16    17    1
    14    16    18    1
    15     1     2    1
    16     5     6    1
    17     8     9    1
    18    10    11    1
    19    14    16    1
    20    14    15    1
    21     1    19    1
    22     1    20    1
    23     1    21    1
    24     3    22    1
    25     4    23    1
    26     4    24    1
    27     7    25    1
    28    11    26    1
    29    11    27    1
    30    11    28    1
    31    12    29    1
    32    12    30    1
    33    13    31    1
    34    13    32    1
    35    16    33    1
    36    17    34    1
    37    17    35    1
    38    17    36    1
    39    18    37    1
    40    18    38    1
    41    18    39    1
