@<TRIPOS>MOLECULE
NuBBE_457
 54 54 0 0 0
SMALL
GASTEIGER

@<TRIPOS>ATOM
      1 O          -0.7902   -0.8703    5.7393 O.3     1  LIG1       -0.3903
      2 C           0.3230   -0.8868    4.8435 C.3     1  LIG1        0.0703
      3 H           1.1874   -1.1754    5.4520 H       1  LIG1        0.0609
      4 C           0.1662   -1.9713    3.7337 C.3     1  LIG1        0.0310
      5 H           1.1643   -2.3375    3.4694 H       1  LIG1        0.0483
      6 C          -0.6525   -3.1791    4.1853 C.3     1  LIG1       -0.0473
      7 N          -0.4491   -1.5072    2.4933 N.3     1  LIG1       -0.3083
      8 H          -1.4496   -1.3562    2.6325 H       1  LIG1        0.1225
      9 C           0.1471   -0.2701    2.0042 C.3     1  LIG1        0.0080
     10 H          -0.4381   -0.1145    1.1115 H       1  LIG1        0.0460
     11 C           1.6267   -0.3936    1.5848 C.3     1  LIG1       -0.0375
     12 C           2.2709    0.8960    1.0549 C.3     1  LIG1       -0.0516
     13 C           1.6812    1.4522   -0.2419 C.3     1  LIG1       -0.0530
     14 C           0.2419    1.9815   -0.2239 C.3     1  LIG1       -0.0531
     15 C          -0.2127    2.5132   -1.5861 C.3     1  LIG1       -0.0531
     16 C          -0.1087    1.4437   -2.6852 C.3     1  LIG1       -0.0531
     17 C          -0.4172    1.9509   -4.0901 C.3     1  LIG1       -0.0530
     18 C          -0.2952    0.8769   -5.1879 C.3     1  LIG1       -0.0526
     19 C          -1.3945   -0.1946   -5.3139 C.3     1  LIG1       -0.0430
     20 C          -1.7564   -1.0752   -4.1085 C.3     1  LIG1        0.0448
     21 C          -0.6940   -2.0531   -3.6482 C.2     1  LIG1        0.3047
     22 O          -1.2383   -3.0386   -2.8847 O.3     1  LIG1       -0.4806
     23 O           0.4951   -1.9983   -3.8127 O.2     1  LIG1       -0.2510
     24 C          -0.1291    0.8391    3.0210 C.3     1  LIG1       -0.0352
     25 C           0.5708    0.5469    4.3440 C.3     1  LIG1       -0.0240
     26 H          -1.4862   -0.3158    5.3521 H       1  LIG1        0.2098
     27 H          -0.1556   -3.6813    5.0182 H       1  LIG1        0.0245
     28 H          -0.7606   -3.9063    3.3707 H       1  LIG1        0.0245
     29 H          -1.6637   -2.8932    4.4980 H       1  LIG1        0.0245
     30 H           1.7278   -1.1813    0.8263 H       1  LIG1        0.0280
     31 H           2.2382   -0.7255    2.4334 H       1  LIG1        0.0280
     32 H           3.3257    0.6602    0.8439 H       1  LIG1        0.0266
     33 H           2.2990    1.6686    1.8293 H       1  LIG1        0.0266
     34 H           1.7834    0.6599   -0.9868 H       1  LIG1        0.0265
     35 H           2.3221    2.2806   -0.5677 H       1  LIG1        0.0265
     36 H           0.1351    2.7534    0.5471 H       1  LIG1        0.0265
     37 H          -0.4874    1.2159    0.0048 H       1  LIG1        0.0265
     38 H           0.3884    3.3883   -1.8355 H       1  LIG1        0.0265
     39 H          -1.2588    2.8353   -1.4866 H       1  LIG1        0.0265
     40 H          -0.7561    0.6190   -2.3986 H       1  LIG1        0.0265
     41 H           0.9043    1.0403   -2.7265 H       1  LIG1        0.0265
     42 H           0.3335    2.7241   -4.3126 H       1  LIG1        0.0265
     43 H          -1.3923    2.4450   -4.1428 H       1  LIG1        0.0265
     44 H           0.6863    0.3925   -5.1345 H       1  LIG1        0.0265
     45 H          -0.2940    1.4212   -6.1450 H       1  LIG1        0.0265
     46 H          -1.1143   -0.8468   -6.1532 H       1  LIG1        0.0270
     47 H          -2.3146    0.3144   -5.6315 H       1  LIG1        0.0270
     48 H          -2.6375   -1.6653   -4.3975 H       1  LIG1        0.0377
     49 H          -2.0658   -0.4763   -3.2645 H       1  LIG1        0.0377
     50 H          -0.4591   -3.5390   -2.5627 H       1  LIG1        0.2951
     51 H          -1.2114    0.9248    3.1849 H       1  LIG1        0.0281
     52 H           0.1863    1.8201    2.6508 H       1  LIG1        0.0281
     53 H           0.2320    1.2796    5.0870 H       1  LIG1        0.0291
     54 H           1.6469    0.7090    4.2135 H       1  LIG1        0.0291
@<TRIPOS>BOND
     1     1     2    1
     2     2     3    1
     3     2     4    1
     4     4     5    1
     5     4     6    1
     6     4     7    1
     7     7     8    1
     8     7     9    1
     9     9    10    1
    10     9    11    1
    11    11    12    1
    12    12    13    1
    13    13    14    1
    14    14    15    1
    15    15    16    1
    16    16    17    1
    17    17    18    1
    18    18    19    1
    19    19    20    1
    20    20    21    1
    21    21    22    1
    22    21    23    2
    23     9    24    1
    24    24    25    1
    25     2    25    1
    26     1    26    1
    27     6    27    1
    28     6    28    1
    29     6    29    1
    30    11    30    1
    31    11    31    1
    32    12    32    1
    33    12    33    1
    34    13    34    1
    35    13    35    1
    36    14    36    1
    37    14    37    1
    38    15    38    1
    39    15    39    1
    40    16    40    1
    41    16    41    1
    42    17    42    1
    43    17    43    1
    44    18    44    1
    45    18    45    1
    46    19    46    1
    47    19    47    1
    48    20    48    1
    49    20    49    1
    50    22    50    1
    51    24    51    1
    52    24    52    1
    53    25    53    1
    54    25    54    1
