@<TRIPOS>MOLECULE
NuBBE_1569
 95 99 0 0 0
SMALL
GASTEIGER

@<TRIPOS>ATOM
      1 C          -2.5813   -1.1987    1.0786 C.3     1  LIG1       -0.0588
      2 C          -1.1750   -1.3473    0.4449 C.3     1  LIG1       -0.0231
      3 C          -0.7183   -0.0088   -0.2638 C.3     1  LIG1       -0.0289
      4 H           0.1807   -0.2401   -0.8479 H       1  LIG1        0.0312
      5 C          -0.2832    1.0873    0.7474 C.3     1  LIG1       -0.0194
      6 C          -0.1528    0.6136    2.1802 C.3     1  LIG1       -0.0460
      7 C           0.6150   -0.6963    2.2286 C.3     1  LIG1       -0.0463
      8 C          -0.0225   -1.8523    1.4123 C.3     1  LIG1       -0.0233
      9 C           1.0105   -2.4621    0.3781 C.3     1  LIG1       -0.0325
     10 H           1.5231   -1.6225   -0.1115 H       1  LIG1        0.0309
     11 C           2.1527   -3.4121    0.8572 C.3     1  LIG1       -0.0405
     12 H           1.6998   -4.3108    1.2934 H       1  LIG1        0.0301
     13 C           3.0363   -2.7651    1.9327 C.3     1  LIG1       -0.0621
     14 C           3.0299   -3.8687   -0.3547 C.3     1  LIG1       -0.0502
     15 C           4.2112   -4.7612    0.0468 C.3     1  LIG1       -0.0526
     16 C           5.0686   -5.2191   -1.1391 C.3     1  LIG1       -0.0507
     17 C           6.2491   -6.1168   -0.7017 C.3     1  LIG1       -0.0467
     18 C           7.0724   -6.5554   -1.9152 C.3     1  LIG1       -0.0627
     19 C           7.1707   -5.4292    0.3104 C.3     1  LIG1       -0.0627
     20 C           0.1207   -3.1202   -0.6959 C.3     1  LIG1       -0.0489
     21 C          -1.2722   -2.5186   -0.5644 C.3     1  LIG1       -0.0466
     22 C          -0.5120   -2.9285    2.4077 C.3     1  LIG1       -0.0588
     23 C          -0.5426    2.5813    0.4427 C.3     1  LIG1       -0.0192
     24 C          -1.3875    2.9025   -0.7901 C.3     1  LIG1       -0.0263
     25 H          -2.4277    2.8064   -0.4509 H       1  LIG1        0.0313
     26 C          -1.1824    4.3827   -1.2350 C.3     1  LIG1        0.0055
     27 C           0.2979    4.7219   -1.5275 C.3     1  LIG1       -0.0562
     28 C          -1.7324    5.2592   -0.0611 C.3     1  LIG1        0.1088
     29 H          -1.7081    6.3279   -0.3101 H       1  LIG1        0.0739
     30 O          -3.0922    4.8576    0.2613 O.3     1  LIG1       -0.4576
     31 C          -4.1252    5.4297   -0.3833 C.2     1  LIG1        0.3348
     32 C          -5.3442    4.5528   -0.2142 C.2     1  LIG1        0.0293
     33 C          -5.2966    3.3667    0.7104 C.3     1  LIG1       -0.0333
     34 C          -6.4335    4.8841   -0.9421 C.2     1  LIG1       -0.0774
     35 C          -7.7588    4.1922   -0.9498 C.3     1  LIG1       -0.0461
     36 O          -4.0725    6.4332   -1.0560 O.2     1  LIG1       -0.2453
     37 C          -0.9132    5.0208    1.2168 C.3     1  LIG1       -0.0146
     38 C          -0.7780    3.5406    1.6105 C.3     1  LIG1       -0.0432
     39 C          -1.9458    4.6743   -2.5442 C.3     1  LIG1       -0.0562
     40 C          -1.2789    1.8472   -1.8918 C.3     1  LIG1       -0.0488
     41 C          -1.7212    0.5086   -1.3073 C.3     1  LIG1       -0.0489
     42 C           0.8412    1.9987    0.2806 C.3     1  LIG1       -0.0401
     43 H          -2.6768   -0.3375    1.7397 H       1  LIG1        0.0235
     44 H          -2.8749   -2.0850    1.6497 H       1  LIG1        0.0235
     45 H          -3.3507   -1.0872    0.3059 H       1  LIG1        0.0235
     46 H          -1.1262    0.5264    2.6669 H       1  LIG1        0.0271
     47 H           0.4016    1.3386    2.7880 H       1  LIG1        0.0271
     48 H           0.7354   -0.9795    3.2815 H       1  LIG1        0.0271
     49 H           1.6245   -0.4853    1.8576 H       1  LIG1        0.0271
     50 H           3.5827   -1.9044    1.5309 H       1  LIG1        0.0233
     51 H           3.7669   -3.4740    2.3321 H       1  LIG1        0.0233
     52 H           2.4610   -2.4409    2.7999 H       1  LIG1        0.0233
     53 H           3.4135   -2.9845   -0.8810 H       1  LIG1        0.0268
     54 H           2.4117   -4.4191   -1.0732 H       1  LIG1        0.0268
     55 H           3.8393   -5.6359    0.5927 H       1  LIG1        0.0265
     56 H           4.8560   -4.1937    0.7202 H       1  LIG1        0.0265
     57 H           5.4528   -4.3390   -1.6703 H       1  LIG1        0.0268
     58 H           4.4405   -5.7699   -1.8503 H       1  LIG1        0.0268
     59 H           5.8413   -7.0193   -0.2288 H       1  LIG1        0.0295
     60 H           7.4669   -5.6923   -2.4622 H       1  LIG1        0.0232
     61 H           6.4666   -7.1507   -2.6056 H       1  LIG1        0.0232
     62 H           7.9235   -7.1720   -1.6042 H       1  LIG1        0.0232
     63 H           7.5618   -4.4869   -0.0877 H       1  LIG1        0.0232
     64 H           8.0208   -6.0715    0.5635 H       1  LIG1        0.0232
     65 H           6.6508   -5.2161    1.2491 H       1  LIG1        0.0232
     66 H           0.0573   -4.2070   -0.5670 H       1  LIG1        0.0268
     67 H           0.5224   -2.9320   -1.6980 H       1  LIG1        0.0268
     68 H          -1.9497   -3.2971   -0.1877 H       1  LIG1        0.0271
     69 H          -1.6753   -2.2303   -1.5385 H       1  LIG1        0.0271
     70 H          -1.2773   -2.5242    3.0797 H       1  LIG1        0.0235
     71 H           0.3009   -3.2801    3.0512 H       1  LIG1        0.0235
     72 H          -0.9305   -3.8055    1.9056 H       1  LIG1        0.0235
     73 H           0.9602    4.5611   -0.6733 H       1  LIG1        0.0236
     74 H           0.4008    5.7749   -1.8146 H       1  LIG1        0.0236
     75 H           0.6892    4.1127   -2.3494 H       1  LIG1        0.0236
     76 H          -4.4579    3.3984    1.4107 H       1  LIG1        0.0280
     77 H          -5.2113    2.4364    0.1368 H       1  LIG1        0.0280
     78 H          -6.1990    3.3147    1.3284 H       1  LIG1        0.0280
     79 H          -6.3799    5.7462   -1.6083 H       1  LIG1        0.0574
     80 H          -7.7826    3.2893   -0.3344 H       1  LIG1        0.0272
     81 H          -8.0275    3.9056   -1.9720 H       1  LIG1        0.0272
     82 H          -8.5262    4.8780   -0.5771 H       1  LIG1        0.0272
     83 H          -1.3823    5.5481    2.0581 H       1  LIG1        0.0301
     84 H           0.0838    5.4607    1.1041 H       1  LIG1        0.0301
     85 H          -1.6808    3.2226    2.1447 H       1  LIG1        0.0272
     86 H           0.0476    3.4782    2.3309 H       1  LIG1        0.0272
     87 H          -2.9567    4.2568   -2.5373 H       1  LIG1        0.0236
     88 H          -1.4246    4.2431   -3.4079 H       1  LIG1        0.0236
     89 H          -2.0168    5.7518   -2.7272 H       1  LIG1        0.0236
     90 H          -0.2701    1.7809   -2.3105 H       1  LIG1        0.0268
     91 H          -1.9535    2.0820   -2.7214 H       1  LIG1        0.0268
     92 H          -1.8203   -0.2052   -2.1307 H       1  LIG1        0.0268
     93 H          -2.7199    0.6279   -0.8727 H       1  LIG1        0.0268
     94 H           1.6139    2.2776    0.9917 H       1  LIG1        0.0276
     95 H           1.2560    1.8590   -0.7113 H       1  LIG1        0.0276
@<TRIPOS>BOND
     1     2     3    1
     2     3     5    1
     3     5     6    1
     4     6     7    1
     5     7     8    1
     6     2     8    1
     7     8     9    1
     8    11    14    1
     9    14    15    1
    10    15    16    1
    11    16    17    1
    12    17    18    1
    13    17    19    1
    14     9    20    1
    15    20    21    1
    16     2    21    1
    17     5    23    1
    18    23    24    1
    19    24    26    1
    20    26    28    1
    21    30    31    1
    22    31    32    1
    23    32    33    1
    24    32    34    2
    25    34    35    1
    26    31    36    2
    27    28    37    1
    28    37    38    1
    29    23    38    1
    30    24    40    1
    31    40    41    1
    32     3    41    1
    33    23    42    1
    34     5    42    1
    35     1     2    1
    36     3     4    1
    37     8    22    1
    38    24    25    1
    39    26    27    1
    40    26    39    1
    41    28    29    1
    42    28    30    1
    43     9    11    1
    44     9    10    1
    45    11    13    1
    46    11    12    1
    47     1    43    1
    48     1    44    1
    49     1    45    1
    50     6    46    1
    51     6    47    1
    52     7    48    1
    53     7    49    1
    54    13    50    1
    55    13    51    1
    56    13    52    1
    57    14    53    1
    58    14    54    1
    59    15    55    1
    60    15    56    1
    61    16    57    1
    62    16    58    1
    63    17    59    1
    64    18    60    1
    65    18    61    1
    66    18    62    1
    67    19    63    1
    68    19    64    1
    69    19    65    1
    70    20    66    1
    71    20    67    1
    72    21    68    1
    73    21    69    1
    74    22    70    1
    75    22    71    1
    76    22    72    1
    77    27    73    1
    78    27    74    1
    79    27    75    1
    80    33    76    1
    81    33    77    1
    82    33    78    1
    83    34    79    1
    84    35    80    1
    85    35    81    1
    86    35    82    1
    87    37    83    1
    88    37    84    1
    89    38    85    1
    90    38    86    1
    91    39    87    1
    92    39    88    1
    93    39    89    1
    94    40    90    1
    95    40    91    1
    96    41    92    1
    97    41    93    1
    98    42    94    1
    99    42    95    1
