@<TRIPOS>MOLECULE
NuBBE_131
 123 129 0 0 0
SMALL
GASTEIGER

@<TRIPOS>ATOM
      1 C           5.9391    5.9036    2.8007 C.3     1  LIG1       -0.0598
      2 C           5.6033    5.0356    1.5675 C.3     1  LIG1       -0.0343
      3 C           5.8959    5.8699    0.3040 C.3     1  LIG1       -0.0468
      4 C           5.2434    5.3272   -0.9643 C.3     1  LIG1       -0.0362
      5 C           3.7184    5.1077   -0.8239 C.3     1  LIG1        0.0741
      6 C           3.2013    4.4951   -2.1439 C.3     1  LIG1       -0.0359
      7 C           1.7114    4.1405   -2.0830 C.3     1  LIG1       -0.0424
      8 C           1.2749    3.2252   -0.8906 C.3     1  LIG1       -0.0051
      9 C          -0.3617    3.2820   -0.7161 C.3     1  LIG1       -0.0194
     10 C          -1.1126    2.6891   -1.9489 C.3     1  LIG1       -0.0463
     11 C          -2.5830    2.3614   -1.6806 C.3     1  LIG1       -0.0486
     12 C          -2.8303    1.3703   -0.5105 C.3     1  LIG1       -0.0278
     13 H          -3.5741    1.9326    0.0834 H       1  LIG1        0.0312
     14 C          -3.5893    0.0143   -0.8571 C.3     1  LIG1       -0.0052
     15 C          -5.0868    0.3718   -1.1218 C.3     1  LIG1       -0.0572
     16 C          -3.5807   -1.0058    0.3729 C.3     1  LIG1        0.0672
     17 H          -4.5541   -1.5129    0.3826 H       1  LIG1        0.0602
     18 C          -3.4685   -0.2013    1.6904 C.3     1  LIG1       -0.0255
     19 C          -2.2460    0.7351    1.8244 C.3     1  LIG1       -0.0447
     20 C          -1.6203    1.2167    0.4752 C.3     1  LIG1       -0.0250
     21 C          -0.9165    2.6349    0.6203 C.3     1  LIG1       -0.0257
     22 H          -1.7769    3.2601    0.9134 H       1  LIG1        0.0315
     23 C           0.0276    2.8074    1.8273 C.3     1  LIG1       -0.0306
     24 C           1.3718    3.4294    1.5993 C.2     1  LIG1       -0.0836
     25 C           1.9855    3.6367    0.4182 C.2     1  LIG1       -0.0629
     26 C           3.4636    4.1019    0.3317 C.3     1  LIG1       -0.0031
     27 H           4.0144    3.1840    0.0734 H       1  LIG1        0.0357
     28 C           4.1161    4.5912    1.6609 C.3     1  LIG1       -0.0403
     29 C          -0.5683    0.1766    0.0713 C.3     1  LIG1       -0.0590
     30 O          -2.6167   -2.0772    0.2275 O.3     1  LIG1       -0.3449
     31 C          -2.5780   -3.0295    1.3133 C.3     1  LIG1        0.1886
     32 H          -2.3756   -2.4554    2.2225 H       1  LIG1        0.0938
     33 O          -3.8537   -3.6914    1.4864 O.3     1  LIG1       -0.3405
     34 C          -3.7776   -4.9539    2.1802 C.3     1  LIG1        0.1130
     35 H          -3.5041   -5.7349    1.4608 H       1  LIG1        0.0647
     36 C          -2.7051   -4.8927    3.2774 C.3     1  LIG1        0.1119
     37 H          -2.8961   -4.0203    3.9177 H       1  LIG1        0.0647
     38 O          -2.6316   -6.0099    4.1663 O.3     1  LIG1       -0.3865
     39 C          -5.1577   -5.3537    2.7089 C.3     1  LIG1        0.0730
     40 O          -5.0984   -6.6469    3.3115 O.3     1  LIG1       -0.3924
     41 C          -1.3869   -4.0590    1.2097 C.3     1  LIG1        0.1406
     42 H          -0.4567   -3.5171    1.0048 H       1  LIG1        0.0675
     43 C          -1.3251   -4.7640    2.6018 C.3     1  LIG1        0.1144
     44 H          -0.8899   -5.7612    2.5296 H       1  LIG1        0.0648
     45 O          -0.4653   -4.0539    3.5099 O.3     1  LIG1       -0.3864
     46 O          -1.6337   -4.9778    0.1067 O.3     1  LIG1       -0.3378
     47 C          -0.6458   -5.9931   -0.1321 C.3     1  LIG1        0.1885
     48 H          -0.3984   -6.4883    0.8072 H       1  LIG1        0.0938
     49 O           0.5831   -5.4285   -0.5966 O.3     1  LIG1       -0.3405
     50 C           0.8853   -5.6216   -1.9888 C.3     1  LIG1        0.1130
     51 H           1.3210   -6.6219   -2.1286 H       1  LIG1        0.0647
     52 C          -0.3872   -5.4976   -2.8422 C.3     1  LIG1        0.1119
     53 H          -0.9148   -4.5696   -2.5995 H       1  LIG1        0.0647
     54 C          -1.2946   -6.6961   -2.5279 C.3     1  LIG1        0.1141
     55 H          -1.0040   -7.5477   -3.1597 H       1  LIG1        0.0648
     56 O          -2.6430   -6.3996   -2.9182 O.3     1  LIG1       -0.3864
     57 O          -0.1817   -5.4843   -4.2581 O.3     1  LIG1       -0.3865
     58 C           1.9859   -4.6095   -2.3304 C.3     1  LIG1        0.0730
     59 O           2.3922   -4.6741   -3.6917 O.3     1  LIG1       -0.3924
     60 C          -1.2305   -7.1086   -1.0489 C.3     1  LIG1        0.1341
     61 H          -2.2257   -7.3962   -0.6901 H       1  LIG1        0.0671
     62 O          -0.3909   -8.2807   -0.9265 O.3     1  LIG1       -0.3841
     63 C          -3.0736   -0.6250   -2.1590 C.3     1  LIG1       -0.0572
     64 C          -0.8136    4.7917   -0.6259 C.3     1  LIG1       -0.0585
     65 C           1.8360    1.8132   -1.2272 C.3     1  LIG1       -0.0553
     66 C           3.0564    6.4715   -0.5798 C.2     1  LIG1        0.3115
     67 O           2.7176    7.1330   -1.6972 O.3     1  LIG1       -0.4802
     68 O           2.8892    7.0459    0.5046 O.2     1  LIG1       -0.2504
     69 C           6.5290    3.8023    1.6035 C.3     1  LIG1       -0.0598
     70 H           5.3104    6.8015    2.8329 H       1  LIG1        0.0235
     71 H           6.9837    6.2355    2.7814 H       1  LIG1        0.0235
     72 H           5.7776    5.3529    3.7337 H       1  LIG1        0.0235
     73 H           6.9806    5.9336    0.1408 H       1  LIG1        0.0271
     74 H           5.5665    6.9054    0.4525 H       1  LIG1        0.0271
     75 H           5.7301    4.3797   -1.2319 H       1  LIG1        0.0276
     76 H           5.4529    6.0208   -1.7885 H       1  LIG1        0.0276
     77 H           3.7919    3.6105   -2.4095 H       1  LIG1        0.0276
     78 H           3.3556    5.1944   -2.9764 H       1  LIG1        0.0276
     79 H           1.4338    3.6636   -3.0323 H       1  LIG1        0.0274
     80 H           1.1807    5.0914   -2.0704 H       1  LIG1        0.0274
     81 H          -0.6466    1.7798   -2.3254 H       1  LIG1        0.0271
     82 H          -1.0619    3.3962   -2.7873 H       1  LIG1        0.0271
     83 H          -3.0554    2.0350   -2.6099 H       1  LIG1        0.0268
     84 H          -3.1026    3.3013   -1.4460 H       1  LIG1        0.0268
     85 H          -5.6575   -0.5228   -1.4008 H       1  LIG1        0.0236
     86 H          -5.1990    1.0959   -1.9355 H       1  LIG1        0.0236
     87 H          -5.5671    0.7956   -0.2325 H       1  LIG1        0.0236
     88 H          -3.5107   -0.8490    2.5710 H       1  LIG1        0.0290
     89 H          -4.3718    0.4182    1.7762 H       1  LIG1        0.0290
     90 H          -1.4868    0.2430    2.4441 H       1  LIG1        0.0271
     91 H          -2.5804    1.6055    2.4062 H       1  LIG1        0.0271
     92 H           0.1861    1.8561    2.3449 H       1  LIG1        0.0310
     93 H          -0.4857    3.4500    2.5573 H       1  LIG1        0.0310
     94 H           1.8845    3.6626    2.5289 H       1  LIG1        0.0572
     95 H           4.0506    3.7956    2.4152 H       1  LIG1        0.0276
     96 H           3.5211    5.4169    2.0667 H       1  LIG1        0.0276
     97 H          -0.8312   -0.8400    0.3410 H       1  LIG1        0.0235
     98 H           0.3621    0.3423    0.6171 H       1  LIG1        0.0235
     99 H          -0.3630    0.1719   -0.9960 H       1  LIG1        0.0235
    100 H          -2.9919   -6.7875    3.6937 H       1  LIG1        0.2100
    101 H          -5.5295   -4.6238    3.4357 H       1  LIG1        0.0584
    102 H          -5.8771   -5.4012    1.8846 H       1  LIG1        0.0584
    103 H          -5.9717   -6.8139    3.7096 H       1  LIG1        0.2095
    104 H          -0.4959   -4.5577    4.3496 H       1  LIG1        0.2100
    105 H          -2.5748   -5.9814   -3.7990 H       1  LIG1        0.2100
    106 H           0.4975   -4.8028   -4.4404 H       1  LIG1        0.2100
    107 H           1.6483   -3.5907   -2.1183 H       1  LIG1        0.0584
    108 H           2.8602   -4.7993   -1.6947 H       1  LIG1        0.0584
    109 H           3.2116   -4.1484   -3.7581 H       1  LIG1        0.2095
    110 H          -0.7655   -8.9706   -1.5034 H       1  LIG1        0.2101
    111 H          -2.0132   -0.8752   -2.1094 H       1  LIG1        0.0236
    112 H          -3.2113    0.0389   -3.0200 H       1  LIG1        0.0236
    113 H          -3.6318   -1.5365   -2.3966 H       1  LIG1        0.0236
    114 H          -0.6980    5.3253   -1.5733 H       1  LIG1        0.0235
    115 H          -0.2652    5.3377    0.1476 H       1  LIG1        0.0235
    116 H          -1.8800    4.8845   -0.3890 H       1  LIG1        0.0235
    117 H           1.2436    1.2788   -1.9694 H       1  LIG1        0.0238
    118 H           1.9495    1.1833   -0.3426 H       1  LIG1        0.0238
    119 H           2.8406    1.8611   -1.6615 H       1  LIG1        0.0238
    120 H           2.3488    7.9803   -1.3705 H       1  LIG1        0.2951
    121 H           6.3412    3.1223    0.7678 H       1  LIG1        0.0235
    122 H           6.3956    3.2360    2.5328 H       1  LIG1        0.0235
    123 H           7.5837    4.1010    1.5592 H       1  LIG1        0.0235
@<TRIPOS>BOND
     1     2     3    1
     2     3     4    1
     3     4     5    1
     4     5     6    1
     5     6     7    1
     6     7     8    1
     7     8     9    1
     8     9    10    1
     9    10    11    1
    10    11    12    1
    11    12    14    1
    12    14    16    1
    13    16    18    1
    14    18    19    1
    15    19    20    1
    16    20    21    1
    17    21    23    1
    18    23    24    1
    19    24    25    2
    20    25    26    1
    21    26    28    1
    22    12    20    1
    23    31    33    1
    24    33    34    1
    25    34    36    1
    26    36    37    1
    27    36    38    1
    28    39    40    1
    29    31    41    1
    30    41    43    1
    31    36    43    1
    32    46    47    1
    33    47    48    1
    34    47    49    1
    35    49    50    1
    36    50    52    1
    37    52    53    1
    38    52    54    1
    39    52    57    1
    40    58    59    1
    41    47    60    1
    42    54    60    1
    43    21     9    1
    44    25     8    1
    45    26     5    1
    46    66    67    1
    47    66    68    2
    48    28     2    1
    49     1     2    1
    50     2    69    1
    51     5    66    1
    52     8    65    1
    53     9    64    1
    54    12    13    1
    55    14    15    1
    56    14    63    1
    57    16    17    1
    58    16    30    1
    59    20    29    1
    60    21    22    1
    61    26    27    1
    62    34    39    1
    63    34    35    1
    64    31    32    1
    65    31    30    1
    66    41    46    1
    67    41    42    1
    68    43    45    1
    69    43    44    1
    70    50    58    1
    71    50    51    1
    72    54    56    1
    73    54    55    1
    74    60    62    1
    75    60    61    1
    76     1    70    1
    77     1    71    1
    78     1    72    1
    79     3    73    1
    80     3    74    1
    81     4    75    1
    82     4    76    1
    83     6    77    1
    84     6    78    1
    85     7    79    1
    86     7    80    1
    87    10    81    1
    88    10    82    1
    89    11    83    1
    90    11    84    1
    91    15    85    1
    92    15    86    1
    93    15    87    1
    94    18    88    1
    95    18    89    1
    96    19    90    1
    97    19    91    1
    98    23    92    1
    99    23    93    1
   100    24    94    1
   101    28    95    1
   102    28    96    1
   103    29    97    1
   104    29    98    1
   105    29    99    1
   106    38   100    1
   107    39   101    1
   108    39   102    1
   109    40   103    1
   110    45   104    1
   111    56   105    1
   112    57   106    1
   113    58   107    1
   114    58   108    1
   115    59   109    1
   116    62   110    1
   117    63   111    1
   118    63   112    1
   119    63   113    1
   120    64   114    1
   121    64   115    1
   122    64   116    1
   123    65   117    1
   124    65   118    1
   125    65   119    1
   126    67   120    1
   127    69   121    1
   128    69   122    1
   129    69   123    1
