REMARK  Name = NuBBE_410
REMARK  7 active torsions:
REMARK  status: ('A' for Active; 'I' for Inactive)
REMARK    1  A    between atoms: O_1  and  C_2
REMARK    2  A    between atoms: C_2  and  C_3
REMARK    3  A    between atoms: C_3  and  C_4
REMARK    4  A    between atoms: C_4  and  C_5
REMARK    5  A    between atoms: C_10  and  C_11
REMARK    6  A    between atoms: C_21  and  O_22
REMARK    7  A    between atoms: O_22  and  C_23
REMARK                            x       y       z     vdW  Elec       q    Type
REMARK                         _______ _______ _______ _____ _____    ______ ____
ROOT
ATOM      1  C   LIG A   1      -0.244   2.301  -1.966  0.00  0.00    -0.043 A 
ATOM      2  C   LIG A   1      -0.536   0.923  -1.978  0.00  0.00    +0.015 A 
ATOM      3  C   LIG A   1      -0.133   0.115  -0.896  0.00  0.00    +0.025 A 
ATOM      4  C   LIG A   1       0.530   0.714   0.170  0.00  0.00    +0.177 A 
ATOM      5  O   LIG A   1       0.829  -0.228   1.104  0.00  0.00    -0.451 OA
ATOM      6  C   LIG A   1       0.379  -1.436   0.662  0.00  0.00    +0.137 A 
ATOM      7  C   LIG A   1      -0.221  -1.269  -0.568  0.00  0.00    +0.058 A 
ATOM      8  C   LIG A   1       0.835   2.079   0.233  0.00  0.00    +0.163 A 
ATOM      9  C   LIG A   1       0.428   2.858  -0.862  0.00  0.00    +0.053 A 
ENDROOT
BRANCH   6  10
ATOM     10  C   LIG A   1       0.634  -2.564   1.559  0.00  0.00    +0.021 A 
ATOM     11  C   LIG A   1       0.220  -3.859   1.211  0.00  0.00    +0.061 A 
ATOM     12  C   LIG A   1       0.480  -4.888   2.097  0.00  0.00    +0.167 A 
ATOM     13  C   LIG A   1       1.124  -4.679   3.293  0.00  0.00    +0.166 A 
ATOM     14  O   LIG A   1       1.274  -5.822   4.011  0.00  0.00    -0.453 OA
ATOM     15  C   LIG A   1       0.650  -6.778   3.131  0.00  0.00    +0.466 C 
ATOM     16  O   LIG A   1       0.143  -6.193   1.911  0.00  0.00    -0.453 OA
ATOM     17  C   LIG A   1       1.550  -3.428   3.674  0.00  0.00    +0.050 A 
ATOM     18  C   LIG A   1       1.300  -2.368   2.797  0.00  0.00    +0.015 A 
ENDBRANCH   6  10
BRANCH   8  19
ATOM     19  O   LIG A   1       1.497   2.752   1.247  0.00  0.00    -0.491 OA
ATOM     20  C   LIG A   1       1.956   1.943   2.327  0.00  0.00    +0.277 C 
ENDBRANCH   8  19
BRANCH   1  21
ATOM     21  C   LIG A   1      -0.649   3.172  -3.137  0.00  0.00    +0.037 C 
BRANCH  21  22
ATOM     22  C   LIG A   1      -2.043   3.780  -2.977  0.00  0.00    +0.032 C 
BRANCH  22  23
ATOM     23  C   LIG A   1      -2.444   4.616  -4.188  0.00  0.00    +0.156 C 
BRANCH  23  24
ATOM     24  O   LIG A   1      -3.743   5.151  -3.966  0.00  0.00    -0.395 OA
ATOM     25  H   LIG A   1      -4.009   5.615  -4.779  0.00  0.00    +0.209 HD
ENDBRANCH  23  24
ENDBRANCH  22  23
ENDBRANCH  21  22
ENDBRANCH   1  21
TORSDOF 6
