@<TRIPOS>MOLECULE
NuBBE_433
 80 83 0 0 0
SMALL
GASTEIGER

@<TRIPOS>ATOM
      1 C           3.7513   -4.0072   -2.0083 C.3     1  LIG1       -0.0438
      2 C           3.1898   -3.9155   -0.6102 C.2     1  LIG1       -0.0763
      3 C           1.6743   -3.9604   -0.4249 C.3     1  LIG1       -0.0168
      4 H           1.4505   -3.9180    0.6507 H       1  LIG1        0.0348
      5 C           1.0431   -5.2617   -0.9367 C.3     1  LIG1       -0.0457
      6 C          -0.3883   -4.8730   -1.2818 C.3     1  LIG1       -0.0468
      7 C          -0.2674   -3.4722   -1.9225 C.3     1  LIG1       -0.0284
      8 C           0.1673   -3.6654   -3.4037 C.3     1  LIG1       -0.0593
      9 C          -1.5945   -2.6973   -1.9536 C.3     1  LIG1       -0.0468
     10 C          -1.5236   -1.2590   -1.4197 C.3     1  LIG1       -0.0464
     11 C          -0.8884   -1.1469   -0.0041 C.3     1  LIG1       -0.0233
     12 C          -1.6374   -2.1523    0.9277 C.3     1  LIG1       -0.0588
     13 C          -1.0056    0.3536    0.6932 C.3     1  LIG1       -0.0231
     14 C          -2.4409    0.9448    0.5247 C.3     1  LIG1       -0.0463
     15 C          -2.5428    2.4704    0.4517 C.3     1  LIG1       -0.0455
     16 C          -1.5119    3.2575    1.2810 C.3     1  LIG1       -0.0147
     17 H          -1.7192    4.2911    0.9862 H       1  LIG1        0.0351
     18 C          -0.0436    2.8984    0.7319 C.3     1  LIG1       -0.0217
     19 C           1.0946    3.1046    1.7667 C.3     1  LIG1       -0.0587
     20 C           0.3032    3.8850   -0.4732 C.3     1  LIG1       -0.0367
     21 C           0.3349    5.3922   -0.1536 C.3     1  LIG1        0.0453
     22 C           0.6717    6.2209   -1.3627 C.2     1  LIG1        0.3047
     23 O           0.0901    7.4291   -1.3343 O.3     1  LIG1       -0.4806
     24 O           1.4168    5.9177   -2.2801 O.2     1  LIG1       -0.2510
     25 C          -1.8356    3.3307    2.7940 C.2     1  LIG1       -0.0761
     26 C          -3.0758    2.6519    3.3306 C.3     1  LIG1       -0.0438
     27 C          -1.1730    4.1246    3.6568 C.2     1  LIG1       -0.0994
     28 C           0.0095    1.3954    0.1039 C.3     1  LIG1       -0.0292
     29 H          -0.2708    1.4983   -0.9558 H       1  LIG1        0.0312
     30 C           1.4313    0.8187    0.1134 C.3     1  LIG1       -0.0489
     31 C           1.5222   -0.4637   -0.6739 C.3     1  LIG1       -0.0491
     32 C           0.6091   -1.5999   -0.1640 C.3     1  LIG1       -0.0313
     33 H           0.9776   -1.8541    0.8379 H       1  LIG1        0.0309
     34 C           0.8946   -2.8051   -1.1367 C.3     1  LIG1       -0.0258
     35 H           1.5558   -2.4073   -1.9148 H       1  LIG1        0.0315
     36 C          -0.7274    0.1875    2.2195 C.3     1  LIG1       -0.0588
     37 C           4.0310   -3.8065    0.4332 C.2     1  LIG1       -0.0994
     38 H           4.8457   -4.0574   -2.0085 H       1  LIG1        0.0274
     39 H           3.4700   -3.1343   -2.6035 H       1  LIG1        0.0274
     40 H           3.3997   -4.9066   -2.5192 H       1  LIG1        0.0274
     41 H           1.0764   -6.0491   -0.1760 H       1  LIG1        0.0271
     42 H           1.5435   -5.6594   -1.8234 H       1  LIG1        0.0271
     43 H          -0.9794   -4.8602   -0.3625 H       1  LIG1        0.0271
     44 H          -0.8499   -5.6086   -1.9490 H       1  LIG1        0.0271
     45 H          -0.5732   -4.2552   -3.9569 H       1  LIG1        0.0235
     46 H           1.1271   -4.1818   -3.4959 H       1  LIG1        0.0235
     47 H           0.2693   -2.6972   -3.9073 H       1  LIG1        0.0235
     48 H          -2.3741   -3.2505   -1.4148 H       1  LIG1        0.0271
     49 H          -1.9903   -2.6445   -2.9773 H       1  LIG1        0.0271
     50 H          -2.5592   -0.9151   -1.4315 H       1  LIG1        0.0271
     51 H          -0.9804   -0.6291   -2.1334 H       1  LIG1        0.0271
     52 H          -2.6810   -1.8502    1.0705 H       1  LIG1        0.0235
     53 H          -1.1648   -2.2447    1.9095 H       1  LIG1        0.0235
     54 H          -1.6548   -3.1704    0.5523 H       1  LIG1        0.0235
     55 H          -3.1072    0.5544    1.3003 H       1  LIG1        0.0271
     56 H          -2.9048    0.6167   -0.4040 H       1  LIG1        0.0271
     57 H          -2.4224    2.7621   -0.6015 H       1  LIG1        0.0271
     58 H          -3.5679    2.7763    0.6918 H       1  LIG1        0.0271
     59 H           1.0522    2.3940    2.5941 H       1  LIG1        0.0235
     60 H           1.1064    4.1100    2.1847 H       1  LIG1        0.0235
     61 H           2.0838    2.9989    1.3062 H       1  LIG1        0.0235
     62 H          -0.4061    3.7240   -1.2950 H       1  LIG1        0.0276
     63 H           1.2857    3.6105   -0.8818 H       1  LIG1        0.0276
     64 H           1.0753    5.6294    0.6154 H       1  LIG1        0.0378
     65 H          -0.6424    5.7329    0.1980 H       1  LIG1        0.0378
     66 H           0.3897    7.8800   -2.1461 H       1  LIG1        0.2951
     67 H          -3.1896    2.7923    4.4119 H       1  LIG1        0.0274
     68 H          -3.0564    1.5755    3.1677 H       1  LIG1        0.0274
     69 H          -3.9718    3.0754    2.8656 H       1  LIG1        0.0274
     70 H          -1.4598    4.1886    4.7036 H       1  LIG1        0.0534
     71 H          -0.3555    4.7694    3.3673 H       1  LIG1        0.0534
     72 H           1.7822    0.6308    1.1340 H       1  LIG1        0.0268
     73 H           2.1322    1.5283   -0.3401 H       1  LIG1        0.0268
     74 H           2.5662   -0.8029   -0.6386 H       1  LIG1        0.0268
     75 H           1.3044   -0.2419   -1.7265 H       1  LIG1        0.0268
     76 H           0.1710   -0.4056    2.4126 H       1  LIG1        0.0235
     77 H          -1.5641   -0.2976    2.7343 H       1  LIG1        0.0235
     78 H          -0.5861    1.1278    2.7397 H       1  LIG1        0.0235
     79 H           5.1085   -3.7845    0.2876 H       1  LIG1        0.0534
     80 H           3.6797   -3.7372    1.4572 H       1  LIG1        0.0534
@<TRIPOS>BOND
     1     1     2    1
     2     3     5    1
     3     5     6    1
     4     6     7    1
     5     7     8    1
     6     7     9    1
     7     9    10    1
     8    10    11    1
     9    11    12    1
    10    11    13    1
    11    13    14    1
    12    14    15    1
    13    15    16    1
    14    16    18    1
    15    18    19    1
    16    18    20    1
    17    20    21    1
    18    21    22    1
    19    22    23    1
    20    22    24    2
    21    25    26    1
    22    25    27    2
    23    13    28    1
    24    28    29    1
    25    18    28    1
    26    28    30    1
    27    30    31    1
    28    31    32    1
    29    32    33    1
    30    11    32    1
    31    32    34    1
    32     3    34    1
    33     7    34    1
    34    34    35    1
    35    13    36    1
    36     2    37    2
    37     3     4    1
    38     3     2    1
    39    16    25    1
    40    16    17    1
    41     1    38    1
    42     1    39    1
    43     1    40    1
    44     5    41    1
    45     5    42    1
    46     6    43    1
    47     6    44    1
    48     8    45    1
    49     8    46    1
    50     8    47    1
    51     9    48    1
    52     9    49    1
    53    10    50    1
    54    10    51    1
    55    12    52    1
    56    12    53    1
    57    12    54    1
    58    14    55    1
    59    14    56    1
    60    15    57    1
    61    15    58    1
    62    19    59    1
    63    19    60    1
    64    19    61    1
    65    20    62    1
    66    20    63    1
    67    21    64    1
    68    21    65    1
    69    23    66    1
    70    26    67    1
    71    26    68    1
    72    26    69    1
    73    27    70    1
    74    27    71    1
    75    30    72    1
    76    30    73    1
    77    31    74    1
    78    31    75    1
    79    36    76    1
    80    36    77    1
    81    36    78    1
    82    37    79    1
    83    37    80    1
