REMARK  Name = NuBBE_684
REMARK  9 active torsions:
REMARK  status: ('A' for Active; 'I' for Inactive)
REMARK    1  A    between atoms: C_3  and  C_4
REMARK    2  A    between atoms: C_9  and  C_10
REMARK    3  A    between atoms: C_11  and  C_12
REMARK    4  A    between atoms: C_12  and  C_14
REMARK    5  A    between atoms: C_12  and  C_16
REMARK    6  A    between atoms: C_14  and  C_15
REMARK    7  A    between atoms: C_23  and  O_24
REMARK    8  A    between atoms: C_27  and  C_35
REMARK    9  A    between atoms: C_29  and  C_34
REMARK                            x       y       z     vdW  Elec       q    Type
REMARK                         _______ _______ _______ _____ _____    ______ ____
ROOT
ATOM      1  O   LIG A   1      -2.393  -2.353   3.506  0.00  0.00    -0.288 OA
ATOM      2  C   LIG A   1      -1.756  -1.848   2.585  0.00  0.00    +0.207 C 
ATOM      3  C   LIG A   1      -2.008  -0.409   2.090  0.00  0.00    +0.141 C 
ATOM      4  C   LIG A   1      -0.847   0.468   2.609  0.00  0.00    +0.051 C 
ATOM      5  C   LIG A   1      -2.126  -0.556   0.570  0.00  0.00    +0.081 C 
ATOM      6  C   LIG A   1      -0.764  -0.926   0.040  0.00  0.00    +0.003 C 
ATOM      7  C   LIG A   1      -0.053  -0.331  -0.928  0.00  0.00    +0.200 C 
ATOM      8  O   LIG A   1       1.175  -0.770  -1.372  0.00  0.00    -0.463 OA
ATOM      9  C   LIG A   1       1.663  -1.987  -0.910  0.00  0.00    +0.128 C 
ATOM     10  C   LIG A   1       1.058  -2.672   0.079  0.00  0.00    +0.056 C 
ATOM     11  C   LIG A   1      -0.134  -2.101   0.714  0.00  0.00    +0.007 C 
ATOM     12  C   LIG A   1      -0.646  -2.591   1.871  0.00  0.00    +0.094 C 
ATOM     13 CL   LIG A   1      -0.035  -3.984   2.696  0.00  0.00    -0.079 Cl
ATOM     14  O   LIG A   1      -3.224   0.212   2.500  0.00  0.00    -0.333 OA
ATOM     15  C   LIG A   1      -3.684   1.068   1.450  0.00  0.00    +0.188 C 
ATOM     16  C   LIG A   1      -3.118   0.536   0.139  0.00  0.00    +0.168 C 
ATOM     17  C   LIG A   1      -3.327   2.528   1.771  0.00  0.00    +0.086 C 
ATOM     18  C   LIG A   1      -3.526   3.345   0.504  0.00  0.00    +0.181 C 
ATOM     19  O   LIG A   1      -2.620   2.840  -0.502  0.00  0.00    -0.461 OA
ATOM     20  C   LIG A   1      -2.692   1.557  -0.880  0.00  0.00    +0.316 C 
ATOM     21  O   LIG A   1      -2.401   1.234  -2.033  0.00  0.00    -0.250 OA
ATOM     22  C   LIG A   1      -3.189   4.822   0.664  0.00  0.00    +0.052 C 
ATOM     23  C   LIG A   1      -4.107   3.073   2.972  0.00  0.00    +0.016 C 
ENDROOT
BRANCH   9  24
ATOM     24  C   LIG A   1       2.882  -2.431  -1.554  0.00  0.00    +0.042 C 
ATOM     25  C   LIG A   1       3.525  -1.736  -2.508  0.00  0.00    -0.020 C 
BRANCH  25  26
ATOM     26  C   LIG A   1       4.824  -2.170  -3.137  0.00  0.00    +0.008 C 
ATOM     27  C   LIG A   1       4.762  -1.924  -4.648  0.00  0.00    +0.012 C 
BRANCH  26  28
ATOM     28  C   LIG A   1       6.020  -1.420  -2.521  0.00  0.00    +0.004 C 
ATOM     29  C   LIG A   1       6.168  -1.645  -1.020  0.00  0.00    +0.004 C 
ENDBRANCH  26  28
ENDBRANCH  25  26
ENDBRANCH   9  24
BRANCH  15  30
ATOM     30  O   LIG A   1      -5.095   0.919   1.416  0.00  0.00    -0.363 OA
ATOM     31  H   LIG A   1      -5.336   0.722   2.340  0.00  0.00    +0.213 HD
ENDBRANCH  15  30
TORSDOF 4
