@<TRIPOS>MOLECULE
NuBBE_141
 39 41 0 0 0
SMALL
GASTEIGER

@<TRIPOS>ATOM
      1 O          -0.5444    1.8135   -1.2136 O.3     1  LIG1       -0.3875
      2 C          -0.8348    1.6222    0.1812 C.3     1  LIG1        0.1004
      3 H          -1.9251    1.6631    0.2817 H       1  LIG1        0.0637
      4 C          -0.2083    2.7751    0.9694 C.3     1  LIG1        0.0092
      5 C           1.2697    2.5727    1.1895 C.ar    1  LIG1        0.0384
      6 C           2.1058    3.6057    1.6419 C.ar    1  LIG1        0.1270
      7 O           1.6543    4.8638    1.9269 O.3     1  LIG1       -0.5063
      8 C           3.4739    3.4032    1.8253 C.ar    1  LIG1        0.0218
      9 C           4.0221    2.1571    1.5588 C.ar    1  LIG1        0.1238
     10 O           5.3543    1.9147    1.7140 O.3     1  LIG1       -0.5065
     11 C           3.2193    1.1113    1.1231 C.ar    1  LIG1        0.0221
     12 C           1.8489    1.3159    0.9569 C.ar    1  LIG1        0.1317
     13 O           1.1486    0.2266    0.5074 O.3     1  LIG1       -0.4811
     14 C          -0.2729    0.2923    0.7150 C.3     1  LIG1        0.1514
     15 H          -0.4475    0.2160    1.7982 H       1  LIG1        0.0811
     16 C          -0.9282   -0.9161    0.0623 C.ar    1  LIG1        0.0023
     17 C          -0.3797   -1.5270   -1.0805 C.ar    1  LIG1       -0.0095
     18 C          -0.9970   -2.6351   -1.6790 C.ar    1  LIG1        0.1625
     19 O          -0.3971   -3.2052   -2.7677 O.3     1  LIG1       -0.5032
     20 C          -2.1814   -3.1519   -1.1525 C.ar    1  LIG1        0.2031
     21 O          -2.8971   -4.2357   -1.5965 O.3     1  LIG1       -0.4885
     22 C          -2.8135   -4.5185   -2.9887 C.3     1  LIG1        0.0791
     23 C          -2.7123   -2.5461   -0.0068 C.ar    1  LIG1        0.1625
     24 O          -3.8640   -3.0332    0.5546 O.3     1  LIG1       -0.5032
     25 C          -2.1128   -1.4418    0.5942 C.ar    1  LIG1       -0.0095
     26 H           0.4034    1.6184   -1.3361 H       1  LIG1        0.2100
     27 H          -0.6881    2.8502    1.9527 H       1  LIG1        0.0342
     28 H          -0.3748    3.7103    0.4223 H       1  LIG1        0.0342
     29 H           0.7025    4.9278    1.7559 H       1  LIG1        0.2921
     30 H           4.0902    4.2284    2.1706 H       1  LIG1        0.0691
     31 H           5.7838    2.7301    2.0242 H       1  LIG1        0.2921
     32 H           3.6580    0.1391    0.9212 H       1  LIG1        0.0691
     33 H           0.5442   -1.1327   -1.4966 H       1  LIG1        0.0659
     34 H           0.4362   -2.7405   -2.9491 H       1  LIG1        0.2923
     35 H          -3.6174   -5.2223   -3.2277 H       1  LIG1        0.0660
     36 H          -1.8727   -5.0163   -3.2384 H       1  LIG1        0.0660
     37 H          -2.9729   -3.6197   -3.5941 H       1  LIG1        0.0660
     38 H          -4.0965   -3.8084    0.0047 H       1  LIG1        0.2923
     39 H          -2.5768   -1.0073    1.4752 H       1  LIG1        0.0659
@<TRIPOS>BOND
     1     2     4    1
     2     4     5    1
     3     5     6   ar
     4     6     7    1
     5     6     8   ar
     6     8     9   ar
     7     9    10    1
     8     9    11   ar
     9    11    12   ar
    10     5    12   ar
    11    12    13    1
    12    13    14    1
    13    14    15    1
    14     2    14    1
    15    14    16    1
    16    16    17   ar
    17    17    18   ar
    18    18    19    1
    19    18    20   ar
    20    20    21    1
    21    21    22    1
    22    20    23   ar
    23    23    24    1
    24    23    25   ar
    25    16    25   ar
    26     2     3    1
    27     2     1    1
    28     1    26    1
    29     4    27    1
    30     4    28    1
    31     7    29    1
    32     8    30    1
    33    10    31    1
    34    11    32    1
    35    17    33    1
    36    19    34    1
    37    22    35    1
    38    22    36    1
    39    22    37    1
    40    24    38    1
    41    25    39    1
