REMARK  Name = NuBBE_1214
REMARK  7 active torsions:
REMARK  status: ('A' for Active; 'I' for Inactive)
REMARK    1  A    between atoms: C_9  and  C_10
REMARK    2  A    between atoms: C_10  and  C_11
REMARK    3  A    between atoms: C_11  and  O_12
REMARK    4  A    between atoms: C_11  and  C_13
REMARK    5  A    between atoms: C_13  and  C_14
REMARK    6  A    between atoms: C_16  and  O_17
REMARK    7  A    between atoms: O_17  and  C_18
REMARK                            x       y       z     vdW  Elec       q    Type
REMARK                         _______ _______ _______ _____ _____    ______ ____
ROOT
ATOM      1  O   LIG A   1      -6.361   1.215   0.213  0.00  0.00    -0.245 OA
ATOM      2  C   LIG A   1      -5.139   1.207   0.216  0.00  0.00    +0.337 A 
ATOM      3  C   LIG A   1      -4.377   2.470   0.195  0.00  0.00    +0.092 A 
ATOM      4  C   LIG A   1      -3.042   2.501   0.195  0.00  0.00    +0.018 A 
ATOM      5  O   LIG A   1      -4.401   0.030   0.234  0.00  0.00    -0.422 OA
ATOM      6  C   LIG A   1      -2.990   0.050   0.272  0.00  0.00    +0.142 A 
ATOM      7  C   LIG A   1      -2.296   1.254   0.249  0.00  0.00    +0.018 A 
ATOM      8  C   LIG A   1      -0.904   1.225   0.328  0.00  0.00    +0.018 A 
ATOM      9  C   LIG A   1      -0.213   0.004   0.465  0.00  0.00    -0.002 A 
ATOM     10  C   LIG A   1      -0.936  -1.204   0.448  0.00  0.00    +0.127 A 
ATOM     11  C   LIG A   1      -2.332  -1.178   0.360  0.00  0.00    +0.092 A 
ENDROOT
BRANCH  10  12
ATOM     12  O   LIG A   1      -0.203  -2.354   0.586  0.00  0.00    -0.495 OA
ATOM     13  C   LIG A   1      -0.756  -3.521  -0.012  0.00  0.00    +0.277 C 
ENDBRANCH  10  12
BRANCH   9  14
ATOM     14  C   LIG A   1       1.296   0.040   0.657  0.00  0.00    +0.074 C 
BRANCH  14  15
ATOM     15  C   LIG A   1       2.103  -0.033  -0.653  0.00  0.00    +0.144 C 
BRANCH  15  16
ATOM     16  C   LIG A   1       3.610  -0.040  -0.438  0.00  0.00    -0.051 C 
ATOM     17  C   LIG A   1       4.229   1.161   0.232  0.00  0.00    +0.041 C 
ATOM     18  C   LIG A   1       4.386  -1.057  -0.853  0.00  0.00    +0.010 C 
ENDBRANCH  15  16
BRANCH  15  19
ATOM     19  O   LIG A   1       1.803   1.109  -1.461  0.00  0.00    -0.387 OA
ATOM     20  H   LIG A   1       2.343   1.024  -2.264  0.00  0.00    +0.210 HD
ENDBRANCH  15  19
ENDBRANCH  14  15
ENDBRANCH   9  14
TORSDOF 5
