@<TRIPOS>MOLECULE
NuBBE_1129
 52 55 0 0 0
SMALL
GASTEIGER

@<TRIPOS>ATOM
      1 C          -2.8956    1.6504   -5.4418 C.3     1  LIG1       -0.0135
      2 S          -1.1888    2.1984   -5.1679 S.3     1  LIG1       -0.1285
      3 C          -1.3010    2.6514   -3.4474 C.ar    1  LIG1        0.0094
      4 C          -2.1083    3.7132   -3.0543 C.ar    1  LIG1       -0.0471
      5 C          -2.1247    4.1009   -1.7197 C.ar    1  LIG1       -0.0427
      6 C          -0.5491    1.9620   -2.4826 C.ar    1  LIG1       -0.0258
      7 C          -0.5980    2.2973   -1.1085 C.ar    1  LIG1        0.0513
      8 C          -1.3461    3.4283   -0.7526 C.ar    1  LIG1        0.0650
      9 S          -1.3359    4.1889    0.8578 S.O     1  LIG1        0.0892
     10 C          -0.2590    3.0827    1.7449 C.ar    1  LIG1        0.0650
     11 C          -0.0002    3.4407    3.0882 C.ar    1  LIG1       -0.0438
     12 C           0.9675    2.7835    3.8418 C.ar    1  LIG1       -0.0605
     13 C           1.7266    1.7991    3.2391 C.ar    1  LIG1       -0.0599
     14 C           1.4816    1.4688    1.9098 C.ar    1  LIG1       -0.0392
     15 C           0.4134    2.0051    1.1579 C.ar    1  LIG1        0.0503
     16 N           0.1385    1.5218   -0.1451 N.pl3   1  LIG1       -0.2981
     17 C          -0.2456    0.0398   -0.2635 C.3     1  LIG1        0.0188
     18 C           0.3447   -0.9301    0.7818 C.3     1  LIG1       -0.0212
     19 C          -0.0212   -2.4326    0.6949 C.3     1  LIG1        0.0116
     20 H          -1.1176   -2.4886    0.6986 H       1  LIG1        0.0463
     21 C           0.5136   -3.1029   -0.5820 C.3     1  LIG1       -0.0373
     22 C           2.0356   -3.2672   -0.5803 C.3     1  LIG1       -0.0505
     23 C           2.5593   -3.8801    0.7165 C.3     1  LIG1       -0.0402
     24 C           1.9552   -3.2165    1.9527 C.3     1  LIG1       -0.0011
     25 N           0.4858   -3.1295    1.9127 N.3     1  LIG1       -0.3023
     26 C          -0.1194   -4.4539    2.0854 C.3     1  LIG1       -0.0125
     27 O          -2.7158    4.0076    1.4259 O.2     1  LIG1       -0.2469
     28 H          -3.0480    1.4683   -6.5089 H       1  LIG1        0.0344
     29 H          -3.6190    2.4035   -5.1180 H       1  LIG1        0.0344
     30 H          -3.0765    0.7194   -4.8983 H       1  LIG1        0.0344
     31 H          -2.7007    4.2700   -3.7758 H       1  LIG1        0.0629
     32 H          -2.7400    4.9511   -1.4281 H       1  LIG1        0.0630
     33 H           0.1137    1.1695   -2.8196 H       1  LIG1        0.0647
     34 H          -0.5510    4.2619    3.5463 H       1  LIG1        0.0630
     35 H           1.1559    3.0742    4.8726 H       1  LIG1        0.0618
     36 H           2.5124    1.2896    3.7878 H       1  LIG1        0.0618
     37 H           2.1533    0.7440    1.4565 H       1  LIG1        0.0636
     38 H           0.0873   -0.3141   -1.2453 H       1  LIG1        0.0468
     39 H          -1.3404   -0.0483   -0.2380 H       1  LIG1        0.0468
     40 H           0.0348   -0.5982    1.7792 H       1  LIG1        0.0296
     41 H           1.4293   -0.8669    0.6934 H       1  LIG1        0.0296
     42 H           0.2090   -2.5379   -1.4682 H       1  LIG1        0.0280
     43 H           0.0517   -4.0914   -0.6925 H       1  LIG1        0.0280
     44 H           2.5101   -2.2914   -0.7335 H       1  LIG1        0.0266
     45 H           2.3352   -3.8961   -1.4258 H       1  LIG1        0.0266
     46 H           3.6516   -3.7867    0.7497 H       1  LIG1        0.0278
     47 H           2.3429   -4.9549    0.7304 H       1  LIG1        0.0278
     48 H           2.3819   -2.2132    2.0731 H       1  LIG1        0.0426
     49 H           2.2785   -3.7541    2.8542 H       1  LIG1        0.0426
     50 H           0.2715   -4.9471    2.9832 H       1  LIG1        0.0391
     51 H           0.0621   -5.1261    1.2408 H       1  LIG1        0.0391
     52 H          -1.2013   -4.3637    2.2223 H       1  LIG1        0.0391
@<TRIPOS>BOND
     1     1     2    1
     2     2     3    1
     3     3     4   ar
     4     4     5   ar
     5     3     6   ar
     6     6     7   ar
     7     7     8   ar
     8     5     8   ar
     9     8     9    1
    10     9    10    1
    11    10    11   ar
    12    11    12   ar
    13    12    13   ar
    14    13    14   ar
    15    14    15   ar
    16    10    15   ar
    17    15    16    1
    18     7    16    1
    19    16    17    1
    20    17    18    1
    21    18    19    1
    22    19    20    1
    23    19    21    1
    24    21    22    1
    25    22    23    1
    26    23    24    1
    27    24    25    1
    28    19    25    1
    29    25    26    1
    30     9    27    2
    31     1    28    1
    32     1    29    1
    33     1    30    1
    34     4    31    1
    35     5    32    1
    36     6    33    1
    37    11    34    1
    38    12    35    1
    39    13    36    1
    40    14    37    1
    41    17    38    1
    42    17    39    1
    43    18    40    1
    44    18    41    1
    45    21    42    1
    46    21    43    1
    47    22    44    1
    48    22    45    1
    49    23    46    1
    50    23    47    1
    51    24    48    1
    52    24    49    1
    53    26    50    1
    54    26    51    1
    55    26    52    1
