@<TRIPOS>MOLECULE
NuBBE_71
 81 85 0 0 0
SMALL
GASTEIGER

@<TRIPOS>ATOM
      1 O          -3.8332   -0.9681    2.2756 O.3     1  LIG1       -0.3912
      2 C          -2.9681   -1.9525    2.8678 C.3     1  LIG1        0.0606
      3 H          -3.5971   -2.5730    3.5185 H       1  LIG1        0.0599
      4 C          -2.5094   -2.8104    1.6945 C.3     1  LIG1       -0.0258
      5 C          -1.4114   -2.1568    0.8573 C.3     1  LIG1       -0.0447
      6 C          -0.1484   -1.6869    1.6831 C.3     1  LIG1       -0.0250
      7 C          -0.7942   -0.6001    2.6326 C.3     1  LIG1       -0.0278
      8 C          -1.8230   -1.2422    3.6999 C.3     1  LIG1       -0.0056
      9 C          -2.5517   -0.2438    4.6379 C.3     1  LIG1       -0.0572
     10 C          -1.1447   -2.2296    4.6888 C.3     1  LIG1       -0.0572
     11 H          -1.4708    0.0012    2.0019 H       1  LIG1        0.0312
     12 C           0.2133    0.4851    3.0277 C.3     1  LIG1       -0.0486
     13 C           0.8616    1.1492    1.7373 C.3     1  LIG1       -0.0463
     14 C           1.8693    0.2363    0.9731 C.3     1  LIG1       -0.0194
     15 C           1.1348   -1.2237    0.7849 C.3     1  LIG1       -0.0257
     16 H           1.9687   -1.8742    1.0880 H       1  LIG1        0.0315
     17 C           0.8559   -1.7559   -0.6446 C.3     1  LIG1       -0.0306
     18 C           1.7333   -1.1630   -1.6994 C.2     1  LIG1       -0.0836
     19 C           1.6747    0.1445   -1.5614 C.2     1  LIG1       -0.0634
     20 C           2.5509    0.7712   -0.4924 C.3     1  LIG1       -0.0051
     21 C           2.7926    2.2931   -0.8193 C.3     1  LIG1       -0.0429
     22 C           2.3655    2.7204   -2.2706 C.3     1  LIG1       -0.0463
     23 C           0.8611    2.4409   -2.5042 C.3     1  LIG1       -0.0255
     24 C           0.6687    0.9246   -2.3882 C.3     1  LIG1       -0.0135
     25 H           1.0156    0.5687   -3.3707 H       1  LIG1        0.0351
     26 C          -0.8442    0.5994   -2.3383 C.3     1  LIG1       -0.0408
     27 C          -1.4449    0.7659   -3.7477 C.3     1  LIG1       -0.0343
     28 C          -2.9917    0.6941   -3.6915 C.3     1  LIG1       -0.0598
     29 C          -1.0109    2.1396   -4.3549 C.3     1  LIG1       -0.0473
     30 C           0.3575    2.7785   -3.9416 C.3     1  LIG1       -0.0466
     31 C          -1.0189   -0.4803   -4.5773 C.3     1  LIG1       -0.0598
     32 C           0.0930    3.3027   -1.4801 C.3     1  LIG1       -0.0590
     33 C           4.0134    0.1779   -0.6741 C.3     1  LIG1       -0.0553
     34 C           3.0694    0.0967    1.9778 C.3     1  LIG1       -0.0585
     35 C           0.4215   -2.9739    2.3418 C.3     1  LIG1       -0.0590
     36 H          -4.5005   -0.7220    2.9379 H       1  LIG1        0.2098
     37 H          -3.3589   -2.9977    1.0218 H       1  LIG1        0.0290
     38 H          -2.1837   -3.7959    2.0362 H       1  LIG1        0.0290
     39 H          -1.8467   -1.2899    0.3342 H       1  LIG1        0.0271
     40 H          -1.1601   -2.8946    0.0906 H       1  LIG1        0.0271
     41 H          -3.1386    0.5105    4.1110 H       1  LIG1        0.0236
     42 H          -1.8660    0.2611    5.3228 H       1  LIG1        0.0236
     43 H          -3.2652   -0.8062    5.2670 H       1  LIG1        0.0236
     44 H          -0.0560   -2.1496    4.6662 H       1  LIG1        0.0236
     45 H          -1.4492   -3.2670    4.5135 H       1  LIG1        0.0236
     46 H          -1.4066   -2.0339    5.7358 H       1  LIG1        0.0236
     47 H           0.9557    0.0808    3.7186 H       1  LIG1        0.0268
     48 H          -0.3067    1.2785    3.5801 H       1  LIG1        0.0268
     49 H           1.3721    2.0677    2.0587 H       1  LIG1        0.0271
     50 H           0.0554    1.4573    1.0661 H       1  LIG1        0.0271
     51 H          -0.1466   -1.4960   -0.9415 H       1  LIG1        0.0310
     52 H           0.9159   -2.8345   -0.6792 H       1  LIG1        0.0310
     53 H           2.6691   -1.7271   -1.5668 H       1  LIG1        0.0572
     54 H           3.8624    2.5372   -0.7692 H       1  LIG1        0.0274
     55 H           2.3430    2.9418   -0.0656 H       1  LIG1        0.0274
     56 H           2.9687    2.1674   -3.0113 H       1  LIG1        0.0271
     57 H           2.5943    3.7760   -2.4343 H       1  LIG1        0.0271
     58 H          -1.3680    1.2295   -1.6105 H       1  LIG1        0.0276
     59 H          -1.0770   -0.4121   -2.0303 H       1  LIG1        0.0276
     60 H          -3.4452    1.6537   -3.4273 H       1  LIG1        0.0235
     61 H          -3.3322   -0.0430   -2.9544 H       1  LIG1        0.0235
     62 H          -3.4055    0.3944   -4.6629 H       1  LIG1        0.0235
     63 H          -1.7716    2.8825   -4.0821 H       1  LIG1        0.0271
     64 H          -1.0518    2.0762   -5.4503 H       1  LIG1        0.0271
     65 H           0.2749    3.8672   -4.0596 H       1  LIG1        0.0271
     66 H           1.1077    2.4583   -4.6760 H       1  LIG1        0.0271
     67 H           0.0497   -0.7039   -4.5389 H       1  LIG1        0.0235
     68 H          -1.3003   -0.3905   -5.6294 H       1  LIG1        0.0235
     69 H          -1.5205   -1.3778   -4.1822 H       1  LIG1        0.0235
     70 H           0.2835    2.9844   -0.4540 H       1  LIG1        0.0235
     71 H          -0.9885    3.2906   -1.6233 H       1  LIG1        0.0235
     72 H           0.4101    4.3503   -1.5529 H       1  LIG1        0.0235
     73 H           4.3576    0.2744   -1.7127 H       1  LIG1        0.0238
     74 H           4.1002   -0.8769   -0.4043 H       1  LIG1        0.0238
     75 H           4.7476    0.7138   -0.0513 H       1  LIG1        0.0238
     76 H           2.7713   -0.2149    2.9787 H       1  LIG1        0.0235
     77 H           3.5943    1.0565    2.0785 H       1  LIG1        0.0235
     78 H           3.7987   -0.6545    1.6657 H       1  LIG1        0.0235
     79 H          -0.3047   -3.5904    2.8601 H       1  LIG1        0.0235
     80 H           1.2426   -2.7406    3.0257 H       1  LIG1        0.0235
     81 H           0.8176   -3.6467    1.5692 H       1  LIG1        0.0235
@<TRIPOS>BOND
     1     2     4    1
     2     4     5    1
     3     5     6    1
     4     6     7    1
     5     7     8    1
     6     2     8    1
     7     7    12    1
     8    12    13    1
     9    13    14    1
    10    14    15    1
    11    15    17    1
    12    17    18    1
    13    18    19    2
    14    19    20    1
    15    20    21    1
    16    21    22    1
    17    22    23    1
    18    23    24    1
    19    19    24    1
    20    24    26    1
    21    26    27    1
    22    27    29    1
    23    29    30    1
    24    30    23    1
    25    14    20    1
    26    15     6    1
    27     6    35    1
    28     7    11    1
    29     8     9    1
    30     8    10    1
    31    14    34    1
    32    15    16    1
    33    20    33    1
    34    23    32    1
    35    24    25    1
    36    27    28    1
    37    27    31    1
    38     2     3    1
    39     2     1    1
    40     1    36    1
    41     4    37    1
    42     4    38    1
    43     5    39    1
    44     5    40    1
    45     9    41    1
    46     9    42    1
    47     9    43    1
    48    10    44    1
    49    10    45    1
    50    10    46    1
    51    12    47    1
    52    12    48    1
    53    13    49    1
    54    13    50    1
    55    17    51    1
    56    17    52    1
    57    18    53    1
    58    21    54    1
    59    21    55    1
    60    22    56    1
    61    22    57    1
    62    26    58    1
    63    26    59    1
    64    28    60    1
    65    28    61    1
    66    28    62    1
    67    29    63    1
    68    29    64    1
    69    30    65    1
    70    30    66    1
    71    31    67    1
    72    31    68    1
    73    31    69    1
    74    32    70    1
    75    32    71    1
    76    32    72    1
    77    33    73    1
    78    33    74    1
    79    33    75    1
    80    34    76    1
    81    34    77    1
    82    34    78    1
    83    35    79    1
    84    35    80    1
    85    35    81    1
