REMARK  Name = NuBBE_393
REMARK  3 active torsions:
REMARK  status: ('A' for Active; 'I' for Inactive)
REMARK    1  A    between atoms: C_1  and  O_2
REMARK    2  A    between atoms: O_2  and  C_3
REMARK    3  A    between atoms: C_4  and  O_5
REMARK                            x       y       z     vdW  Elec       q    Type
REMARK                         _______ _______ _______ _____ _____    ______ ____
ROOT
ATOM      1  C   LIG A   1      -0.384   1.187  -0.793  0.00  0.00    +0.162 A 
ATOM      2  C   LIG A   1       0.524   1.868   0.033  0.00  0.00    +0.162 A 
ATOM      3  C   LIG A   1       1.234   1.216   1.031  0.00  0.00    +0.096 A 
ATOM      4  C   LIG A   1       1.026  -0.147   1.201  0.00  0.00    +0.143 A 
ATOM      5  O   LIG A   1       1.756  -0.790   2.221  0.00  0.00    -0.422 OA
ATOM      6  C   LIG A   1       1.611  -2.149   2.461  0.00  0.00    +0.337 A 
ATOM      7  C   LIG A   1       0.663  -2.881   1.602  0.00  0.00    +0.092 A 
ATOM      8  C   LIG A   1      -0.035  -2.284   0.631  0.00  0.00    +0.019 A 
ATOM      9  O   LIG A   1       2.232  -2.732   3.342  0.00  0.00    -0.245 OA
ATOM     10  C   LIG A   1       0.132  -0.858   0.398  0.00  0.00    +0.021 A 
ATOM     11  C   LIG A   1      -0.577  -0.185  -0.605  0.00  0.00    +0.061 A 
ENDROOT
BRANCH   1  13
ATOM     12  C   LIG A   1      -1.948   1.327  -2.581  0.00  0.00    +0.277 C 
ATOM     13  O   LIG A   1      -1.006   1.971  -1.731  0.00  0.00    -0.491 OA
ENDBRANCH   1  13
BRANCH   2  14
ATOM     14  O   LIG A   1       0.729   3.211  -0.134  0.00  0.00    -0.503 OA
ATOM     15  H   LIG A   1       0.146   3.470  -0.874  0.00  0.00    +0.292 HD
ENDBRANCH   2  14
TORSDOF 2
