@<TRIPOS>MOLECULE
NuBBE_574
 52 54 0 0 0
SMALL
GASTEIGER

@<TRIPOS>ATOM
      1 O           1.8207    3.0868   -1.1758 O.2     1  LIG1       -0.2933
      2 C           0.9136    2.3363   -0.8031 C.2     1  LIG1        0.1760
      3 C           1.1169    1.3082    0.3645 C.3     1  LIG1        0.1712
      4 C          -0.2479    1.5574    0.9230 C.2     1  LIG1       -0.0345
      5 C          -0.1705    2.4258    1.9558 C.2     1  LIG1       -0.0039
      6 C           0.3379    3.8555    1.8445 C.3     1  LIG1       -0.0363
      7 C           0.8263    1.6121    2.6879 C.2     1  LIG1        0.1881
      8 O           0.7615    1.4059    3.8997 O.2     1  LIG1       -0.2872
      9 O           1.4494    0.2521   -0.5163 O.3     1  LIG1       -0.3727
     10 C           1.7388    0.9326    1.7036 C.2     1  LIG1        0.0407
     11 C           2.0951   -0.3622    1.9738 C.2     1  LIG1       -0.0428
     12 C           1.1694   -1.4971    2.5161 C.3     1  LIG1        0.0821
     13 C           1.9812   -2.8008    2.6303 C.3     1  LIG1       -0.0324
     14 O           0.7714   -1.2421    3.8656 O.3     1  LIG1       -0.3848
     15 C          -0.1382   -1.7970    1.6955 C.3     1  LIG1       -0.0203
     16 C           0.0090   -2.0573    0.1739 C.3     1  LIG1       -0.0466
     17 C          -1.1546   -1.5668   -0.6745 C.3     1  LIG1       -0.0322
     18 H          -2.0669   -1.9596   -0.2174 H       1  LIG1        0.0309
     19 C          -1.3693   -0.2763   -1.5449 C.3     1  LIG1       -0.0317
     20 H          -2.4084    0.0603   -1.4734 H       1  LIG1        0.0309
     21 C          -1.1276   -1.6499   -2.1907 C.3     1  LIG1       -0.0287
     22 C          -2.2989   -2.1800   -2.9797 C.3     1  LIG1       -0.0593
     23 C           0.1972   -1.9526   -2.8713 C.3     1  LIG1       -0.0593
     24 C          -0.6029    0.8227   -2.2700 C.3     1  LIG1       -0.0400
     25 C          -0.4567    2.2234   -1.6360 C.3     1  LIG1        0.0186
     26 H          -0.2807    2.9165   -2.4718 H       1  LIG1        0.0376
     27 C          -1.7721    2.7428   -1.0096 C.3     1  LIG1       -0.0556
     28 H          -0.8739    0.6787    1.0054 H       1  LIG1        0.0612
     29 H          -0.5047    4.5454    1.7510 H       1  LIG1        0.0279
     30 H           0.9768    4.0270    0.9726 H       1  LIG1        0.0279
     31 H           0.9361    4.1466    2.7123 H       1  LIG1        0.0279
     32 H           2.3447    0.4595   -0.8582 H       1  LIG1        0.2115
     33 H           2.7703   -0.8050    1.2375 H       1  LIG1        0.0605
     34 H           2.3204   -3.1675    1.6575 H       1  LIG1        0.0260
     35 H           1.3840   -3.5904    3.1062 H       1  LIG1        0.0260
     36 H           2.8557   -2.6608    3.2776 H       1  LIG1        0.0260
     37 H           0.5185   -0.3053    3.9748 H       1  LIG1        0.2106
     38 H          -0.8902   -1.0349    1.9122 H       1  LIG1        0.0296
     39 H          -0.6066   -2.6953    2.1294 H       1  LIG1        0.0296
     40 H           0.0514   -3.1472    0.0432 H       1  LIG1        0.0269
     41 H           0.9757   -1.7376   -0.1886 H       1  LIG1        0.0269
     42 H          -3.2423   -2.0959   -2.4332 H       1  LIG1        0.0235
     43 H          -2.1448   -3.2292   -3.2484 H       1  LIG1        0.0235
     44 H          -2.3964   -1.6050   -3.9092 H       1  LIG1        0.0235
     45 H           0.2291   -1.4840   -3.8614 H       1  LIG1        0.0235
     46 H           0.3264   -3.0309   -2.9984 H       1  LIG1        0.0235
     47 H           1.0640   -1.5855   -2.3158 H       1  LIG1        0.0235
     48 H          -1.1747    0.9808   -3.1972 H       1  LIG1        0.0275
     49 H           0.3831    0.5023   -2.6076 H       1  LIG1        0.0275
     50 H          -2.2128    2.0734   -0.2615 H       1  LIG1        0.0236
     51 H          -2.5526    2.8472   -1.7702 H       1  LIG1        0.0236
     52 H          -1.6308    3.7168   -0.5300 H       1  LIG1        0.0236
@<TRIPOS>BOND
     1     1     2    2
     2     2     3    1
     3     3     4    1
     4     4     5    2
     5     5     6    1
     6     5     7    1
     7     7     8    2
     8     3     9    1
     9     3    10    1
    10     7    10    1
    11    10    11    2
    12    11    12    1
    13    12    15    1
    14    15    16    1
    15    16    17    1
    16    17    18    1
    17    17    19    1
    18    19    20    1
    19    19    21    1
    20    21    22    1
    21    17    21    1
    22    21    23    1
    23    19    24    1
    24    24    25    1
    25     2    25    1
    26    12    14    1
    27    12    13    1
    28    25    27    1
    29    25    26    1
    30     4    28    1
    31     6    29    1
    32     6    30    1
    33     6    31    1
    34     9    32    1
    35    11    33    1
    36    13    34    1
    37    13    35    1
    38    13    36    1
    39    14    37    1
    40    15    38    1
    41    15    39    1
    42    16    40    1
    43    16    41    1
    44    22    42    1
    45    22    43    1
    46    22    44    1
    47    23    45    1
    48    23    46    1
    49    23    47    1
    50    24    48    1
    51    24    49    1
    52    27    50    1
    53    27    51    1
    54    27    52    1
