@<TRIPOS>MOLECULE
NuBBE_1767
 23 24 0 0 0
SMALL
GASTEIGER

@<TRIPOS>ATOM
      1 O          -2.7559    0.0685    0.0039 O.3     1  LIG1       -0.5008
      2 C          -1.3862   -0.0039    0.0025 C.ar    1  LIG1        0.2059
      3 C          -0.5981    1.1374    0.0836 C.ar    1  LIG1        0.1841
      4 C           0.7881    1.0443    0.0821 C.ar    1  LIG1        0.0250
      5 C           1.3796   -0.2206   -0.0033 C.ar    1  LIG1       -0.0054
      6 C           0.5988   -1.3883   -0.0880 C.ar    1  LIG1        0.1658
      7 C          -0.7940   -1.2664   -0.0830 C.ar    1  LIG1        0.2046
      8 O          -1.6360   -2.3433   -0.1577 O.3     1  LIG1       -0.5008
      9 O           1.3525   -2.5277   -0.1653 O.3     1  LIG1       -0.4913
     10 C           0.6729   -3.7697   -0.2851 C.3     1  LIG1        0.0790
     11 C           1.5744    2.2638    0.1689 C.ar    1  LIG1       -0.0441
     12 C           0.9504    3.4433    0.2469 C.ar    1  LIG1        0.0236
     13 C          -0.5182    3.5619    0.2491 C.ar    1  LIG1        0.3373
     14 O          -1.0613    4.6576    0.3210 O.2     1  LIG1       -0.2452
     15 O          -1.2478    2.3828    0.1667 O.2     1  LIG1       -0.4183
     16 H          -2.9844    1.0168    0.0685 H       1  LIG1        0.2924
     17 H           2.4637   -0.3192   -0.0062 H       1  LIG1        0.0662
     18 H          -2.5379   -1.9632   -0.1322 H       1  LIG1        0.2924
     19 H           1.4328   -4.5549   -0.3525 H       1  LIG1        0.0660
     20 H           0.0815   -3.8131   -1.2051 H       1  LIG1        0.0660
     21 H           0.0697   -3.9796    0.6037 H       1  LIG1        0.0660
     22 H           2.6572    2.1980    0.1688 H       1  LIG1        0.0627
     23 H           1.4984    4.3756    0.3127 H       1  LIG1        0.0689
@<TRIPOS>BOND
     1     1     2    1
     2     2     3   ar
     3     3     4   ar
     4     4     5   ar
     5     5     6   ar
     6     6     7   ar
     7     2     7   ar
     8     7     8    1
     9     6     9    1
    10     9    10    1
    11     4    11   ar
    12    11    12   ar
    13    12    13   ar
    14    13    14    2
    15    13    15   ar
    16     3    15   ar
    17     1    16    1
    18     5    17    1
    19     8    18    1
    20    10    19    1
    21    10    20    1
    22    10    21    1
    23    11    22    1
    24    12    23    1
