REMARK  Name = NuBBE_1208
REMARK  11 active torsions:
REMARK  status: ('A' for Active; 'I' for Inactive)
REMARK    1  A    between atoms: C_1  and  C_2
REMARK    2  A    between atoms: C_2  and  C_3
REMARK    3  A    between atoms: C_9  and  O_10
REMARK    4  A    between atoms: C_11  and  C_12
REMARK    5  A    between atoms: C_12  and  C_14
REMARK    6  A    between atoms: C_14  and  C_15
REMARK    7  A    between atoms: C_15  and  C_16
REMARK    8  A    between atoms: C_21  and  C_22
REMARK    9  A    between atoms: C_26  and  C_27
REMARK   10  A    between atoms: C_26  and  C_28
REMARK   11  A    between atoms: C_33  and  O_34
REMARK                            x       y       z     vdW  Elec       q    Type
REMARK                         _______ _______ _______ _____ _____    ______ ____
ROOT
ATOM      1  C   LIG A   1      -2.512   0.321   0.272  0.00  0.00    +0.084 C 
ENDROOT
BRANCH   1   2
ATOM      2  C   LIG A   1      -3.280   1.617   0.563  0.00  0.00    +0.171 C 
ATOM      3  O   LIG A   1      -4.082   1.724   1.486  0.00  0.00    -0.292 OA
BRANCH   2  13
ATOM      4  C   LIG A   1      -1.392   8.461  -2.877  0.00  0.00    +0.055 C 
ATOM      5  C   LIG A   1      -2.322   7.517  -2.098  0.00  0.00    +0.105 C 
ATOM      6  C   LIG A   1      -3.775   7.839  -2.481  0.00  0.00    +0.055 C 
ATOM      7  C   LIG A   1      -2.051   7.674  -0.596  0.00  0.00    +0.052 C 
ATOM      8  C   LIG A   1      -2.832   6.648   0.218  0.00  0.00    +0.046 C 
ATOM      9  C   LIG A   1      -2.748   5.282  -0.408  0.00  0.00    +0.037 A 
ATOM     10  C   LIG A   1      -2.360   5.149  -1.743  0.00  0.00    +0.131 A 
ATOM     11  C   LIG A   1      -2.315   3.893  -2.346  0.00  0.00    +0.092 A 
ATOM     12  C   LIG A   1      -2.647   2.747  -1.620  0.00  0.00    +0.134 A 
ATOM     13  C   LIG A   1      -3.009   2.835  -0.273  0.00  0.00    +0.101 A 
ATOM     14  C   LIG A   1      -3.104   4.120   0.307  0.00  0.00    +0.138 A 
ATOM     15  O   LIG A   1      -2.004   6.191  -2.555  0.00  0.00    -0.486 OA
BRANCH  12  16
ATOM     16  O   LIG A   1      -2.650   1.543  -2.268  0.00  0.00    -0.506 OA
ATOM     17  H   LIG A   1      -2.389   1.675  -3.196  0.00  0.00    +0.292 HD
ENDBRANCH  12  16
BRANCH  14  18
ATOM     18  O   LIG A   1      -3.556   4.301   1.593  0.00  0.00    -0.505 OA
ATOM     19  H   LIG A   1      -4.006   3.473   1.874  0.00  0.00    +0.292 HD
ENDBRANCH  14  18
ENDBRANCH   2  13
ENDBRANCH   1   2
BRANCH   1  20
ATOM     20  C   LIG A   1      -2.363  -0.582   1.505  0.00  0.00    +0.043 C 
BRANCH  20  21
ATOM     21  C   LIG A   1      -1.560  -1.841   1.231  0.00  0.00    -0.046 A 
ATOM     22  C   LIG A   1      -2.181  -3.021   0.797  0.00  0.00    +0.007 A 
ATOM     23  C   LIG A   1      -1.425  -4.168   0.527  0.00  0.00    +0.046 A 
ATOM     24  C   LIG A   1      -0.040  -4.147   0.675  0.00  0.00    +0.124 A 
ATOM     25  O   LIG A   1       0.628  -5.295   0.334  0.00  0.00    -0.485 OA
ATOM     26  C   LIG A   1       2.059  -5.152   0.121  0.00  0.00    +0.112 C 
ATOM     27  C   LIG A   1       2.239  -4.531  -1.281  0.00  0.00    +0.056 C 
ATOM     28  C   LIG A   1       2.621  -6.589   0.106  0.00  0.00    +0.048 C 
ATOM     29  C   LIG A   1       4.144  -6.634   0.135  0.00  0.00    +0.004 C 
ATOM     30  C   LIG A   1       4.696  -5.909   1.358  0.00  0.00    +0.007 C 
ATOM     31  C   LIG A   1       4.224  -4.438   1.484  0.00  0.00    -0.028 C 
ATOM     32  C   LIG A   1       5.001  -3.549   0.495  0.00  0.00    +0.011 C 
ATOM     33  C   LIG A   1       4.610  -3.952   2.905  0.00  0.00    +0.011 C 
ATOM     34  C   LIG A   1       2.670  -4.375   1.321  0.00  0.00    +0.043 C 
ATOM     35  C   LIG A   1       2.081  -2.959   1.356  0.00  0.00    +0.046 C 
ATOM     36  C   LIG A   1       0.592  -2.998   1.153  0.00  0.00    -0.005 A 
ATOM     37  C   LIG A   1      -0.170  -1.847   1.414  0.00  0.00    +0.010 A 
ENDBRANCH  20  21
ENDBRANCH   1  20
TORSDOF 6
