@<TRIPOS>MOLECULE
NuBBE_1811
 42 41 0 0 0
SMALL
GASTEIGER

@<TRIPOS>ATOM
      1 C          -3.6547    7.3566   -0.2839 C.3     1  LIG1        0.0718
      2 O          -3.9993    6.1575    0.4012 O.3     1  LIG1       -0.2381
      3 O          -3.1325    5.1243   -0.1545 O.3     1  LIG1       -0.2350
      4 C          -3.5066    3.9077    0.4936 C.3     1  LIG1        0.0829
      5 C          -2.6757    2.7656   -0.1004 C.3     1  LIG1       -0.0265
      6 C          -2.9266    1.4252    0.5866 C.3     1  LIG1       -0.0509
      7 C          -2.1296    0.2327    0.0156 C.3     1  LIG1       -0.0530
      8 C          -0.5874    0.3248    0.1091 C.3     1  LIG1       -0.0531
      9 C           0.0935   -0.9649   -0.4256 C.3     1  LIG1       -0.0531
     10 C           1.6354   -0.9847   -0.3529 C.3     1  LIG1       -0.0530
     11 C           2.3062   -2.2688   -0.9162 C.3     1  LIG1       -0.0509
     12 C           1.9365   -3.5711   -0.1896 C.3     1  LIG1       -0.0265
     13 C           2.7104   -4.8140   -0.6665 C.3     1  LIG1        0.0829
     14 O           4.1184   -4.6781   -0.4529 O.3     1  LIG1       -0.2350
     15 O           4.3063   -4.8343    0.9842 O.3     1  LIG1       -0.2381
     16 C           5.7163   -4.7982    1.1985 C.3     1  LIG1        0.0718
     17 H          -4.4768    8.0690   -0.1804 H       1  LIG1        0.0555
     18 H          -3.4918    7.1630   -1.3480 H       1  LIG1        0.0555
     19 H          -2.7537    7.7858    0.1582 H       1  LIG1        0.0555
     20 H          -4.5772    3.7307    0.3349 H       1  LIG1        0.0591
     21 H          -3.3182    4.0116    1.5691 H       1  LIG1        0.0591
     22 H          -1.6095    3.0377   -0.0268 H       1  LIG1        0.0288
     23 H          -2.8901    2.6909   -1.1689 H       1  LIG1        0.0288
     24 H          -3.9945    1.1899    0.4949 H       1  LIG1        0.0266
     25 H          -2.7231    1.5137    1.6627 H       1  LIG1        0.0266
     26 H          -2.4187    0.0917   -1.0354 H       1  LIG1        0.0265
     27 H          -2.4576   -0.6659    0.5496 H       1  LIG1        0.0265
     28 H          -0.2996    0.4885    1.1556 H       1  LIG1        0.0265
     29 H          -0.2343    1.1843   -0.4674 H       1  LIG1        0.0265
     30 H          -0.2004   -1.0999   -1.4765 H       1  LIG1        0.0265
     31 H          -0.3007   -1.8190    0.1316 H       1  LIG1        0.0265
     32 H           1.9594   -0.8463    0.6878 H       1  LIG1        0.0265
     33 H           2.0261   -0.1318   -0.9173 H       1  LIG1        0.0265
     34 H           3.3910   -2.1288   -0.8700 H       1  LIG1        0.0266
     35 H           2.0482   -2.3711   -1.9808 H       1  LIG1        0.0266
     36 H           0.8679   -3.7742   -0.3169 H       1  LIG1        0.0288
     37 H           2.1209   -3.4344    0.8851 H       1  LIG1        0.0288
     38 H           2.5534   -4.9671   -1.7427 H       1  LIG1        0.0591
     39 H           2.3416   -5.7153   -0.1509 H       1  LIG1        0.0591
     40 H           6.1119   -3.8096    0.9573 H       1  LIG1        0.0555
     41 H           6.2105   -5.5650    0.5942 H       1  LIG1        0.0555
     42 H           5.9047   -5.0086    2.2544 H       1  LIG1        0.0555
@<TRIPOS>BOND
     1     1     2    1
     2     2     3    1
     3     3     4    1
     4     4     5    1
     5     5     6    1
     6     6     7    1
     7     7     8    1
     8     8     9    1
     9     9    10    1
    10    10    11    1
    11    11    12    1
    12    12    13    1
    13    13    14    1
    14    14    15    1
    15    15    16    1
    16     1    17    1
    17     1    18    1
    18     1    19    1
    19     4    20    1
    20     4    21    1
    21     5    22    1
    22     5    23    1
    23     6    24    1
    24     6    25    1
    25     7    26    1
    26     7    27    1
    27     8    28    1
    28     8    29    1
    29     9    30    1
    30     9    31    1
    31    10    32    1
    32    10    33    1
    33    11    34    1
    34    11    35    1
    35    12    36    1
    36    12    37    1
    37    13    38    1
    38    13    39    1
    39    16    40    1
    40    16    41    1
    41    16    42    1
