REMARK  Name = NuBBE_2472
REMARK  22 active torsions:
REMARK  status: ('A' for Active; 'I' for Inactive)
REMARK    1  A    between atoms: C_1  and  O_2
REMARK    2  A    between atoms: O_2  and  C_3
REMARK    3  A    between atoms: C_4  and  O_5
REMARK    4  A    between atoms: O_5  and  C_6
REMARK    5  A    between atoms: C_6  and  C_7
REMARK    6  A    between atoms: C_11  and  C_12
REMARK    7  A    between atoms: C_12  and  C_13
REMARK    8  A    between atoms: C_13  and  C_15
REMARK    9  A    between atoms: C_13  and  C_33
REMARK   10  A    between atoms: C_15  and  C_17
REMARK   11  A    between atoms: C_15  and  C_22
REMARK   12  A    between atoms: C_17  and  O_18
REMARK   13  A    between atoms: O_18  and  C_19
REMARK   14  A    between atoms: C_19  and  C_20
REMARK   15  A    between atoms: C_22  and  C_23
REMARK   16  A    between atoms: C_26  and  O_27
REMARK   17  A    between atoms: O_27  and  C_28
REMARK   18  A    between atoms: C_29  and  O_30
REMARK   19  A    between atoms: O_30  and  C_31
REMARK   20  A    between atoms: C_33  and  O_34
REMARK   21  A    between atoms: O_34  and  C_35
REMARK   22  A    between atoms: C_35  and  C_36
REMARK                            x       y       z     vdW  Elec       q    Type
REMARK                         _______ _______ _______ _____ _____    ______ ____
ROOT
ATOM      1  C   LIG A   1      -1.618  -0.590   1.213  0.00  0.00    +0.038 C 
ENDROOT
BRANCH   1   2
ATOM      2  C   LIG A   1      -0.264   0.175   1.151  0.00  0.00    +0.042 C 
BRANCH   2   7
ATOM      3  C   LIG A   1       0.699   2.315   4.021  0.00  0.00    +0.163 A 
ATOM      4  C   LIG A   1       1.853   2.980   3.530  0.00  0.00    +0.173 A 
ATOM      5  C   LIG A   1       2.224   2.803   2.190  0.00  0.00    +0.050 A 
ATOM      6  C   LIG A   1       1.484   2.005   1.341  0.00  0.00    +0.007 A 
ATOM      7  C   LIG A   1       0.384   1.313   1.850  0.00  0.00    -0.043 A 
ATOM      8  C   LIG A   1       0.011   1.491   3.143  0.00  0.00    +0.053 A 
BRANCH   3  10
ATOM      9  C   LIG A   1      -0.955   1.616   5.607  0.00  0.00    +0.277 C 
ATOM     10  O   LIG A   1       0.234   2.398   5.312  0.00  0.00    -0.491 OA
ENDBRANCH   3  10
BRANCH   4  11
ATOM     11  O   LIG A   1       2.744   3.714   4.367  0.00  0.00    -0.422 OA
BRANCH  11  12
ATOM     12  C   LIG A   1       3.824   4.451   3.823  0.00  0.00    +0.309 C 
ATOM     13  C   LIG A   1       4.926   4.579   4.818  0.00  0.00    +0.136 C 
ATOM     14  O   LIG A   1       3.934   4.915   2.690  0.00  0.00    -0.251 OA
ENDBRANCH  11  12
ENDBRANCH   4  11
ENDBRANCH   2   7
ENDBRANCH   1   2
BRANCH   1  15
ATOM     15  C   LIG A   1      -1.784  -2.112   0.509  0.00  0.00    +0.038 C 
BRANCH  15  16
ATOM     16  C   LIG A   1      -0.794  -3.204   0.998  0.00  0.00    +0.236 C 
BRANCH  16  17
ATOM     17  O   LIG A   1       0.457  -3.373   0.340  0.00  0.00    -0.465 OA
BRANCH  17  18
ATOM     18  C   LIG A   1       1.175  -2.307   0.352  0.00  0.00    +0.304 C 
ATOM     19  C   LIG A   1       0.867  -1.224  -0.455  0.00  0.00    +0.136 C 
ATOM     20  O   LIG A   1       2.379  -2.353   0.833  0.00  0.00    -0.251 OA
ENDBRANCH  17  18
ENDBRANCH  16  17
ENDBRANCH  15  16
BRANCH  15  21
ATOM     21  C   LIG A   1      -2.324  -2.386  -0.994  0.00  0.00    +0.042 C 
BRANCH  21  22
ATOM     22  C   LIG A   1      -1.524  -2.328  -2.326  0.00  0.00    -0.043 A 
ATOM     23  C   LIG A   1      -2.062  -2.331  -3.570  0.00  0.00    +0.007 A 
ATOM     24  C   LIG A   1      -1.244  -1.950  -4.651  0.00  0.00    +0.050 A 
ATOM     25  C   LIG A   1       0.110  -1.499  -4.542  0.00  0.00    +0.162 A 
ATOM     26  C   LIG A   1       0.700  -1.516  -3.306  0.00  0.00    +0.162 A 
ATOM     27  C   LIG A   1      -0.133  -2.318  -2.433  0.00  0.00    +0.053 A 
BRANCH  25  28
ATOM     28  O   LIG A   1       0.834  -1.080  -5.616  0.00  0.00    -0.491 OA
ATOM     29  C   LIG A   1       0.449  -1.676  -6.848  0.00  0.00    +0.277 C 
ENDBRANCH  25  28
BRANCH  26  30
ATOM     30  O   LIG A   1       2.022  -0.971  -3.125  0.00  0.00    -0.491 OA
ATOM     31  C   LIG A   1       2.593  -0.084  -2.013  0.00  0.00    +0.277 C 
ENDBRANCH  26  30
ENDBRANCH  21  22
ENDBRANCH  15  21
ENDBRANCH   1  15
BRANCH   1  32
ATOM     32  C   LIG A   1      -2.691   0.421   0.763  0.00  0.00    +0.236 C 
BRANCH  32  33
ATOM     33  O   LIG A   1      -2.436   0.829  -0.589  0.00  0.00    -0.465 OA
BRANCH  33  34
ATOM     34  C   LIG A   1      -3.513   0.935  -1.412  0.00  0.00    +0.304 C 
ATOM     35  C   LIG A   1      -3.203   0.252  -2.695  0.00  0.00    +0.136 C 
ATOM     36  O   LIG A   1      -4.633   1.316  -1.090  0.00  0.00    -0.251 OA
ENDBRANCH  33  34
ENDBRANCH  32  33
ENDBRANCH   1  32
TORSDOF 16
