@<TRIPOS>MOLECULE
NuBBE_490
 77 81 0 0 0
SMALL
GASTEIGER

@<TRIPOS>ATOM
      1 CL          0.4472   -0.7268    2.6763 Cl      1  LIG1       -0.0792
      2 C          -0.3062    0.7765    2.2609 C.2     1  LIG1        0.0938
      3 C          -0.5294    1.7314    3.4101 C.2     1  LIG1        0.2068
      4 C          -0.8536    3.1835    3.0211 C.3     1  LIG1        0.1407
      5 C           0.4628    3.8875    2.6441 C.3     1  LIG1       -0.0277
      6 C          -1.9063    3.0851    1.9242 C.3     1  LIG1        0.0418
      7 C          -1.3137    2.4191    0.7206 C.2     1  LIG1        0.0034
      8 C          -1.3662    2.8410   -0.5532 C.2     1  LIG1        0.0966
      9 O          -0.8795    2.1141   -1.6274 O.2     1  LIG1       -0.4632
     10 H          -2.7029    2.4016    2.2669 H       1  LIG1        0.0392
     11 O          -1.4949    3.9715    4.0222 O.3     1  LIG1       -0.3329
     12 C          -2.3796    4.8930    3.3712 C.3     1  LIG1        0.1881
     13 O          -1.7029    6.1446    3.4045 O.3     1  LIG1       -0.3635
     14 C          -2.5294    4.4767    1.9056 C.3     1  LIG1        0.1202
     15 H          -1.9768    5.1613    1.2498 H       1  LIG1        0.0474
     16 C          -3.6829    5.0134    4.1594 C.3     1  LIG1        0.0478
     17 H          -3.5129    5.6222    5.0573 H       1  LIG1        0.0386
     18 C          -4.7272    5.7077    3.2881 C.3     1  LIG1        0.1077
     19 H          -5.6827    5.7001    3.8268 H       1  LIG1        0.0735
     20 O          -4.9470    4.9599    2.0816 O.3     1  LIG1       -0.4608
     21 C          -3.9425    4.4093    1.3748 C.2     1  LIG1        0.3164
     22 O          -4.1884    3.8570    0.3036 O.2     1  LIG1       -0.2503
     23 C          -4.4330    7.1579    2.9200 C.3     1  LIG1       -0.0273
     24 C          -4.2094    3.6511    4.6431 C.3     1  LIG1       -0.0541
     25 O          -0.4393    1.3670    4.5810 O.2     1  LIG1       -0.2880
     26 C          -0.6308    1.1374    0.9960 C.2     1  LIG1        0.0067
     27 C          -0.3469    0.2933   -0.1567 C.2     1  LIG1       -0.0104
     28 C          -0.4399    0.8102   -1.3959 C.2     1  LIG1        0.1279
     29 C          -0.1413    0.0668   -2.6024 C.2     1  LIG1       -0.0229
     30 C           0.7843   -0.9050   -2.6742 C.2     1  LIG1       -0.0742
     31 C           1.1447   -1.6829   -3.9227 C.3     1  LIG1        0.0115
     32 H           0.5728   -1.2812   -4.7690 H       1  LIG1        0.0376
     33 C           2.6355   -1.4641   -4.2150 C.3     1  LIG1       -0.0556
     34 C           0.7899   -3.1881   -3.7646 C.3     1  LIG1        0.1063
     35 H          -0.2850   -3.2764   -3.5506 H       1  LIG1        0.0737
     36 O           1.5571   -3.7390   -2.6698 O.3     1  LIG1       -0.4590
     37 C           1.1252   -4.9152   -2.1248 C.2     1  LIG1        0.3411
     38 C           2.1520   -5.4161   -1.0714 C.3     1  LIG1        0.1795
     39 O           1.8891   -6.7017   -0.4946 O.3     1  LIG1       -0.3639
     40 C           0.7267   -6.7319    0.3304 C.3     1  LIG1        0.0380
     41 C           3.5841   -5.4074   -1.6299 C.ar    1  LIG1       -0.0082
     42 C           4.4060   -4.2829   -1.4216 C.ar    1  LIG1       -0.0556
     43 C           5.7103   -4.2346   -1.9244 C.ar    1  LIG1       -0.0614
     44 C           6.2195   -5.3098   -2.6457 C.ar    1  LIG1       -0.0617
     45 C           5.4162   -6.4248   -2.8790 C.ar    1  LIG1       -0.0614
     46 C           4.1052   -6.4719   -2.3828 C.ar    1  LIG1       -0.0556
     47 H           2.1255   -4.6923   -0.2435 H       1  LIG1        0.0764
     48 O           0.0356   -5.4450   -2.3845 O.2     1  LIG1       -0.2475
     49 C           1.1305   -3.9808   -5.0291 C.3     1  LIG1       -0.0272
     50 H           1.0763    3.3097    1.9455 H       1  LIG1        0.0262
     51 H           1.0673    4.0541    3.5439 H       1  LIG1        0.0262
     52 H           0.2897    4.8728    2.2003 H       1  LIG1        0.0262
     53 H          -1.8277    3.7566   -0.8996 H       1  LIG1        0.1032
     54 H          -1.4341    6.2606    4.3341 H       1  LIG1        0.2128
     55 H          -3.6280    7.2444    2.1839 H       1  LIG1        0.0265
     56 H          -4.1817    7.7512    3.8036 H       1  LIG1        0.0265
     57 H          -5.3149    7.6032    2.4454 H       1  LIG1        0.0265
     58 H          -4.4014    2.9602    3.8169 H       1  LIG1        0.0235
     59 H          -5.1479    3.7771    5.1937 H       1  LIG1        0.0235
     60 H          -3.4984    3.1719    5.3242 H       1  LIG1        0.0235
     61 H          -0.0445   -0.7356   -0.0062 H       1  LIG1        0.0661
     62 H          -0.7068    0.3586   -3.4855 H       1  LIG1        0.0651
     63 H           1.3586   -1.1664   -1.7866 H       1  LIG1        0.0577
     64 H           2.8637   -0.3996   -4.3342 H       1  LIG1        0.0237
     65 H           2.9306   -1.9569   -5.1457 H       1  LIG1        0.0237
     66 H           3.2700   -1.8557   -3.4117 H       1  LIG1        0.0237
     67 H           0.7997   -7.6015    0.9914 H       1  LIG1        0.0524
     68 H          -0.1772   -6.8515   -0.2741 H       1  LIG1        0.0524
     69 H           0.6417   -5.8379    0.9570 H       1  LIG1        0.0524
     70 H           4.0311   -3.4256   -0.8673 H       1  LIG1        0.0621
     71 H           6.3306   -3.3592   -1.7487 H       1  LIG1        0.0618
     72 H           7.2395   -5.2796   -3.0224 H       1  LIG1        0.0618
     73 H           5.8174   -7.2636   -3.4435 H       1  LIG1        0.0618
     74 H           3.5003   -7.3551   -2.5799 H       1  LIG1        0.0621
     75 H           0.8167   -5.0248   -4.9331 H       1  LIG1        0.0265
     76 H           2.2126   -4.0166   -5.1964 H       1  LIG1        0.0265
     77 H           0.6473   -3.5531   -5.9119 H       1  LIG1        0.0265
@<TRIPOS>BOND
     1     2     3    1
     2     3     4    1
     3     4     6    1
     4     6     7    1
     5     7     8    2
     6     8     9    1
     7     4    11    1
     8    11    12    1
     9    12    14    1
    10     6    14    1
    11    12    16    1
    12    16    18    1
    13    18    20    1
    14    20    21    1
    15    14    21    1
    16     2    26    2
    17     7    26    1
    18    26    27    1
    19    27    28    2
    20     9    28    1
    21    29    30    2
    22    30    31    1
    23    31    32    1
    24    31    33    1
    25    34    36    1
    26    36    37    1
    27    37    38    1
    28    38    39    1
    29    39    40    1
    30    38    41    1
    31    41    42   ar
    32    42    43   ar
    33    43    44   ar
    34    44    45   ar
    35    45    46   ar
    36    41    46   ar
    37    38    47    1
    38    37    48    2
    39    34    49    1
    40     1     2    1
    41     3    25    2
    42     4     5    1
    43     6    10    1
    44    12    13    1
    45    14    15    1
    46    18    19    1
    47    18    23    1
    48    21    22    2
    49    28    29    1
    50    16    24    1
    51    16    17    1
    52    34    35    1
    53    34    31    1
    54     5    50    1
    55     5    51    1
    56     5    52    1
    57     8    53    1
    58    13    54    1
    59    23    55    1
    60    23    56    1
    61    23    57    1
    62    24    58    1
    63    24    59    1
    64    24    60    1
    65    27    61    1
    66    29    62    1
    67    30    63    1
    68    33    64    1
    69    33    65    1
    70    33    66    1
    71    40    67    1
    72    40    68    1
    73    40    69    1
    74    42    70    1
    75    43    71    1
    76    44    72    1
    77    45    73    1
    78    46    74    1
    79    49    75    1
    80    49    76    1
    81    49    77    1
