@<TRIPOS>MOLECULE
NuBBE_907
 25 26 0 0 0
SMALL
GASTEIGER

@<TRIPOS>ATOM
      1 O          -2.5330   -0.1757    0.3938 O.3     1  LIG1       -0.4943
      2 C          -3.3658    0.9777    0.4481 C.3     1  LIG1        0.0788
      3 C          -1.1834    0.0317    0.2519 C.ar    1  LIG1        0.1342
      4 C          -0.3710   -1.1135    0.1882 C.ar    1  LIG1        0.0594
      5 C           1.0050   -0.9507    0.0118 C.ar    1  LIG1        0.1460
      6 C           1.5988    0.3058   -0.0995 C.ar    1  LIG1        0.0233
      7 C           0.7931    1.4363   -0.0301 C.ar    1  LIG1        0.1271
      8 C          -0.5866    1.2963    0.1609 C.ar    1  LIG1        0.0226
      9 O           1.2333    2.7299   -0.0973 O.3     1  LIG1       -0.4949
     10 C           2.4345    2.9384   -0.8313 C.3     1  LIG1        0.0788
     11 O           1.8688   -2.0662   -0.0625 O.2     1  LIG1       -0.4219
     12 C           1.3881   -3.3632    0.0315 C.ar    1  LIG1        0.3372
     13 O           2.1222   -4.3447   -0.0510 O.2     1  LIG1       -0.2452
     14 C          -0.0588   -3.5194    0.2404 C.ar    1  LIG1        0.0237
     15 C          -0.8888   -2.4724    0.3100 C.ar    1  LIG1       -0.0408
     16 H          -4.4067    0.6412    0.4542 H       1  LIG1        0.0660
     17 H          -3.2346    1.6140   -0.4338 H       1  LIG1        0.0660
     18 H          -3.1867    1.5381    1.3716 H       1  LIG1        0.0660
     19 H           2.6746    0.3693   -0.2161 H       1  LIG1        0.0691
     20 H          -1.1721    2.2083    0.2230 H       1  LIG1        0.0691
     21 H           2.5806    4.0189   -0.9259 H       1  LIG1        0.0660
     22 H           2.3564    2.5209   -1.8410 H       1  LIG1        0.0660
     23 H           3.3008    2.5322   -0.3010 H       1  LIG1        0.0660
     24 H          -0.4164   -4.5374    0.3343 H       1  LIG1        0.0689
     25 H          -1.9525   -2.6158    0.4697 H       1  LIG1        0.0628
@<TRIPOS>BOND
     1     1     2    1
     2     1     3    1
     3     3     4   ar
     4     4     5   ar
     5     5     6   ar
     6     6     7   ar
     7     7     8   ar
     8     3     8   ar
     9     7     9    1
    10     9    10    1
    11     5    11   ar
    12    11    12   ar
    13    12    13    2
    14    12    14   ar
    15    14    15   ar
    16     4    15   ar
    17     2    16    1
    18     2    17    1
    19     2    18    1
    20     6    19    1
    21     8    20    1
    22    10    21    1
    23    10    22    1
    24    10    23    1
    25    14    24    1
    26    15    25    1
