REMARK  Name = NuBBE_1109
REMARK  4 active torsions:
REMARK  status: ('A' for Active; 'I' for Inactive)
REMARK    1  A    between atoms: C_1  and  C_2
REMARK    2  A    between atoms: C_2  and  C_3
REMARK    3  A    between atoms: C_8  and  C_10
REMARK    4  A    between atoms: N_12  and  C_13
REMARK                            x       y       z     vdW  Elec       q    Type
REMARK                         _______ _______ _______ _____ _____    ______ ____
ROOT
ATOM      1  C   LIG A   1       0.675   0.058   0.009  0.00  0.00    +0.009 C 
ATOM      2  C   LIG A   1       1.565  -0.937   0.143  0.00  0.00    +0.096 C 
ATOM      3  N   LIG A   1       2.483  -1.341  -0.804  0.00  0.00    -0.254 N 
ATOM      4  C   LIG A   1       2.675  -0.785  -2.119  0.00  0.00    +0.140 C 
ATOM      5  C   LIG A   1       3.214  -2.427  -0.320  0.00  0.00    +0.313 C 
ATOM      6  N   LIG A   1       2.767  -2.698   0.946  0.00  0.00    -0.235 N 
ATOM      7  C   LIG A   1       1.781  -1.839   1.328  0.00  0.00    +0.266 C 
ATOM      8  O   LIG A   1       1.217  -1.808   2.405  0.00  0.00    -0.268 OA
ATOM      9  O   LIG A   1       4.096  -3.042  -0.896  0.00  0.00    -0.252 OA
ATOM     10  H   LIG A   1       3.142  -3.428   1.525  0.00  0.00    +0.159 HD
ENDROOT
BRANCH   1  15
ATOM     11  C   LIG A   1      -1.815   0.486   0.619  0.00  0.00    +0.108 C 
ATOM     12  C   LIG A   1      -2.378   1.477   1.610  0.00  0.00    +0.311 C 
ATOM     13  O   LIG A   1      -1.407   2.343   2.025  0.00  0.00    -0.464 OA
ATOM     14  C   LIG A   1      -0.158   1.967   1.444  0.00  0.00    +0.240 C 
ATOM     15  C   LIG A   1      -0.337   0.516   1.030  0.00  0.00    +0.065 C 
ATOM     16  O   LIG A   1      -3.543   1.540   1.967  0.00  0.00    -0.251 OA
BRANCH  11  18
ATOM     17  C   LIG A   1      -3.606   1.005  -1.132  0.00  0.00    +0.004 C 
ATOM     18  C   LIG A   1      -2.116   0.917  -0.824  0.00  0.00    +0.012 C 
ENDBRANCH  11  18
ENDBRANCH   1  15
TORSDOF 2
