REMARK  Name = NuBBE_1210
REMARK  13 active torsions:
REMARK  status: ('A' for Active; 'I' for Inactive)
REMARK    1  A    between atoms: O_1  and  C_2
REMARK    2  A    between atoms: C_11  and  C_28
REMARK    3  A    between atoms: C_12  and  C_27
REMARK    4  A    between atoms: C_15  and  C_17
REMARK    5  A    between atoms: C_17  and  C_19
REMARK    6  A    between atoms: C_17  and  C_20
REMARK    7  A    between atoms: C_20  and  C_21
REMARK    8  A    between atoms: C_22  and  C_23
REMARK    9  A    between atoms: C_23  and  C_24
REMARK   10  A    between atoms: C_23  and  O_25
REMARK   11  A    between atoms: C_23  and  C_26
REMARK   12  A    between atoms: C_33  and  C_34
REMARK   13  A    between atoms: C_33  and  C_35
REMARK                            x       y       z     vdW  Elec       q    Type
REMARK                         _______ _______ _______ _____ _____    ______ ____
ROOT
ATOM      1  C   LIG A   1      -3.454   2.081  -0.064  0.00  0.00    +0.120 C 
ATOM      2  C   LIG A   1      -3.147   0.969   0.926  0.00  0.00    +0.032 C 
ATOM      3  C   LIG A   1      -2.356   1.554   2.077  0.00  0.00    +0.010 C 
ATOM      4  C   LIG A   1      -1.019   2.123   1.618  0.00  0.00    -0.019 C 
ATOM      5  C   LIG A   1      -0.121   2.549   2.767  0.00  0.00    +0.015 C 
ATOM      6  C   LIG A   1       0.301   1.377   1.904  0.00  0.00    -0.019 C 
ATOM      7  C   LIG A   1       0.191   0.005   2.522  0.00  0.00    +0.008 C 
ATOM      8  C   LIG A   1       1.522  -0.610   2.909  0.00  0.00    +0.008 C 
ATOM      9  C   LIG A   1       2.597  -0.615   1.820  0.00  0.00    -0.023 C 
ATOM     10  C   LIG A   1       2.761   0.845   1.240  0.00  0.00    -0.023 C 
ATOM     11  C   LIG A   1       3.633   0.583  -0.004  0.00  0.00    +0.008 C 
ATOM     12  C   LIG A   1       3.240  -0.792  -0.541  0.00  0.00    +0.005 C 
ATOM     13  C   LIG A   1       2.455  -1.561   0.559  0.00  0.00    -0.001 C 
ATOM     14  C   LIG A   1       3.528   1.785   2.201  0.00  0.00    +0.012 C 
ATOM     15  C   LIG A   1       3.897  -1.115   2.543  0.00  0.00    +0.012 C 
ATOM     16  C   LIG A   1       1.377   1.501   0.822  0.00  0.00    +0.002 C 
ATOM     17  C   LIG A   1       1.512   2.975   0.385  0.00  0.00    +0.005 C 
ATOM     18  C   LIG A   1       0.221   3.590  -0.156  0.00  0.00    +0.005 C 
ATOM     19  C   LIG A   1      -1.133   3.110   0.432  0.00  0.00    +0.004 C 
ATOM     20  C   LIG A   1      -2.160   2.670  -0.695  0.00  0.00    -0.006 C 
ATOM     21  C   LIG A   1      -1.552   1.652  -1.692  0.00  0.00    +0.014 C 
ATOM     22  C   LIG A   1      -2.584   3.922  -1.507  0.00  0.00    +0.014 C 
ENDROOT
BRANCH   1  23
ATOM     23  O   LIG A   1      -4.336   1.581  -1.069  0.00  0.00    -0.391 OA
ATOM     24  H   LIG A   1      -5.142   1.266  -0.625  0.00  0.00    +0.210 HD
ENDBRANCH   1  23
BRANCH  13  25
ATOM     25  C   LIG A   1       1.094  -2.127   0.023  0.00  0.00    -0.007 C 
ATOM     26  C   LIG A   1       0.328  -2.996   1.036  0.00  0.00    +0.008 C 
BRANCH  25  27
ATOM     27  C   LIG A   1       1.340  -3.028  -1.236  0.00  0.00    +0.030 C 
BRANCH  27  28
ATOM     28  C   LIG A   1       0.084  -3.607  -1.827  0.00  0.00    -0.028 C 
ATOM     29  C   LIG A   1      -0.562  -3.041  -2.872  0.00  0.00    +0.002 C 
BRANCH  29  30
ATOM     30  C   LIG A   1      -1.852  -3.503  -3.522  0.00  0.00    +0.079 C 
ATOM     31  C   LIG A   1      -2.723  -2.293  -3.871  0.00  0.00    +0.045 C 
ATOM     32  C   LIG A   1      -2.678  -4.498  -2.696  0.00  0.00    +0.045 C 
BRANCH  30  33
ATOM     33  O   LIG A   1      -1.495  -4.137  -4.750  0.00  0.00    -0.385 OA
ATOM     34  H   LIG A   1      -0.782  -4.766  -4.548  0.00  0.00    +0.211 HD
ENDBRANCH  30  33
ENDBRANCH  29  30
ENDBRANCH  27  28
ENDBRANCH  25  27
ENDBRANCH  13  25
TORSDOF 6
