REMARK  Name = NuBBE_2306
REMARK  8 active torsions:
REMARK  status: ('A' for Active; 'I' for Inactive)
REMARK    1  A    between atoms: C_5  and  C_6
REMARK    2  A    between atoms: C_8  and  C_25
REMARK    3  A    between atoms: C_12  and  C_20
REMARK    4  A    between atoms: C_12  and  O_23
REMARK    5  A    between atoms: C_15  and  O_18
REMARK    6  A    between atoms: O_18  and  C_19
REMARK    7  A    between atoms: C_20  and  C_21
REMARK    8  A    between atoms: O_23  and  C_24
REMARK                            x       y       z     vdW  Elec       q    Type
REMARK                         _______ _______ _______ _____ _____    ______ ____
ROOT
ATOM      1  C   LIG A   1      -1.508   1.034   0.949  0.00  0.00    +0.211 C 
ATOM      2  C   LIG A   1      -1.587  -0.429   0.490  0.00  0.00    +0.065 C 
ATOM      3  C   LIG A   1      -0.784  -0.404  -0.765  0.00  0.00    +0.004 C 
ATOM      4  C   LIG A   1      -0.379  -1.444  -1.500  0.00  0.00    +0.023 C 
ATOM      5  C   LIG A   1       0.367  -1.286  -2.805  0.00  0.00    +0.156 C 
ATOM      6  C   LIG A   1       0.493   0.229  -3.222  0.00  0.00    +0.237 C 
ATOM      7  O   LIG A   1       0.900   0.559  -4.349  0.00  0.00    -0.285 OA
ATOM      8  C   LIG A   1       0.174   1.321  -2.221  0.00  0.00    +0.208 C 
ATOM      9  C   LIG A   1      -0.474   0.950  -1.095  0.00  0.00    +0.170 C 
ATOM     10  O   LIG A   1      -0.895   1.811  -0.107  0.00  0.00    -0.480 OA
ATOM     11  C   LIG A   1      -3.029  -0.853   0.212  0.00  0.00    +0.016 C 
ENDROOT
BRANCH   1  16
ATOM     12  C   LIG A   1       1.371   1.578   3.444  0.00  0.00    +0.050 A 
ATOM     13  C   LIG A   1       0.664   1.510   4.622  0.00  0.00    +0.166 A 
ATOM     14  C   LIG A   1      -0.694   1.302   4.640  0.00  0.00    +0.167 A 
ATOM     15  C   LIG A   1      -1.424   1.150   3.478  0.00  0.00    +0.056 A 
ATOM     16  C   LIG A   1      -0.741   1.215   2.249  0.00  0.00    -0.003 A 
ATOM     17  C   LIG A   1       0.660   1.423   2.251  0.00  0.00    +0.011 A 
ATOM     18  O   LIG A   1      -1.193   1.267   5.905  0.00  0.00    -0.453 OA
ATOM     19  C   LIG A   1       0.011   1.459   6.679  0.00  0.00    +0.466 C 
ATOM     20  O   LIG A   1       1.192   1.630   5.869  0.00  0.00    -0.453 OA
ENDBRANCH   1  16
BRANCH   8  21
ATOM     21  O   LIG A   1       0.574   2.587  -2.577  0.00  0.00    -0.488 OA
ATOM     22  C   LIG A   1       0.392   3.660  -1.662  0.00  0.00    +0.277 C 
ENDBRANCH   8  21
BRANCH   5  23
ATOM     23  O   LIG A   1      -0.426  -2.091  -3.687  0.00  0.00    -0.364 OA
ATOM     24  C   LIG A   1      -0.018  -2.214  -5.037  0.00  0.00    +0.195 C 
ENDBRANCH   5  23
BRANCH   5  25
ATOM     25  C   LIG A   1       1.830  -1.799  -2.642  0.00  0.00    +0.074 C 
BRANCH  25  26
ATOM     26  C   LIG A   1       1.983  -3.245  -2.232  0.00  0.00    -0.031 C 
ATOM     27  C   LIG A   1       2.589  -3.654  -1.109  0.00  0.00    +0.004 C 
ENDBRANCH  25  26
ENDBRANCH   5  25
TORSDOF 5
