@<TRIPOS>MOLECULE
NuBBE_383
 74 78 0 0 0
SMALL
GASTEIGER

@<TRIPOS>ATOM
      1 O          -3.2836   -4.5210   -3.9480 O.2     1  LIG1       -0.2840
      2 C          -2.5128   -4.5787   -2.9931 C.2     1  LIG1        0.2206
      3 C          -2.3535   -5.8609   -2.2428 C.2     1  LIG1        0.1671
      4 O          -3.0272   -6.9584   -2.7510 O.2     1  LIG1       -0.5030
      5 C          -1.5954   -5.9225   -1.1299 C.2     1  LIG1        0.0022
      6 C          -0.9804   -4.6825   -0.6247 C.2     1  LIG1       -0.0144
      7 C          -0.4964   -4.5672    0.6362 C.2     1  LIG1       -0.0536
      8 C          -0.1411   -3.2771    1.2141 C.2     1  LIG1       -0.0569
      9 C          -0.0048   -2.1916    0.4262 C.2     1  LIG1       -0.0335
     10 C          -0.1386   -0.8002    0.9164 C.2     1  LIG1       -0.0382
     11 C          -1.1541   -0.4159    1.7370 C.2     1  LIG1       -0.0680
     12 C          -1.4319    1.0256    2.1319 C.3     1  LIG1       -0.0233
     13 C          -0.3469    2.0717    1.7900 C.3     1  LIG1        0.0037
     14 C           0.6632    2.1084    2.9604 C.3     1  LIG1       -0.0565
     15 C          -0.9869    3.4960    1.6805 C.3     1  LIG1        0.0880
     16 H          -1.3664    3.8121    2.6605 H       1  LIG1        0.0625
     17 C          -0.0289    4.5908    1.1371 C.3     1  LIG1        0.0970
     18 H           0.7060    4.8308    1.9145 H       1  LIG1        0.0630
     19 C           0.6949    4.1860   -0.1669 C.3     1  LIG1        0.0934
     20 C           1.8448    5.1786   -0.4036 C.2     1  LIG1        0.3154
     21 O           3.0172    4.7219    0.1161 O.3     1  LIG1       -0.4675
     22 C           4.1916    5.3351   -0.4109 C.3     1  LIG1        0.0817
     23 O           1.7228    6.2434   -0.9865 O.2     1  LIG1       -0.2501
     24 C           1.2817    2.7595   -0.0366 C.3     1  LIG1       -0.0308
     25 C           0.2614    1.6965    0.4104 C.3     1  LIG1       -0.0224
     26 C           0.8083    0.2245    0.2561 C.3     1  LIG1       -0.0033
     27 C           0.9210   -0.0262   -1.2948 C.3     1  LIG1       -0.0422
     28 C          -0.0480   -1.0802   -1.8247 C.3     1  LIG1       -0.0388
     29 C           0.1229   -2.4225   -1.0856 C.3     1  LIG1        0.0189
     30 C          -0.8917   -3.4973   -1.5124 C.2     1  LIG1       -0.0259
     31 C          -1.6609   -3.4367   -2.6124 C.2     1  LIG1       -0.0067
     32 C           1.5373   -2.9846   -1.4308 C.3     1  LIG1       -0.0515
     33 C           2.2232    0.0463    0.8634 C.3     1  LIG1       -0.0553
     34 H          -0.5812    1.7462   -0.2955 H       1  LIG1        0.0316
     35 C          -0.2036    4.2574   -1.4232 C.3     1  LIG1       -0.0469
     36 O          -0.8341    5.7710    0.9488 O.3     1  LIG1       -0.3881
     37 O          -2.1429    3.4686    0.8288 O.3     1  LIG1       -0.3886
     38 C          -2.2362   -1.3334    2.2726 C.3     1  LIG1       -0.0432
     39 C          -1.3982   -7.2113   -0.3810 C.3     1  LIG1       -0.0356
     40 H          -3.5245   -6.6089   -3.5218 H       1  LIG1        0.2923
     41 H          -0.5265   -5.3915    1.3423 H       1  LIG1        0.0624
     42 H          -0.2117   -3.1964    2.2946 H       1  LIG1        0.0621
     43 H          -1.6351    1.0631    3.2114 H       1  LIG1        0.0316
     44 H          -2.3784    1.2889    1.6441 H       1  LIG1        0.0316
     45 H           0.2045    2.5628    3.8478 H       1  LIG1        0.0236
     46 H           1.5575    2.6955    2.7382 H       1  LIG1        0.0236
     47 H           0.9735    1.1079    3.2700 H       1  LIG1        0.0236
     48 H           4.2285    5.1846   -1.4946 H       1  LIG1        0.0661
     49 H           5.0543    4.8281    0.0307 H       1  LIG1        0.0661
     50 H           4.2335    6.3966   -0.1575 H       1  LIG1        0.0661
     51 H           2.1015    2.7537    0.6883 H       1  LIG1        0.0280
     52 H           1.7520    2.4915   -0.9899 H       1  LIG1        0.0280
     53 H           1.9491   -0.2946   -1.5679 H       1  LIG1        0.0274
     54 H           0.7231    0.8841   -1.8723 H       1  LIG1        0.0274
     55 H           0.1347   -1.2000   -2.9005 H       1  LIG1        0.0277
     56 H          -1.0757   -0.7043   -1.7243 H       1  LIG1        0.0277
     57 H          -1.6769   -2.5992   -3.2968 H       1  LIG1        0.0660
     58 H           1.6859   -3.0233   -2.5170 H       1  LIG1        0.0241
     59 H           1.6976   -4.0016   -1.0545 H       1  LIG1        0.0241
     60 H           2.3447   -2.3791   -1.0104 H       1  LIG1        0.0241
     61 H           2.2539    0.2319    1.9370 H       1  LIG1        0.0238
     62 H           2.9587    0.7059    0.3911 H       1  LIG1        0.0238
     63 H           2.5949   -0.9747    0.7261 H       1  LIG1        0.0238
     64 H          -1.0374    3.5519   -1.3945 H       1  LIG1        0.0241
     65 H           0.3761    4.0306   -2.3267 H       1  LIG1        0.0241
     66 H          -0.6300    5.2565   -1.5665 H       1  LIG1        0.0241
     67 H          -0.2789    6.4609    0.5362 H       1  LIG1        0.2099
     68 H          -2.3743    4.4114    0.6934 H       1  LIG1        0.2099
     69 H          -1.9404   -1.7370    3.2462 H       1  LIG1        0.0275
     70 H          -2.4782   -2.1521    1.5906 H       1  LIG1        0.0275
     71 H          -3.1769   -0.7888    2.4132 H       1  LIG1        0.0275
     72 H          -1.8048   -8.0753   -0.9167 H       1  LIG1        0.0279
     73 H          -1.8940   -7.1731    0.5944 H       1  LIG1        0.0279
     74 H          -0.3312   -7.4083   -0.2302 H       1  LIG1        0.0279
@<TRIPOS>BOND
     1     2     3    1
     2     3     5    2
     3     5     6    1
     4     6     7    2
     5     7     8    1
     6     8     9    2
     7     9    10    1
     8    10    11    2
     9    11    12    1
    10    12    13    1
    11    13    15    1
    12    15    17    1
    13    17    19    1
    14    20    21    1
    15    21    22    1
    16    20    23    2
    17    19    24    1
    18    24    25    1
    19    25    26    1
    20    26    27    1
    21    27    28    1
    22    28    29    1
    23    29    30    1
    24     6    30    1
    25    30    31    2
    26     2    31    1
    27     9    29    1
    28    10    26    1
    29    13    25    1
    30     1     2    2
    31     3     4    1
    32     5    39    1
    33    11    38    1
    34    13    14    1
    35    15    16    1
    36    15    37    1
    37    19    20    1
    38    19    35    1
    39    25    34    1
    40    26    33    1
    41    29    32    1
    42    17    36    1
    43    17    18    1
    44     4    40    1
    45     7    41    1
    46     8    42    1
    47    12    43    1
    48    12    44    1
    49    14    45    1
    50    14    46    1
    51    14    47    1
    52    22    48    1
    53    22    49    1
    54    22    50    1
    55    24    51    1
    56    24    52    1
    57    27    53    1
    58    27    54    1
    59    28    55    1
    60    28    56    1
    61    31    57    1
    62    32    58    1
    63    32    59    1
    64    32    60    1
    65    33    61    1
    66    33    62    1
    67    33    63    1
    68    35    64    1
    69    35    65    1
    70    35    66    1
    71    36    67    1
    72    37    68    1
    73    38    69    1
    74    38    70    1
    75    38    71    1
    76    39    72    1
    77    39    73    1
    78    39    74    1
