REMARK  Name = NuBBE_2520
REMARK  9 active torsions:
REMARK  status: ('A' for Active; 'I' for Inactive)
REMARK    1  A    between atoms: C_1  and  C_2
REMARK    2  A    between atoms: C_1  and  C_4
REMARK    3  A    between atoms: C_5  and  C_6
REMARK    4  A    between atoms: C_7  and  C_17
REMARK    5  A    between atoms: C_13  and  O_15
REMARK    6  A    between atoms: O_15  and  C_16
REMARK    7  A    between atoms: C_19  and  O_20
REMARK    8  A    between atoms: O_20  and  C_21
REMARK    9  A    between atoms: C_22  and  O_25
REMARK                            x       y       z     vdW  Elec       q    Type
REMARK                         _______ _______ _______ _____ _____    ______ ____
ROOT
ATOM      1  C   LIG A   1      -1.363   0.004  -1.022  0.00  0.00    +0.039 C 
ATOM      2  C   LIG A   1      -0.376  -1.213  -1.029  0.00  0.00    +0.008 C 
ATOM      3  C   LIG A   1      -0.087  -1.851  -2.389  0.00  0.00    +0.009 C 
ATOM      4  C   LIG A   1       0.974  -0.679  -0.386  0.00  0.00    +0.040 C 
ATOM      5  C   LIG A   1       0.837   0.879  -0.400  0.00  0.00    +0.132 C 
ATOM      6  C   LIG A   1      -0.613   0.754   0.039  0.00  0.00    +0.151 C 
ATOM      7  O   LIG A   1      -1.075   1.231   1.075  0.00  0.00    -0.296 OA
ATOM      8  C   LIG A   1       0.655   2.201  -1.175  0.00  0.00    +0.172 C 
ATOM      9  O   LIG A   1       1.520   3.077  -1.155  0.00  0.00    -0.294 OA
ATOM     10  C   LIG A   1      -0.665   2.347  -2.001  0.00  0.00    +0.185 C 
ATOM     11  C   LIG A   1      -1.308   0.949  -2.272  0.00  0.00    +0.054 C 
ENDROOT
BRANCH   4  12
ATOM     12  C   LIG A   1       1.319  -1.230   1.001  0.00  0.00    -0.039 A 
ATOM     13  C   LIG A   1       2.048  -0.444   1.917  0.00  0.00    +0.053 A 
ATOM     14  C   LIG A   1       2.376  -0.934   3.183  0.00  0.00    +0.162 A 
ATOM     15  C   LIG A   1       1.966  -2.219   3.539  0.00  0.00    +0.159 A 
ATOM     16  C   LIG A   1       1.302  -3.035   2.638  0.00  0.00    +0.049 A 
ATOM     17  C   LIG A   1       1.000  -2.549   1.365  0.00  0.00    +0.008 A 
BRANCH  14  18
ATOM     18  O   LIG A   1       3.049  -0.234   4.152  0.00  0.00    -0.491 OA
ATOM     19  C   LIG A   1       4.002   0.709   3.670  0.00  0.00    +0.277 C 
ENDBRANCH  14  18
BRANCH  15  20
ATOM     20  O   LIG A   1       2.237  -2.712   4.785  0.00  0.00    -0.503 OA
ATOM     21  H   LIG A   1       2.655  -1.969   5.262  0.00  0.00    +0.292 HD
ENDBRANCH  15  20
ENDBRANCH   4  12
BRANCH  10  22
ATOM     22  O   LIG A   1      -1.660   3.141  -1.367  0.00  0.00    -0.372 OA
ATOM     23  C   LIG A   1      -1.243   4.480  -1.121  0.00  0.00    +0.195 C 
ENDBRANCH  10  22
BRANCH   1  24
ATOM     24  C   LIG A   1      -2.795  -0.334  -0.572  0.00  0.00    +0.041 C 
BRANCH  24  25
ATOM     25  C   LIG A   1      -3.499  -1.376  -1.402  0.00  0.00    -0.034 C 
ATOM     26  C   LIG A   1      -4.289  -1.113  -2.450  0.00  0.00    +0.004 C 
ENDBRANCH  24  25
ENDBRANCH   1  24
TORSDOF 6
