REMARK  Name = NuBBE_1176
REMARK  13 active torsions:
REMARK  status: ('A' for Active; 'I' for Inactive)
REMARK    1  A    between atoms: C_1  and  C_2
REMARK    2  A    between atoms: C_4  and  O_6
REMARK    3  A    between atoms: C_8  and  C_9
REMARK    4  A    between atoms: C_8  and  C_10
REMARK    5  A    between atoms: C_10  and  O_11
REMARK    6  A    between atoms: C_12  and  O_14
REMARK    7  A    between atoms: C_15  and  O_17
REMARK    8  A    between atoms: C_19  and  C_20
REMARK    9  A    between atoms: C_25  and  C_26
REMARK   10  A    between atoms: C_29  and  C_30
REMARK   11  A    between atoms: C_30  and  O_31
REMARK   12  A    between atoms: C_34  and  C_36
REMARK   13  A    between atoms: C_37  and  C_39
REMARK                            x       y       z     vdW  Elec       q    Type
REMARK                         _______ _______ _______ _____ _____    ______ ____
ROOT
ATOM      1  C   LIG A   1      -2.222  -0.696   0.014  0.00  0.00    +0.012 C 
ATOM      2  C   LIG A   1      -0.756  -0.616  -0.490  0.00  0.00    -0.017 C 
ATOM      3  C   LIG A   1      -0.588  -1.696  -1.578  0.00  0.00    +0.039 C 
ATOM      4  C   LIG A   1      -0.605  -3.148  -1.096  0.00  0.00    +0.119 C 
ATOM      5  C   LIG A   1       0.541  -3.456  -0.080  0.00  0.00    +0.034 C 
ATOM      6  C   LIG A   1       0.639  -5.010   0.349  0.00  0.00    +0.025 C 
ATOM      7  C   LIG A   1       2.056  -5.340   0.917  0.00  0.00    +0.016 C 
ATOM      8  C   LIG A   1      -0.425  -5.350   1.429  0.00  0.00    +0.151 C 
ATOM      9  C   LIG A   1      -0.475  -4.351   2.599  0.00  0.00    +0.144 C 
ATOM     10  C   LIG A   1      -0.611  -2.895   2.141  0.00  0.00    +0.041 C 
ATOM     11  C   LIG A   1       0.479  -2.439   1.142  0.00  0.00    -0.020 C 
ATOM     12  C   LIG A   1       1.844  -2.428   1.905  0.00  0.00    +0.012 C 
ATOM     13  C   LIG A   1       0.290  -0.932   0.637  0.00  0.00    +0.006 C 
ATOM     14  C   LIG A   1       0.119   0.099   1.772  0.00  0.00    +0.031 C 
ATOM     15  C   LIG A   1       0.258   1.500   1.268  0.00  0.00    -0.026 C 
ATOM     16  C   LIG A   1       0.051   1.892  -0.001  0.00  0.00    -0.063 C 
ATOM     17  C   LIG A   1      -0.449   0.899  -1.087  0.00  0.00    -0.005 C 
ATOM     18  C   LIG A   1       0.624   0.807  -2.217  0.00  0.00    +0.016 C 
ATOM     19  C   LIG A   1      -1.729   1.557  -1.692  0.00  0.00    +0.012 C 
ATOM     20  C   LIG A   1      -1.531   2.979  -2.239  0.00  0.00    +0.019 C 
ATOM     21  C   LIG A   1      -0.884   3.973  -1.233  0.00  0.00    +0.074 C 
ATOM     22  C   LIG A   1       0.323   3.327  -0.493  0.00  0.00    +0.035 C 
ATOM     23  C   LIG A   1       1.128   4.333   0.403  0.00  0.00    -0.003 C 
ATOM     24  C   LIG A   1       0.411   4.900   1.636  0.00  0.00    +0.008 C 
ATOM     25  C   LIG A   1       1.656   5.468  -0.523  0.00  0.00    -0.011 C 
ATOM     26  C   LIG A   1       2.545   6.479   0.202  0.00  0.00    +0.008 C 
ATOM     27  C   LIG A   1       0.507   6.173  -1.260  0.00  0.00    +0.004 C 
ATOM     28  C   LIG A   1      -0.361   5.191  -2.053  0.00  0.00    +0.019 C 
ENDROOT
BRANCH   4  29
ATOM     29  O   LIG A   1      -0.411  -3.906  -2.297  0.00  0.00    -0.392 OA
ATOM     30  H   LIG A   1      -1.182  -3.743  -2.869  0.00  0.00    +0.210 HD
ENDBRANCH   4  29
BRANCH   8  31
ATOM     31  O   LIG A   1      -1.748  -5.392   0.860  0.00  0.00    -0.389 OA
ATOM     32  H   LIG A   1      -1.810  -6.257   0.411  0.00  0.00    +0.210 HD
ENDBRANCH   8  31
BRANCH   9  33
ATOM     33  O   LIG A   1      -1.616  -4.663   3.412  0.00  0.00    -0.389 OA
ATOM     34  H   LIG A   1      -2.321  -4.885   2.770  0.00  0.00    +0.210 HD
ENDBRANCH   9  33
BRANCH  21  35
ATOM     35  C   LIG A   1      -2.003   4.462  -0.311  0.00  0.00    +0.311 C 
ATOM     36  O   LIG A   1      -2.715   5.441  -0.499  0.00  0.00    -0.250 OA
BRANCH  35  37
ATOM     37  O   LIG A   1      -2.236   3.689   0.762  0.00  0.00    -0.480 OA
ATOM     38  H   LIG A   1      -2.955   4.148   1.243  0.00  0.00    +0.295 HD
ENDBRANCH  35  37
ENDBRANCH  21  35
BRANCH   6  39
ATOM     39  C   LIG A   1       0.464  -5.977  -0.860  0.00  0.00    +0.165 C 
BRANCH  39  40
ATOM     40  O   LIG A   1       0.553  -7.343  -0.443  0.00  0.00    -0.394 OA
ATOM     41  H   LIG A   1       0.678  -7.870  -1.253  0.00  0.00    +0.209 HD
ENDBRANCH  39  40
ENDBRANCH   6  39
TORSDOF 7
