REMARK  Name = NuBBE_2209
REMARK  6 active torsions:
REMARK  status: ('A' for Active; 'I' for Inactive)
REMARK    1  A    between atoms: C_1  and  C_3
REMARK    2  A    between atoms: C_1  and  C_7
REMARK    3  A    between atoms: C_4  and  C_5
REMARK    4  A    between atoms: C_4  and  C_6
REMARK    5  A    between atoms: C_9  and  C_10
REMARK    6  A    between atoms: C_14  and  O_15
REMARK                            x       y       z     vdW  Elec       q    Type
REMARK                         _______ _______ _______ _____ _____    ______ ____
ROOT
ATOM      1  C   LIG A   1       0.438   0.236   0.159  0.00  0.00    +0.064 A 
ATOM      2  C   LIG A   1       0.958   1.542   0.075  0.00  0.00    +0.023 A 
ATOM      3  C   LIG A   1       2.338   1.774   0.007  0.00  0.00    -0.025 A 
ATOM      4  C   LIG A   1       3.201   0.673  -0.008  0.00  0.00    +0.011 A 
ATOM      5  C   LIG A   1       2.705  -0.627   0.102  0.00  0.00    +0.046 A 
ATOM      6  C   LIG A   1       1.330  -0.847   0.200  0.00  0.00    +0.128 A 
ENDROOT
BRANCH   1   7
ATOM      7  C   LIG A   1      -1.042   0.099   0.241  0.00  0.00    +0.190 C 
ATOM      8  O   LIG A   1      -1.692   0.993   0.780  0.00  0.00    -0.287 OA
BRANCH   7   9
ATOM      9  C   LIG A   1      -1.694  -1.058  -0.437  0.00  0.00    +0.050 C 
ATOM     10  C   LIG A   1      -2.969  -1.481  -0.277  0.00  0.00    -0.072 C 
ATOM     11  C   LIG A   1      -3.986  -0.902   0.668  0.00  0.00    +0.039 C 
ATOM     12  C   LIG A   1      -3.478  -2.651  -1.077  0.00  0.00    +0.039 C 
ENDBRANCH   7   9
ENDBRANCH   1   7
BRANCH   3  13
ATOM     13  C   LIG A   1       2.841   3.152  -0.095  0.00  0.00    +0.000 C 
ATOM     14  C   LIG A   1       4.032   3.557   0.368  0.00  0.00    +0.009 C 
ENDBRANCH   3  13
BRANCH   6  15
ATOM     15  O   LIG A   1       0.884  -2.127   0.364  0.00  0.00    -0.506 OA
ATOM     16  H   LIG A   1       1.645  -2.711   0.528  0.00  0.00    +0.292 HD
ENDBRANCH   6  15
TORSDOF 4
