@<TRIPOS>MOLECULE
NuBBE_295
 28 29 0 0 0
SMALL
GASTEIGER

@<TRIPOS>ATOM
      1 O          -1.9788    3.6295    1.2519 O.3     1  LIG1       -0.5059
      2 C          -1.1577    3.0751    0.3130 C.ar    1  LIG1        0.1312
      3 C          -0.4474    3.9240   -0.5420 C.ar    1  LIG1       -0.0192
      4 C           0.4016    3.3893   -1.5108 C.ar    1  LIG1       -0.0548
      5 C           0.5411    2.0079   -1.6257 C.ar    1  LIG1       -0.0184
      6 C          -0.1671    1.1604   -0.7695 C.ar    1  LIG1        0.1423
      7 O           0.0389   -0.1850   -0.9550 O.2     1  LIG1       -0.4593
      8 C          -0.6058   -1.0744   -0.1149 C.ar    1  LIG1        0.1117
      9 C          -0.2752   -2.5197   -0.3786 C.3     1  LIG1        0.0314
     10 C           1.2150   -2.8599   -0.2224 C.3     1  LIG1        0.0593
     11 H           1.8051   -2.3022   -0.9587 H       1  LIG1        0.0595
     12 O           1.3818   -4.2511   -0.5082 O.3     1  LIG1       -0.3916
     13 C           1.7509   -2.5843    1.1780 C.3     1  LIG1       -0.0385
     14 C          -1.4555   -0.7016    0.8507 C.ar    1  LIG1        0.0241
     15 C          -1.0212    1.6848    0.2051 C.ar    1  LIG1        0.1052
     16 C          -1.7368    0.7277    1.0792 C.ar    1  LIG1        0.1963
     17 O          -2.5228    1.0401    1.9640 O.2     1  LIG1       -0.2869
     18 H          -1.9776    4.5962    1.1764 H       1  LIG1        0.2922
     19 H          -0.5434    5.0036   -0.4652 H       1  LIG1        0.0654
     20 H           0.9543    4.0490   -2.1756 H       1  LIG1        0.0620
     21 H           1.2019    1.5899   -2.3812 H       1  LIG1        0.0654
     22 H          -0.5925   -2.7739   -1.3988 H       1  LIG1        0.0369
     23 H          -0.8641   -3.1806    0.2717 H       1  LIG1        0.0369
     24 H           2.3253   -4.4627   -0.4008 H       1  LIG1        0.2098
     25 H           2.8038   -2.8791    1.2470 H       1  LIG1        0.0255
     26 H           1.2105   -3.1740    1.9264 H       1  LIG1        0.0255
     27 H           1.6783   -1.5254    1.4426 H       1  LIG1        0.0255
     28 H          -1.9624   -1.4036    1.5012 H       1  LIG1        0.0689
@<TRIPOS>BOND
     1     1     2    1
     2     2     3   ar
     3     3     4   ar
     4     4     5   ar
     5     5     6   ar
     6     6     7   ar
     7     7     8   ar
     8     8     9    1
     9    10    12    1
    10    10    13    1
    11     8    14   ar
    12     6    15   ar
    13     2    15   ar
    14    15    16   ar
    15    14    16   ar
    16    16    17    2
    17    10    11    1
    18    10     9    1
    19     1    18    1
    20     3    19    1
    21     4    20    1
    22     5    21    1
    23     9    22    1
    24     9    23    1
    25    12    24    1
    26    13    25    1
    27    13    26    1
    28    13    27    1
    29    14    28    1
