@<TRIPOS>MOLECULE
NuBBE_1909
 32 34 0 0 0
SMALL
GASTEIGER

@<TRIPOS>ATOM
      1 C          -1.7947    2.5720    2.5740 C.3     1  LIG1        0.0791
      2 O          -1.0718    1.3793    2.2961 O.3     1  LIG1       -0.4884
      3 C          -0.4051    1.3254    1.0979 C.ar    1  LIG1        0.2084
      4 C          -0.2675    0.0417    0.5424 C.ar    1  LIG1        0.1845
      5 C           0.4208   -0.1241   -0.6597 C.ar    1  LIG1        0.0719
      6 C           0.5491   -1.4734   -1.2305 C.ar    1  LIG1        0.2004
      7 C          -0.0402   -2.5761   -0.4642 C.ar    1  LIG1        0.0646
      8 C           0.0659   -3.8946   -0.9144 C.ar    1  LIG1       -0.0474
      9 C          -0.4973   -4.9252   -0.1619 C.ar    1  LIG1       -0.0609
     10 C          -1.1636   -4.6335    1.0293 C.ar    1  LIG1       -0.0582
     11 C          -1.2679   -3.3119    1.4709 C.ar    1  LIG1       -0.0186
     12 C          -0.7025   -2.2780    0.7232 C.ar    1  LIG1        0.1394
     13 O          -0.8424   -1.0090    1.2256 O.2     1  LIG1       -0.4508
     14 O           1.1251   -1.6640   -2.2919 O.2     1  LIG1       -0.2864
     15 C           0.9979    0.9620   -1.3244 C.ar    1  LIG1       -0.0017
     16 C           0.8916    2.2340   -0.7731 C.ar    1  LIG1        0.1659
     17 O           1.4360    3.3790   -1.3026 O.3     1  LIG1       -0.4913
     18 C           2.1740    3.2285   -2.5132 C.3     1  LIG1        0.0790
     19 C           0.1886    2.4091    0.4343 C.ar    1  LIG1        0.2048
     20 O           0.1358    3.6796    0.9524 O.3     1  LIG1       -0.5008
     21 H          -2.5072    2.3443    3.3736 H       1  LIG1        0.0660
     22 H          -2.3712    2.9121    1.7070 H       1  LIG1        0.0660
     23 H          -1.1323    3.3549    2.9532 H       1  LIG1        0.0660
     24 H           0.5866   -4.1183   -1.8427 H       1  LIG1        0.0626
     25 H          -0.4148   -5.9541   -0.5040 H       1  LIG1        0.0618
     26 H          -1.6019   -5.4372    1.6164 H       1  LIG1        0.0619
     27 H          -1.7873   -3.0892    2.3997 H       1  LIG1        0.0654
     28 H           1.5276    0.7786   -2.2537 H       1  LIG1        0.0664
     29 H           2.5778    4.2083   -2.7843 H       1  LIG1        0.0660
     30 H           1.5220    2.8970   -3.3281 H       1  LIG1        0.0660
     31 H           3.0210    2.5466   -2.3804 H       1  LIG1        0.0660
     32 H           0.6482    4.2362    0.3331 H       1  LIG1        0.2924
@<TRIPOS>BOND
     1     1     2    1
     2     2     3    1
     3     3     4   ar
     4     4     5   ar
     5     5     6   ar
     6     6     7   ar
     7     7     8   ar
     8     8     9   ar
     9     9    10   ar
    10    10    11   ar
    11    11    12   ar
    12     7    12   ar
    13    12    13   ar
    14     4    13   ar
    15     6    14    2
    16     5    15   ar
    17    15    16   ar
    18    16    17    1
    19    17    18    1
    20    16    19   ar
    21     3    19   ar
    22    19    20    1
    23     1    21    1
    24     1    22    1
    25     1    23    1
    26     8    24    1
    27     9    25    1
    28    10    26    1
    29    11    27    1
    30    15    28    1
    31    18    29    1
    32    18    30    1
    33    18    31    1
    34    20    32    1
