REMARK  Name = NuBBE_144
REMARK  11 active torsions:
REMARK  status: ('A' for Active; 'I' for Inactive)
REMARK    1  A    between atoms: C_1  and  C_2
REMARK    2  A    between atoms: C_2  and  C_3
REMARK    3  A    between atoms: C_7  and  C_8
REMARK    4  A    between atoms: C_11  and  O_13
REMARK    5  A    between atoms: O_13  and  C_14
REMARK    6  A    between atoms: C_14  and  C_15
REMARK    7  A    between atoms: C_15  and  C_16
REMARK    8  A    between atoms: C_16  and  O_17
REMARK    9  A    between atoms: C_21  and  C_22
REMARK   10  A    between atoms: C_26  and  C_27
REMARK   11  A    between atoms: C_26  and  C_28
REMARK                            x       y       z     vdW  Elec       q    Type
REMARK                         _______ _______ _______ _____ _____    ______ ____
ROOT
ATOM      1  C   LIG A   1      -0.466  -3.728   0.015  0.00  0.00    +0.011 C 
ATOM      2  C   LIG A   1      -0.321  -2.727  -1.163  0.00  0.00    -0.028 C 
ATOM      3  C   LIG A   1      -1.531  -2.947  -2.095  0.00  0.00    +0.011 C 
ATOM      4  C   LIG A   1       0.975  -3.190  -1.887  0.00  0.00    +0.007 C 
ATOM      5  C   LIG A   1       1.487  -2.245  -2.959  0.00  0.00    +0.001 C 
ATOM      6  C   LIG A   1       1.652  -0.834  -2.409  0.00  0.00    +0.007 C 
ATOM      7  C   LIG A   1       0.360  -0.227  -1.787  0.00  0.00    -0.020 C 
ATOM      8  C   LIG A   1      -0.662  -0.038  -2.940  0.00  0.00    +0.012 C 
ATOM      9  C   LIG A   1      -0.153  -1.216  -0.672  0.00  0.00    +0.042 C 
ATOM     10  C   LIG A   1      -1.357  -0.594   0.101  0.00  0.00    +0.183 C 
ATOM     11  C   LIG A   1      -1.105   0.835   0.604  0.00  0.00    +0.080 C 
ATOM     12  C   LIG A   1      -0.491   1.854  -0.357  0.00  0.00    +0.074 C 
ATOM     13  C   LIG A   1      -1.594   2.451  -1.248  0.00  0.00    +0.042 C 
ATOM     14  C   LIG A   1       0.670   1.219  -1.181  0.00  0.00    +0.027 C 
ATOM     15  C   LIG A   1       1.976   1.295  -0.368  0.00  0.00    +0.010 C 
ATOM     16  C   LIG A   1       2.264   2.753  -0.062  0.00  0.00    +0.039 C 
ATOM     17  C   LIG A   1       1.174   3.372   0.810  0.00  0.00    +0.085 C 
ATOM     18  C   LIG A   1       1.232   4.901   0.626  0.00  0.00    +0.046 C 
ATOM     19  O   LIG A   1      -0.150   3.024   0.420  0.00  0.00    -0.363 OA
ENDROOT
BRANCH  17  20
ATOM     20  C   LIG A   1       1.426   3.062   2.281  0.00  0.00    -0.001 C 
ATOM     21  C   LIG A   1       0.615   2.445   3.152  0.00  0.00    +0.007 C 
ENDBRANCH  17  20
BRANCH  10  22
ATOM     22  O   LIG A   1      -1.782  -1.407   1.235  0.00  0.00    -0.461 OA
BRANCH  22  23
ATOM     23  C   LIG A   1      -0.955  -1.569   2.299  0.00  0.00    +0.318 C 
ATOM     24  O   LIG A   1       0.211  -1.171   2.369  0.00  0.00    -0.250 OA
BRANCH  23  25
ATOM     25  C   LIG A   1      -1.593  -2.339   3.393  0.00  0.00    +0.240 C 
BRANCH  25  26
ATOM     26  C   LIG A   1      -1.560  -1.588   4.684  0.00  0.00    +0.316 C 
ATOM     27  O   LIG A   1      -1.071  -1.971   5.725  0.00  0.00    -0.250 OA
BRANCH  26  28
ATOM     28  O   LIG A   1      -2.207  -0.404   4.625  0.00  0.00    -0.480 OA
ATOM     29  H   LIG A   1      -2.098  -0.027   5.524  0.00  0.00    +0.295 HD
ENDBRANCH  26  28
ENDBRANCH  25  26
ENDBRANCH  23  25
ENDBRANCH  22  23
ENDBRANCH  10  22
TORSDOF 6
