REMARK  Name = NuBBE_1409
REMARK  9 active torsions:
REMARK  status: ('A' for Active; 'I' for Inactive)
REMARK    1  A    between atoms: C_1  and  C_2
REMARK    2  A    between atoms: C_2  and  C_3
REMARK    3  A    between atoms: C_4  and  C_5
REMARK    4  A    between atoms: C_5  and  C_6
REMARK    5  A    between atoms: C_6  and  C_7
REMARK    6  A    between atoms: C_7  and  C_8
REMARK    7  A    between atoms: C_7  and  C_9
REMARK    8  A    between atoms: C_9  and  C_10
REMARK    9  A    between atoms: C_10  and  O_11
REMARK                            x       y       z     vdW  Elec       q    Type
REMARK                         _______ _______ _______ _____ _____    ______ ____
ROOT
ATOM      1  C   LIG A   1       0.011  -0.517   0.018  0.00  0.00    +0.007 C 
ENDROOT
BRANCH   1   2
ATOM      2  C   LIG A   1       1.544  -0.664   0.179  0.00  0.00    -0.012 C 
ATOM      3  C   LIG A   1       1.963  -0.646   1.652  0.00  0.00    +0.007 C 
BRANCH   2   4
ATOM      4  C   LIG A   1       2.009  -1.958  -0.524  0.00  0.00    +0.031 C 
BRANCH   4   5
ATOM      5  C   LIG A   1       3.509  -2.229  -0.435  0.00  0.00    +0.156 C 
BRANCH   5   6
ATOM      6  O   LIG A   1       3.825  -3.427  -1.137  0.00  0.00    -0.395 OA
ATOM      7  H   LIG A   1       3.354  -4.155  -0.696  0.00  0.00    +0.209 HD
ENDBRANCH   5   6
ENDBRANCH   4   5
ENDBRANCH   2   4
ENDBRANCH   1   2
BRANCH   1   8
ATOM      8  C   LIG A   1      -0.558   0.784   0.600  0.00  0.00    +0.027 C 
BRANCH   8  12
ATOM      9  C   LIG A   1      -4.260   1.722  -0.324  0.00  0.00    +0.038 C 
ATOM     10  C   LIG A   1      -2.755   1.805  -0.250  0.00  0.00    -0.080 C 
ATOM     11  C   LIG A   1      -2.175   2.998  -0.959  0.00  0.00    +0.038 C 
ATOM     12  C   LIG A   1      -2.049   0.867   0.406  0.00  0.00    -0.028 C 
ENDBRANCH   8  12
ENDBRANCH   1   8
TORSDOF 6
