@<TRIPOS>MOLECULE
NuBBE_103
 72 76 0 0 0
SMALL
GASTEIGER

@<TRIPOS>ATOM
      1 C          -3.1536    0.9522    2.8758 C.2     1  LIG1       -0.1022
      2 C          -2.2581    0.6700    1.9156 C.2     1  LIG1       -0.0816
      3 C          -0.8696    1.2802    1.8596 C.3     1  LIG1        0.0470
      4 C          -0.7592    2.5541    0.9578 C.3     1  LIG1        0.2102
      5 H          -1.5136    3.2533    1.3390 H       1  LIG1        0.1062
      6 O           0.5026    3.2123    1.1269 O.2     1  LIG1       -0.4699
      7 C           1.5828    2.4402    1.4256 C.2     1  LIG1        0.0981
      8 C           1.5767    1.1256    1.7021 C.2     1  LIG1        0.0749
      9 C           0.3201    0.2850    1.6611 C.3     1  LIG1        0.0112
     10 C           0.2096   -0.6671    0.4382 C.3     1  LIG1       -0.0005
     11 C           1.2799   -1.7410    0.2775 C.ar    1  LIG1        0.0666
     12 N           2.5749   -1.3599    0.0724 N.ar    1  LIG1       -0.2429
     13 CA          3.5435   -2.3023   -0.1256 C.ar    1  LIG1        0.1484
     14 C           4.9637   -1.8596   -0.2422 C.2     1  LIG1        0.3553
     15 O           5.2164   -0.7318    0.4540 O.3     1  LIG1       -0.4761
     16 OXT         5.8549   -2.4556   -0.8012 O.2     1  LIG1       -0.2434
     17 C           3.3152   -3.6674   -0.2335 C.ar    1  LIG1       -0.0195
     18 C           1.9877   -4.0816   -0.0927 C.ar    1  LIG1        0.0115
     19 C           1.0126   -3.1246    0.1971 C.ar    1  LIG1        0.0691
     20 N          -0.1654   -3.8238    0.3545 N.ar    1  LIG1       -0.3527
     21 C          -0.0236   -5.1338   -0.0373 C.ar    1  LIG1        0.0477
     22 C          -0.9879   -6.1317   -0.2218 C.ar    1  LIG1       -0.0343
     23 C          -0.5434   -7.3938   -0.6284 C.ar    1  LIG1       -0.0182
     24 C           0.8144   -7.6389   -0.8031 C.ar    1  LIG1        0.1176
     25 C           1.7678   -6.6369   -0.6188 C.ar    1  LIG1       -0.0104
     26 C           1.3353   -5.3460   -0.2510 C.ar    1  LIG1        0.0110
     27 O           1.2647   -8.8719   -1.1799 O.3     1  LIG1       -0.5067
     28 C           2.7615    0.5422    2.3781 C.2     1  LIG1        0.3381
     29 O           3.8418    1.3498    2.2697 O.3     1  LIG1       -0.4646
     30 C           5.0004    0.9219    2.9791 C.3     1  LIG1        0.0820
     31 O           2.7017   -0.4765    3.0505 O.2     1  LIG1       -0.2452
     32 O          -1.0433    2.3530   -0.4370 O.3     1  LIG1       -0.3093
     33 C          -0.9187    3.6037   -1.1536 C.3     1  LIG1        0.1918
     34 H           0.0809    4.0111   -0.9608 H       1  LIG1        0.0939
     35 O          -1.8317    4.6094   -0.6937 O.3     1  LIG1       -0.3404
     36 C          -3.1937    4.4887   -1.1213 C.3     1  LIG1        0.1130
     37 H          -3.6443    5.4583   -0.8692 H       1  LIG1        0.0647
     38 C          -3.3235    4.3290   -2.6468 C.3     1  LIG1        0.1119
     39 H          -4.3623    4.1344   -2.9335 H       1  LIG1        0.0647
     40 C          -2.4111    3.2185   -3.1860 C.3     1  LIG1        0.1141
     41 H          -2.4127    3.2816   -4.2817 H       1  LIG1        0.0648
     42 O          -2.9147    1.9305   -2.8344 O.3     1  LIG1       -0.3864
     43 O          -2.9352    5.5716   -3.2738 O.3     1  LIG1       -0.3865
     44 C          -3.9673    3.4362   -0.3219 C.3     1  LIG1        0.0730
     45 O          -5.3398    3.4364   -0.7017 O.3     1  LIG1       -0.3924
     46 C          -0.9745    3.4200   -2.6878 C.3     1  LIG1        0.1342
     47 H          -0.3604    2.5568   -2.9659 H       1  LIG1        0.0671
     48 O          -0.4011    4.5683   -3.3443 O.3     1  LIG1       -0.3841
     49 H          -4.1440    0.5052    2.8697 H       1  LIG1        0.0532
     50 H          -2.9403    1.6433    3.6889 H       1  LIG1        0.0532
     51 H          -2.5481   -0.0224    1.1313 H       1  LIG1        0.0571
     52 H          -0.6948    1.6702    2.8790 H       1  LIG1        0.0410
     53 H           2.4496    3.0872    1.5077 H       1  LIG1        0.1029
     54 H           0.3121   -0.3670    2.5461 H       1  LIG1        0.0363
     55 H           0.1385   -0.1082   -0.5018 H       1  LIG1        0.0335
     56 H          -0.7392   -1.2057    0.5377 H       1  LIG1        0.0335
     57 H           6.1832   -0.6182    0.3689 H       1  LIG1        0.2955
     58 H           4.1187   -4.3685   -0.4286 H       1  LIG1        0.0648
     59 H          -1.0401   -3.4184    0.6504 H       1  LIG1        0.1660
     60 H          -2.0456   -5.9314   -0.0859 H       1  LIG1        0.0639
     61 H          -1.2784   -8.1730   -0.8086 H       1  LIG1        0.0655
     62 H           2.8188   -6.8463   -0.7939 H       1  LIG1        0.0661
     63 H           0.5062   -9.4756   -1.2355 H       1  LIG1        0.2921
     64 H           4.9566   -0.1246    3.2936 H       1  LIG1        0.0661
     65 H           5.1316    1.5639    3.8531 H       1  LIG1        0.0661
     66 H           5.8624    1.0474    2.3200 H       1  LIG1        0.0661
     67 H          -2.2972    1.2728   -3.2019 H       1  LIG1        0.2100
     68 H          -3.6437    6.2133   -3.0763 H       1  LIG1        0.2100
     69 H          -3.5621    2.4313   -0.4520 H       1  LIG1        0.0584
     70 H          -3.9122    3.6729    0.7462 H       1  LIG1        0.0584
     71 H          -5.7654    2.7117   -0.2118 H       1  LIG1        0.2095
     72 H          -1.0672    5.2896   -3.2821 H       1  LIG1        0.2101
@<TRIPOS>BOND
     1     1     2    2
     2     2     3    1
     3     3     4    1
     4     4     6    1
     5     6     7    1
     6     7     8    2
     7     8     9    1
     8     3     9    1
     9     9    10    1
    10    10    11    1
    11    11    12   ar
    12    12    13   ar
    13    13    14    1
    14    14    15    1
    15    14    16    2
    16    13    17   ar
    17    17    18   ar
    18    18    19   ar
    19    11    19   ar
    20    19    20   ar
    21    20    21   ar
    22    21    22   ar
    23    22    23   ar
    24    23    24   ar
    25    24    25   ar
    26    25    26   ar
    27    21    26   ar
    28    18    26   ar
    29    24    27    1
    30     8    28    1
    31    28    29    1
    32    29    30    1
    33    28    31    2
    34    32    33    1
    35    33    34    1
    36    33    35    1
    37    35    36    1
    38    36    38    1
    39    38    39    1
    40    38    40    1
    41    38    43    1
    42    44    45    1
    43    33    46    1
    44    40    46    1
    45     4    32    1
    46     4     5    1
    47    36    44    1
    48    36    37    1
    49    40    42    1
    50    40    41    1
    51    46    48    1
    52    46    47    1
    53     1    49    1
    54     1    50    1
    55     2    51    1
    56     3    52    1
    57     7    53    1
    58     9    54    1
    59    10    55    1
    60    10    56    1
    61    15    57    1
    62    17    58    1
    63    20    59    1
    64    22    60    1
    65    23    61    1
    66    25    62    1
    67    27    63    1
    68    30    64    1
    69    30    65    1
    70    30    66    1
    71    42    67    1
    72    43    68    1
    73    44    69    1
    74    44    70    1
    75    45    71    1
    76    48    72    1
