@<TRIPOS>MOLECULE
NuBBE_348
 29 30 0 0 0
SMALL
GASTEIGER

@<TRIPOS>ATOM
      1 O          -3.2624    0.5318    0.1942 O.2     1  LIG1       -0.2888
      2 C          -2.0451    0.5154   -0.0005 C.2     1  LIG1        0.2007
      3 C          -1.2577    1.7764   -0.3921 C.3     1  LIG1        0.1552
      4 C          -2.0655    3.0296   -0.0387 C.3     1  LIG1       -0.0259
      5 O          -1.0411    1.8291   -1.8097 O.3     1  LIG1       -0.3780
      6 C           0.0830    1.7550    0.3611 C.3     1  LIG1        0.1191
      7 H           0.7127    2.5853    0.0146 H       1  LIG1        0.0678
      8 O          -0.0974    1.8974    1.7695 O.3     1  LIG1       -0.3837
      9 C           0.8028    0.4568    0.1342 C.2     1  LIG1        0.0269
     10 C           2.1367    0.3997   -0.0288 C.2     1  LIG1        0.0983
     11 O           2.8527   -0.7661   -0.1981 O.2     1  LIG1       -0.4677
     12 C           2.1754   -1.9739   -0.0662 C.2     1  LIG1        0.1023
     13 C           3.0606   -3.1784   -0.0974 C.3     1  LIG1       -0.0064
     14 C           0.8385   -2.0373    0.0816 C.2     1  LIG1       -0.0155
     15 C           0.0400   -0.8054    0.0750 C.2     1  LIG1        0.0004
     16 C          -1.3151   -0.7940    0.0471 C.2     1  LIG1        0.0672
     17 C          -2.1766   -2.0158    0.0409 C.2     1  LIG1        0.1542
     18 O          -1.8220   -3.1249   -0.3401 O.2     1  LIG1       -0.2956
     19 H          -2.3658    3.0473    1.0142 H       1  LIG1        0.0263
     20 H          -2.9756    3.0903   -0.6474 H       1  LIG1        0.0263
     21 H          -1.4888    3.9366   -0.2533 H       1  LIG1        0.0263
     22 H          -0.4969    1.0684   -2.0820 H       1  LIG1        0.2109
     23 H          -0.1399    2.8497    1.9682 H       1  LIG1        0.2104
     24 H           2.8027    1.2521   -0.0153 H       1  LIG1        0.1033
     25 H           3.7845   -3.1364    0.7227 H       1  LIG1        0.0308
     26 H           3.6111   -3.2180   -1.0428 H       1  LIG1        0.0308
     27 H           2.4931   -4.1095    0.0009 H       1  LIG1        0.0308
     28 H           0.3669   -3.0062    0.1986 H       1  LIG1        0.0657
     29 H          -3.2107   -1.8550    0.3895 H       1  LIG1        0.1083
@<TRIPOS>BOND
     1     1     2    2
     2     2     3    1
     3     3     6    1
     4     6     7    1
     5     6     8    1
     6     6     9    1
     7     9    10    2
     8    10    11    1
     9    11    12    1
    10    12    13    1
    11    12    14    2
    12    14    15    1
    13     9    15    1
    14    15    16    2
    15     2    16    1
    16    16    17    1
    17    17    18    2
    18     3     5    1
    19     3     4    1
    20     4    19    1
    21     4    20    1
    22     4    21    1
    23     5    22    1
    24     8    23    1
    25    10    24    1
    26    13    25    1
    27    13    26    1
    28    13    27    1
    29    14    28    1
    30    17    29    1
