@<TRIPOS>MOLECULE
NuBBE_1713
 28 30 0 0 0
SMALL
GASTEIGER

@<TRIPOS>ATOM
      1 O          -2.1187    0.6861   -0.1028 O.2     1  LIG1       -0.2863
      2 C          -0.8945    0.6726   -0.0268 C.ar    1  LIG1        0.2038
      3 C          -0.1364    1.9268    0.0610 C.ar    1  LIG1        0.1058
      4 C          -0.7743    3.1714    0.0589 C.ar    1  LIG1        0.1312
      5 O          -2.1330    3.3115   -0.0227 O.3     1  LIG1       -0.5059
      6 C          -0.0247    4.3415    0.1421 C.ar    1  LIG1       -0.0192
      7 C           1.3666    4.2702    0.2279 C.ar    1  LIG1       -0.0548
      8 C           2.0051    3.0277    0.2306 C.ar    1  LIG1       -0.0184
      9 C           1.2530    1.8533    0.1470 C.ar    1  LIG1        0.1428
     10 O           1.9602    0.6752    0.1561 O.2     1  LIG1       -0.4545
     11 C           1.2607   -0.5026    0.0717 C.ar    1  LIG1        0.1395
     12 C           2.0102   -1.6766    0.0805 C.ar    1  LIG1       -0.0152
     13 C           1.3649   -2.9134   -0.0038 C.ar    1  LIG1       -0.0164
     14 C          -0.0290   -2.9906   -0.0979 C.ar    1  LIG1        0.1210
     15 O          -0.5254   -4.2620   -0.1753 O.3     1  LIG1       -0.4951
     16 C          -1.9374   -4.3968   -0.2908 C.3     1  LIG1        0.0788
     17 C          -0.7794   -1.8156   -0.1051 C.ar    1  LIG1       -0.0056
     18 C          -0.1266   -0.5791   -0.0202 C.ar    1  LIG1        0.0681
     19 H          -2.5256    2.4104   -0.0746 H       1  LIG1        0.2922
     20 H          -0.5250    5.3067    0.1398 H       1  LIG1        0.0654
     21 H           1.9525    5.1841    0.2926 H       1  LIG1        0.0620
     22 H           3.0892    2.9776    0.2977 H       1  LIG1        0.0654
     23 H           3.0939   -1.6359    0.1522 H       1  LIG1        0.0656
     24 H           1.9536   -3.8285    0.0029 H       1  LIG1        0.0655
     25 H          -2.1672   -5.4650   -0.3500 H       1  LIG1        0.0660
     26 H          -2.3050   -3.9254   -1.2083 H       1  LIG1        0.0660
     27 H          -2.4452   -3.9949    0.5922 H       1  LIG1        0.0660
     28 H          -1.8625   -1.8286   -0.1750 H       1  LIG1        0.0662
@<TRIPOS>BOND
     1     1     2    2
     2     2     3   ar
     3     3     4   ar
     4     4     5    1
     5     4     6   ar
     6     6     7   ar
     7     7     8   ar
     8     8     9   ar
     9     3     9   ar
    10     9    10   ar
    11    10    11   ar
    12    11    12   ar
    13    12    13   ar
    14    13    14   ar
    15    14    15    1
    16    15    16    1
    17    14    17   ar
    18    17    18   ar
    19    11    18   ar
    20     2    18   ar
    21     5    19    1
    22     6    20    1
    23     7    21    1
    24     8    22    1
    25    12    23    1
    26    13    24    1
    27    16    25    1
    28    16    26    1
    29    16    27    1
    30    17    28    1
