@<TRIPOS>MOLECULE
NuBBE_2329
 64 65 0 0 0
SMALL
GASTEIGER

@<TRIPOS>ATOM
      1 O          -4.2119   -2.9074   -3.9992 O.3     1  LIG1       -0.5033
      2 C          -3.5833   -2.5705   -2.8296 C.ar    1  LIG1        0.1590
      3 C          -2.9232   -1.3346   -2.7883 C.ar    1  LIG1       -0.0133
      4 C          -2.2728   -0.9180   -1.6274 C.ar    1  LIG1       -0.0430
      5 C          -1.4906    0.3712   -1.5897 C.3     1  LIG1       -0.0205
      6 C          -0.0282    0.1342   -1.9794 C.3     1  LIG1        0.0147
      7 C           0.7653    1.4267   -1.9138 C.2     1  LIG1        0.1705
      8 C           2.2333    1.3962   -1.6231 C.ar    1  LIG1        0.1005
      9 C           2.8131    2.5071   -0.9668 C.ar    1  LIG1        0.1378
     10 O           2.0544    3.5957   -0.5984 O.3     1  LIG1       -0.5055
     11 C           4.1869    2.5529   -0.6427 C.ar    1  LIG1        0.0400
     12 C           4.7435    3.7345    0.1324 C.3     1  LIG1       -0.0023
     13 C           4.6971    3.5162    1.6250 C.2     1  LIG1       -0.0807
     14 C           4.5451    4.4479    2.5885 C.2     1  LIG1       -0.0793
     15 C           4.4221    5.9285    2.3549 C.3     1  LIG1       -0.0440
     16 C           4.4909    4.0521    4.0421 C.3     1  LIG1       -0.0440
     17 C           4.9718    1.4513   -1.0092 C.ar    1  LIG1        0.1273
     18 O           6.3142    1.3552   -0.7676 O.3     1  LIG1       -0.5062
     19 C           4.4175    0.3494   -1.6627 C.ar    1  LIG1        0.0225
     20 C           3.0571    0.3236   -1.9729 C.ar    1  LIG1        0.1343
     21 O           2.5629   -0.7580   -2.6474 O.3     1  LIG1       -0.5058
     22 O           0.2294    2.5231   -2.0440 O.2     1  LIG1       -0.2918
     23 C          -2.3075   -1.7483   -0.5064 C.ar    1  LIG1       -0.0514
     24 C          -2.9540   -2.9987   -0.5296 C.ar    1  LIG1        0.0019
     25 C          -2.9403   -3.8362    0.7355 C.3     1  LIG1       -0.0057
     26 C          -4.1039   -3.5554    1.6513 C.2     1  LIG1       -0.0809
     27 C          -4.1622   -2.6939    2.6879 C.2     1  LIG1       -0.0793
     28 C          -3.0548   -1.7713    3.1135 C.3     1  LIG1       -0.0440
     29 C          -5.4144   -2.5687    3.5157 C.3     1  LIG1       -0.0440
     30 C          -3.5916   -3.4267   -1.7141 C.ar    1  LIG1        0.1647
     31 O          -4.1458   -4.6789   -1.6386 O.3     1  LIG1       -0.4912
     32 C          -4.7674   -5.2257   -2.7918 C.3     1  LIG1        0.0790
     33 H          -4.1003   -2.1852   -4.6381 H       1  LIG1        0.2923
     34 H          -2.9009   -0.6906   -3.6632 H       1  LIG1        0.0658
     35 H          -1.5495    0.8082   -0.5835 H       1  LIG1        0.0317
     36 H          -1.9601    1.1046   -2.2572 H       1  LIG1        0.0317
     37 H           0.0250   -0.2578   -3.0009 H       1  LIG1        0.0348
     38 H           0.4101   -0.5974   -1.2922 H       1  LIG1        0.0348
     39 H           1.1668    3.5130   -1.0146 H       1  LIG1        0.2922
     40 H           4.2139    4.6454   -0.1653 H       1  LIG1        0.0358
     41 H           5.7837    3.9129   -0.1615 H       1  LIG1        0.0358
     42 H           4.7792    2.4748    1.9372 H       1  LIG1        0.0575
     43 H           4.4818    6.2099    1.3015 H       1  LIG1        0.0274
     44 H           5.2265    6.4572    2.8782 H       1  LIG1        0.0274
     45 H           3.4649    6.2922    2.7435 H       1  LIG1        0.0274
     46 H           4.5759    2.9697    4.1837 H       1  LIG1        0.0274
     47 H           3.5424    4.3716    4.4864 H       1  LIG1        0.0274
     48 H           5.3096    4.5251    4.5945 H       1  LIG1        0.0274
     49 H           6.6639    2.2022   -0.4511 H       1  LIG1        0.2921
     50 H           5.0711   -0.4783   -1.9257 H       1  LIG1        0.0691
     51 H           3.2863   -1.3844   -2.8270 H       1  LIG1        0.2922
     52 H          -1.8045   -1.4196    0.3981 H       1  LIG1        0.0624
     53 H          -1.9878   -3.6911    1.2602 H       1  LIG1        0.0357
     54 H          -2.9408   -4.9052    0.4868 H       1  LIG1        0.0357
     55 H          -4.9781   -4.1714    1.4389 H       1  LIG1        0.0575
     56 H          -2.2011   -1.7781    2.4371 H       1  LIG1        0.0274
     57 H          -2.6831   -2.0522    4.1032 H       1  LIG1        0.0274
     58 H          -3.4213   -0.7396    3.1590 H       1  LIG1        0.0274
     59 H          -6.2120   -3.2338    3.1694 H       1  LIG1        0.0274
     60 H          -5.7957   -1.5429    3.4709 H       1  LIG1        0.0274
     61 H          -5.2028   -2.8151    4.5614 H       1  LIG1        0.0274
     62 H          -5.0154   -6.2688   -2.5706 H       1  LIG1        0.0660
     63 H          -4.0951   -5.2442   -3.6554 H       1  LIG1        0.0660
     64 H          -5.7051   -4.7044   -3.0075 H       1  LIG1        0.0660
@<TRIPOS>BOND
     1     1     2    1
     2     2     3   ar
     3     3     4   ar
     4     4     5    1
     5     5     6    1
     6     6     7    1
     7     7     8    1
     8     8     9   ar
     9     9    10    1
    10     9    11   ar
    11    11    12    1
    12    12    13    1
    13    13    14    2
    14    14    15    1
    15    14    16    1
    16    11    17   ar
    17    17    18    1
    18    17    19   ar
    19    19    20   ar
    20     8    20   ar
    21    20    21    1
    22     7    22    2
    23     4    23   ar
    24    23    24   ar
    25    24    25    1
    26    25    26    1
    27    26    27    2
    28    27    28    1
    29    27    29    1
    30    24    30   ar
    31     2    30   ar
    32    30    31    1
    33    31    32    1
    34     1    33    1
    35     3    34    1
    36     5    35    1
    37     5    36    1
    38     6    37    1
    39     6    38    1
    40    10    39    1
    41    12    40    1
    42    12    41    1
    43    13    42    1
    44    15    43    1
    45    15    44    1
    46    15    45    1
    47    16    46    1
    48    16    47    1
    49    16    48    1
    50    18    49    1
    51    19    50    1
    52    21    51    1
    53    23    52    1
    54    25    53    1
    55    25    54    1
    56    26    55    1
    57    28    56    1
    58    28    57    1
    59    28    58    1
    60    29    59    1
    61    29    60    1
    62    29    61    1
    63    32    62    1
    64    32    63    1
    65    32    64    1
