@<TRIPOS>MOLECULE
NuBBE_938
 33 34 0 0 0
SMALL
GASTEIGER

@<TRIPOS>ATOM
      1 C          -1.3977   -0.1840    0.2681 C.2     1  LIG1        0.0271
      2 C          -2.1133   -0.0824   -0.8809 C.2     1  LIG1       -0.0647
      3 C          -3.6200   -0.0209   -0.9635 C.3     1  LIG1       -0.0431
      4 C          -1.4771    0.0090   -2.2517 C.3     1  LIG1       -0.0431
      5 C          -2.0572   -0.3371    1.5973 C.2     1  LIG1        0.1509
      6 O          -1.4775   -0.1450    2.6670 O.2     1  LIG1       -0.2957
      7 C           0.0833   -0.1729    0.2654 C.ar    1  LIG1        0.0697
      8 C           0.7850    1.0344    0.4104 C.ar    1  LIG1        0.1503
      9 C           2.1783    1.0800    0.4040 C.ar    1  LIG1        0.0184
     10 C           2.8930   -0.1082    0.2495 C.ar    1  LIG1       -0.0476
     11 C           2.2155   -1.3259    0.1178 C.ar    1  LIG1       -0.0186
     12 C           0.8157   -1.3692    0.1386 C.ar    1  LIG1        0.1314
     13 O           0.0946   -2.5260   -0.0289 O.3     1  LIG1       -0.4944
     14 C           0.6968   -3.7127    0.4771 C.3     1  LIG1        0.0788
     15 C           2.8531    2.3594    0.5457 C.ar    1  LIG1       -0.0443
     16 C           2.1298    3.4720    0.7106 C.ar    1  LIG1        0.0236
     17 C           0.6570    3.4595    0.7386 C.ar    1  LIG1        0.3372
     18 O           0.0260    4.4991    0.8880 O.2     1  LIG1       -0.2452
     19 O           0.0414    2.2315    0.5635 O.2     1  LIG1       -0.4214
     20 H          -4.1096    0.1866   -0.0104 H       1  LIG1        0.0275
     21 H          -4.0126   -0.9641   -1.3571 H       1  LIG1        0.0275
     22 H          -3.9255    0.7846   -1.6414 H       1  LIG1        0.0275
     23 H          -0.3972   -0.1559   -2.2558 H       1  LIG1        0.0275
     24 H          -1.6616    0.9985   -2.6830 H       1  LIG1        0.0275
     25 H          -1.9141   -0.7446   -2.9163 H       1  LIG1        0.0275
     26 H          -3.1120   -0.6514    1.5899 H       1  LIG1        0.1082
     27 H           3.9802   -0.1032    0.2262 H       1  LIG1        0.0626
     28 H           2.8077   -2.2246   -0.0226 H       1  LIG1        0.0654
     29 H          -0.0456   -4.5143    0.4143 H       1  LIG1        0.0660
     30 H           0.9793   -3.5962    1.5289 H       1  LIG1        0.0660
     31 H           1.5544   -4.0163   -0.1309 H       1  LIG1        0.0660
     32 H           3.9358    2.3959    0.5214 H       1  LIG1        0.0627
     33 H           2.5939    4.4445    0.8202 H       1  LIG1        0.0689
@<TRIPOS>BOND
     1     1     2    2
     2     2     3    1
     3     2     4    1
     4     1     5    1
     5     5     6    2
     6     1     7    1
     7     7     8   ar
     8     8     9   ar
     9     9    10   ar
    10    10    11   ar
    11    11    12   ar
    12     7    12   ar
    13    12    13    1
    14    13    14    1
    15     9    15   ar
    16    15    16   ar
    17    16    17   ar
    18    17    18    2
    19    17    19   ar
    20     8    19   ar
    21     3    20    1
    22     3    21    1
    23     3    22    1
    24     4    23    1
    25     4    24    1
    26     4    25    1
    27     5    26    1
    28    10    27    1
    29    11    28    1
    30    14    29    1
    31    14    30    1
    32    14    31    1
    33    15    32    1
    34    16    33    1
