@<TRIPOS>MOLECULE
NuBBE_1088
 69 69 0 0 0
SMALL
GASTEIGER

@<TRIPOS>ATOM
      1 O           1.5352    2.9439    2.8110 O.2     1  LIG1       -0.2456
      2 C           1.3666    2.3644    1.6622 C.2     1  LIG1        0.3320
      3 C           1.4842    3.0951    0.3756 C.2     1  LIG1        0.0232
      4 C           1.7761    4.3987    0.2742 C.2     1  LIG1       -0.0444
      5 C           1.8423    5.2065   -0.9633 C.ar    1  LIG1        0.0169
      6 C           2.2507    6.5464   -0.8431 C.ar    1  LIG1       -0.0477
      7 C           2.2830    7.3911   -1.9513 C.ar    1  LIG1       -0.0192
      8 C           1.9165    6.9306   -3.2154 C.ar    1  LIG1        0.1236
      9 C           1.5183    5.6020   -3.3635 C.ar    1  LIG1        0.0221
     10 C           1.4854    4.7559   -2.2471 C.ar    1  LIG1        0.1274
     11 O           1.0811    3.4598   -2.4238 O.3     1  LIG1       -0.5061
     12 O           1.9151    7.7171   -4.3399 O.3     1  LIG1       -0.4950
     13 C           2.3646    9.0549   -4.1117 C.3     1  LIG1        0.0788
     14 O           1.0324    1.1004    1.4432 O.3     1  LIG1       -0.4616
     15 C           0.5967    0.0974    2.4098 C.3     1  LIG1        0.0928
     16 C          -0.8836    0.2310    2.8329 C.3     1  LIG1       -0.0185
     17 C          -2.0702    0.3915    1.8499 C.3     1  LIG1       -0.0500
     18 C          -2.5035   -0.8787    1.1111 C.3     1  LIG1       -0.0530
     19 C          -3.6804   -0.6649    0.1307 C.3     1  LIG1       -0.0531
     20 C          -4.1160   -1.9321   -0.6304 C.3     1  LIG1       -0.0531
     21 C          -3.2026   -2.3763   -1.7850 C.3     1  LIG1       -0.0531
     22 C          -1.7677   -2.7470   -1.4565 C.3     1  LIG1       -0.0531
     23 C          -1.6838   -3.8936   -0.5123 C.3     1  LIG1       -0.0531
     24 C          -0.2377   -4.3167   -0.3035 C.3     1  LIG1       -0.0531
     25 C           0.7427   -3.4390    0.5499 C.3     1  LIG1       -0.0531
     26 C           2.0815   -4.0760    1.1202 C.3     1  LIG1       -0.0531
     27 C           2.0199   -5.0774    2.3194 C.3     1  LIG1       -0.0533
     28 C           1.2993   -6.3724    1.9634 C.3     1  LIG1       -0.0559
     29 C          -0.1570   -6.0473    1.9454 C.3     1  LIG1       -0.0653
     30 H           1.2253    2.4695   -0.4674 H       1  LIG1        0.0689
     31 H           1.9955    4.9539    1.1846 H       1  LIG1        0.0627
     32 H           2.5419    6.9800    0.1119 H       1  LIG1        0.0626
     33 H           2.5911    8.4176   -1.7823 H       1  LIG1        0.0654
     34 H           1.2252    5.2249   -4.3393 H       1  LIG1        0.0691
     35 H           0.7948    3.3213   -3.3378 H       1  LIG1        0.2922
     36 H           2.3495    9.6101   -5.0509 H       1  LIG1        0.0660
     37 H           3.3975    9.0549   -3.7408 H       1  LIG1        0.0660
     38 H           1.6980    9.5724   -3.4101 H       1  LIG1        0.0660
     39 H           1.2148    0.0856    3.3242 H       1  LIG1        0.0697
     40 H           0.7974   -0.8751    1.9458 H       1  LIG1        0.0697
     41 H          -0.9109    1.1330    3.4519 H       1  LIG1        0.0298
     42 H          -1.1181   -0.6131    3.4933 H       1  LIG1        0.0298
     43 H          -1.9046    1.2230    1.1568 H       1  LIG1        0.0266
     44 H          -2.9328    0.6779    2.4676 H       1  LIG1        0.0266
     45 H          -2.7985   -1.6473    1.8354 H       1  LIG1        0.0265
     46 H          -1.6263   -1.2551    0.6059 H       1  LIG1        0.0265
     47 H          -3.4637    0.1297   -0.5932 H       1  LIG1        0.0265
     48 H          -4.5488   -0.3171    0.7093 H       1  LIG1        0.0265
     49 H          -5.0992   -1.7325   -1.0837 H       1  LIG1        0.0265
     50 H          -4.2881   -2.7514    0.0782 H       1  LIG1        0.0265
     51 H          -3.1529   -1.5830   -2.5347 H       1  LIG1        0.0265
     52 H          -3.6769   -3.2387   -2.2754 H       1  LIG1        0.0265
     53 H          -1.1995   -1.9015   -1.0791 H       1  LIG1        0.0265
     54 H          -1.2487   -3.0537   -2.3680 H       1  LIG1        0.0265
     55 H          -2.2193   -4.7583   -0.9455 H       1  LIG1        0.0265
     56 H          -2.1827   -3.7267    0.4567 H       1  LIG1        0.0265
     57 H           0.2607   -4.8358   -1.1242 H       1  LIG1        0.0265
     58 H          -0.5965   -5.1656    0.2016 H       1  LIG1        0.0265
     59 H           0.2139   -2.9974    1.4060 H       1  LIG1        0.0265
     60 H           1.0391   -2.5958   -0.0845 H       1  LIG1        0.0265
     61 H           2.6947   -3.2403    1.4940 H       1  LIG1        0.0265
     62 H           2.6517   -4.5318    0.3028 H       1  LIG1        0.0265
     63 H           1.4968   -4.5914    3.1540 H       1  LIG1        0.0265
     64 H           3.0262   -5.3100    2.6937 H       1  LIG1        0.0265
     65 H           1.3805   -7.1897    2.6805 H       1  LIG1        0.0263
     66 H           1.6529   -6.7248    0.9800 H       1  LIG1        0.0263
     67 H          -0.7525   -6.0899    2.8443 H       1  LIG1        0.0230
     68 H          -0.6102   -6.6238    1.1302 H       1  LIG1        0.0230
     69 H          -0.2065   -4.9694    1.8561 H       1  LIG1        0.0230
@<TRIPOS>BOND
     1     1     2    2
     2     2     3    1
     3     3     4    2
     4     4     5    1
     5     5     6   ar
     6     6     7   ar
     7     7     8   ar
     8     8     9   ar
     9     9    10   ar
    10     5    10   ar
    11    10    11    1
    12     8    12    1
    13    12    13    1
    14     2    14    1
    15    14    15    1
    16    15    16    1
    17    16    17    1
    18    17    18    1
    19    18    19    1
    20    19    20    1
    21    20    21    1
    22    21    22    1
    23    22    23    1
    24    23    24    1
    25    24    25    1
    26    25    26    1
    27    26    27    1
    28    27    28    1
    29    28    29    1
    30     3    30    1
    31     4    31    1
    32     6    32    1
    33     7    33    1
    34     9    34    1
    35    11    35    1
    36    13    36    1
    37    13    37    1
    38    13    38    1
    39    15    39    1
    40    15    40    1
    41    16    41    1
    42    16    42    1
    43    17    43    1
    44    17    44    1
    45    18    45    1
    46    18    46    1
    47    19    47    1
    48    19    48    1
    49    20    49    1
    50    20    50    1
    51    21    51    1
    52    21    52    1
    53    22    53    1
    54    22    54    1
    55    23    55    1
    56    23    56    1
    57    24    57    1
    58    24    58    1
    59    25    59    1
    60    25    60    1
    61    26    61    1
    62    26    62    1
    63    27    63    1
    64    27    64    1
    65    28    65    1
    66    28    66    1
    67    29    67    1
    68    29    68    1
    69    29    69    1
