@<TRIPOS>MOLECULE
NuBBE_1063
 82 86 0 0 0
SMALL
GASTEIGER

@<TRIPOS>ATOM
      1 O           1.3886    0.2348   -4.0311 O.3     1  LIG1       -0.3912
      2 C           2.7144    0.6122   -3.5673 C.3     1  LIG1        0.0606
      3 H           3.1386    0.8208   -4.5491 H       1  LIG1        0.0599
      4 C           2.7623    1.9424   -2.8447 C.3     1  LIG1       -0.0258
      5 C           1.8080    1.9484   -1.6780 C.3     1  LIG1       -0.0447
      6 C           2.2358    0.7943   -0.6153 C.3     1  LIG1       -0.0249
      7 C           3.2468    1.5629    0.2656 C.3     1  LIG1       -0.0590
      8 C           2.4113   -0.5108   -1.5496 C.3     1  LIG1       -0.0278
      9 C           2.0852   -1.8802   -0.9033 C.3     1  LIG1       -0.0486
     10 C           0.5629   -2.0815   -0.6690 C.3     1  LIG1       -0.0465
     11 C           0.2167   -1.3201    0.6693 C.3     1  LIG1       -0.0223
     12 C          -1.6932   -1.2277    1.1849 C.3     1  LIG1       -0.0166
     13 C          -2.4933   -2.1279    0.1552 C.3     1  LIG1       -0.0584
     14 C          -2.3864    0.7415    1.5927 C.3     1  LIG1        0.0270
     15 C          -3.6146    0.5387    2.1902 C.3     1  LIG1       -0.0228
     16 C          -2.2600   -0.1753    3.1456 C.3     1  LIG1       -0.0283
     17 C          -0.6421    0.2073    2.0830 C.3     1  LIG1       -0.0471
     18 C          -1.2040    0.4282    0.0391 C.3     1  LIG1       -0.0497
     19 C          -2.7303    0.7136   -0.5713 C.3     1  LIG1       -0.0410
     20 H          -2.6813    1.7901   -0.8091 H       1  LIG1        0.0301
     21 C          -2.7803    0.1376   -2.0188 C.3     1  LIG1       -0.0622
     22 C          -3.9997    0.5870    0.5166 C.3     1  LIG1       -0.0373
     23 H          -4.5972   -0.2940    0.2737 H       1  LIG1        0.0304
     24 C          -4.8635    1.8451    0.2079 C.3     1  LIG1       -0.0619
     25 C          -1.6933    0.2545    4.5256 C.3     1  LIG1       -0.0593
     26 C          -2.8146   -1.5659    3.3156 C.3     1  LIG1       -0.0468
     27 C          -1.8471   -2.2291    2.4584 C.3     1  LIG1       -0.0460
     28 C           0.8726   -2.4116    1.6599 C.3     1  LIG1       -0.0588
     29 C           1.0388    0.4228    0.3687 C.3     1  LIG1       -0.0228
     30 C           0.3332    2.0411    0.9372 C.3     1  LIG1        0.0100
     31 C          -1.4054    2.2749    1.1697 C.2     1  LIG1        0.1375
     32 O          -1.9375    3.3786    1.1015 O.2     1  LIG1       -0.2971
     33 C           3.4576   -0.6185   -2.7331 C.3     1  LIG1       -0.0056
     34 C           4.5842   -0.8828   -1.5577 C.3     1  LIG1       -0.0572
     35 C           4.7416   -0.3819   -3.6255 C.3     1  LIG1       -0.0572
     36 H           0.6898    0.5556   -3.4374 H       1  LIG1        0.2098
     37 H           2.5108    2.7543   -3.5362 H       1  LIG1        0.0290
     38 H           3.7810    2.1281   -2.4901 H       1  LIG1        0.0290
     39 H           0.7755    1.8248   -2.0317 H       1  LIG1        0.0271
     40 H           1.8175    2.9710   -1.2818 H       1  LIG1        0.0271
     41 H           4.2701    1.5629   -0.0956 H       1  LIG1        0.0235
     42 H           3.1956    1.2801    1.3213 H       1  LIG1        0.0235
     43 H           2.9721    2.6380    0.3064 H       1  LIG1        0.0235
     44 H           1.4720   -0.4858   -2.0935 H       1  LIG1        0.0312
     45 H           2.6297   -1.9142    0.0373 H       1  LIG1        0.0268
     46 H           2.4544   -2.7014   -1.5221 H       1  LIG1        0.0268
     47 H           0.3412   -3.1532   -0.5949 H       1  LIG1        0.0271
     48 H          -0.0018   -1.7505   -1.5473 H       1  LIG1        0.0271
     49 H          -2.2320   -1.9810   -0.8922 H       1  LIG1        0.0235
     50 H          -3.5760   -2.0608    0.2796 H       1  LIG1        0.0235
     51 H          -2.2437   -3.1840    0.2899 H       1  LIG1        0.0235
     52 H          -2.1173    1.4326    2.4928 H       1  LIG1        0.0386
     53 H          -4.0022    1.4292    2.7054 H       1  LIG1        0.0316
     54 H           0.1319   -0.4447    2.4459 H       1  LIG1        0.0271
     55 H          -0.2797    1.0968    2.6130 H       1  LIG1        0.0271
     56 H          -0.7794    1.2605   -0.5334 H       1  LIG1        0.0268
     57 H          -0.9870   -0.4142   -0.5806 H       1  LIG1        0.0268
     58 H          -3.6488   -0.4803   -2.2252 H       1  LIG1        0.0233
     59 H          -1.8875   -0.4621   -2.2732 H       1  LIG1        0.0233
     60 H          -2.7122    0.9496   -2.7541 H       1  LIG1        0.0233
     61 H          -4.5866    2.3242   -0.7436 H       1  LIG1        0.0233
     62 H          -4.7493    2.6191    0.9729 H       1  LIG1        0.0233
     63 H          -5.9167    1.5842    0.1101 H       1  LIG1        0.0233
     64 H          -1.2472    1.2557    4.5264 H       1  LIG1        0.0235
     65 H          -0.8370   -0.4192    4.7416 H       1  LIG1        0.0235
     66 H          -2.3760    0.1570    5.3667 H       1  LIG1        0.0235
     67 H          -3.8337   -1.6718    2.9295 H       1  LIG1        0.0271
     68 H          -2.8318   -1.9337    4.3465 H       1  LIG1        0.0271
     69 H          -2.1732   -3.2506    2.2434 H       1  LIG1        0.0271
     70 H          -0.9554   -2.3288    3.0742 H       1  LIG1        0.0271
     71 H           0.2401   -3.3172    1.6031 H       1  LIG1        0.0235
     72 H           0.9649   -2.1323    2.7075 H       1  LIG1        0.0235
     73 H           1.8496   -2.8147    1.3955 H       1  LIG1        0.0235
     74 H           0.5857    0.3686   -0.6052 H       1  LIG1        0.0316
     75 H           0.5310    2.7996    0.1782 H       1  LIG1        0.0345
     76 H           0.8681    2.3797    1.8335 H       1  LIG1        0.0345
     77 H           4.2609   -1.1955   -0.5610 H       1  LIG1        0.0236
     78 H           5.2383   -0.0350   -1.3462 H       1  LIG1        0.0236
     79 H           5.1683   -1.7821   -1.8244 H       1  LIG1        0.0236
     80 H           4.5638   -0.2103   -4.6934 H       1  LIG1        0.0236
     81 H           5.3540   -1.2876   -3.7060 H       1  LIG1        0.0236
     82 H           5.3532    0.4700   -3.2891 H       1  LIG1        0.0236
@<TRIPOS>BOND
     1     2     4    1
     2     4     5    1
     3     5     6    1
     4     6     8    1
     5     8     9    1
     6     9    10    1
     7    10    11    1
     8    11    12    1
     9    12    14    1
    10    14    15    1
    11    15    16    1
    12    16    17    1
    13    17    18    1
    14    18    19    1
    15    19    22    1
    16    15    22    1
    17    16    26    1
    18    26    27    1
    19    12    27    1
    20    11    29    1
    21     6    29    1
    22    29    30    1
    23    30    31    1
    24    14    31    1
    25     8    33    1
    26     2    33    1
    27     1     2    1
    28     2     3    1
    29     6     7    1
    30    11    28    1
    31    12    13    1
    32    16    25    1
    33    22    23    1
    34    22    24    1
    35    31    32    2
    36    33    34    1
    37    33    35    1
    38    19    21    1
    39    19    20    1
    40     1    36    1
    41     4    37    1
    42     4    38    1
    43     5    39    1
    44     5    40    1
    45     7    41    1
    46     7    42    1
    47     7    43    1
    48     8    44    1
    49     9    45    1
    50     9    46    1
    51    10    47    1
    52    10    48    1
    53    13    49    1
    54    13    50    1
    55    13    51    1
    56    14    52    1
    57    15    53    1
    58    17    54    1
    59    17    55    1
    60    18    56    1
    61    18    57    1
    62    21    58    1
    63    21    59    1
    64    21    60    1
    65    24    61    1
    66    24    62    1
    67    24    63    1
    68    25    64    1
    69    25    65    1
    70    25    66    1
    71    26    67    1
    72    26    68    1
    73    27    69    1
    74    27    70    1
    75    28    71    1
    76    28    72    1
    77    28    73    1
    78    29    74    1
    79    30    75    1
    80    30    76    1
    81    34    77    1
    82    34    78    1
    83    34    79    1
    84    35    80    1
    85    35    81    1
    86    35    82    1
