REMARK  Name = NuBBE_2172
REMARK  8 active torsions:
REMARK  status: ('A' for Active; 'I' for Inactive)
REMARK    1  A    between atoms: C_6  and  O_7
REMARK    2  A    between atoms: O_7  and  C_8
REMARK    3  A    between atoms: C_8  and  C_9
REMARK    4  A    between atoms: C_10  and  C_11
REMARK    5  A    between atoms: C_10  and  C_12
REMARK    6  A    between atoms: C_13  and  O_14
REMARK    7  A    between atoms: O_14  and  C_15
REMARK    8  A    between atoms: C_19  and  C_20
REMARK                            x       y       z     vdW  Elec       q    Type
REMARK                         _______ _______ _______ _____ _____    ______ ____
ROOT
ATOM      1  O   LIG A   1      -2.985   1.645   0.147  0.00  0.00    -0.286 OA
ATOM      2  C   LIG A   1      -1.787   1.661  -0.094  0.00  0.00    +0.200 A 
ATOM      3  C   LIG A   1      -1.024   0.403  -0.207  0.00  0.00    +0.068 A 
ATOM      4  C   LIG A   1      -1.668  -0.820  -0.072  0.00  0.00    +0.019 A 
ATOM      5  C   LIG A   1      -0.932  -2.005  -0.208  0.00  0.00    +0.050 A 
ATOM      6  C   LIG A   1       0.448  -1.983  -0.468  0.00  0.00    +0.166 A 
ATOM      7  C   LIG A   1       1.085  -0.733  -0.628  0.00  0.00    +0.205 A 
ATOM      8  C   LIG A   1       0.333   0.457  -0.476  0.00  0.00    +0.183 A 
ATOM      9  O   LIG A   1       1.002   1.657  -0.616  0.00  0.00    -0.458 OA
ATOM     10  C   LIG A   1       0.285   2.822  -0.539  0.00  0.00    +0.208 A 
ATOM     11  C   LIG A   1      -1.040   2.921  -0.299  0.00  0.00    +0.064 A 
ENDROOT
BRANCH  11  12
ATOM     12  C   LIG A   1      -1.708   4.224  -0.263  0.00  0.00    -0.008 A 
ATOM     13  C   LIG A   1      -2.248   4.772  -1.450  0.00  0.00    +0.012 A 
ATOM     14  C   LIG A   1      -2.872   6.024  -1.442  0.00  0.00    +0.050 A 
ATOM     15  C   LIG A   1      -2.938   6.698  -0.243  0.00  0.00    +0.166 A 
ATOM     16  O   LIG A   1      -3.500   7.921  -0.049  0.00  0.00    -0.453 OA
ATOM     17  C   LIG A   1      -3.274   8.103   1.364  0.00  0.00    +0.466 C 
ATOM     18  O   LIG A   1      -2.588   6.995   1.983  0.00  0.00    -0.453 OA
ATOM     19  C   LIG A   1      -2.416   6.171   0.915  0.00  0.00    +0.167 A 
ATOM     20  C   LIG A   1      -1.795   4.940   0.941  0.00  0.00    +0.058 A 
ENDBRANCH  11  12
BRANCH   7  21
ATOM     21  O   LIG A   1       2.424  -0.521  -0.835  0.00  0.00    -0.488 OA
ATOM     22  C   LIG A   1       3.104  -1.403  -1.715  0.00  0.00    +0.277 C 
ENDBRANCH   7  21
BRANCH   6  23
ATOM     23  O   LIG A   1       1.179  -3.144  -0.598  0.00  0.00    -0.484 OA
BRANCH  23  24
ATOM     24  C   LIG A   1       0.735  -4.261   0.191  0.00  0.00    +0.257 C 
BRANCH  24  25
ATOM     25  C   LIG A   1       1.569  -5.470  -0.142  0.00  0.00    +0.012 C 
ATOM     26  C   LIG A   1       2.346  -6.201   0.684  0.00  0.00    -0.076 C 
ATOM     27  C   LIG A   1       2.565  -5.904   2.143  0.00  0.00    +0.038 C 
ATOM     28  C   LIG A   1       3.098  -7.417   0.192  0.00  0.00    +0.038 C 
ENDBRANCH  24  25
ENDBRANCH  23  24
ENDBRANCH   6  23
TORSDOF 5
