@<TRIPOS>MOLECULE
NuBBE_537
 41 42 0 0 0
SMALL
GASTEIGER

@<TRIPOS>ATOM
      1 O          -1.5951   -1.1106    1.4920 O.3     1  LIG1       -0.3877
      2 C          -1.1751   -0.0654    0.6147 C.3     1  LIG1        0.0760
      3 H          -1.7700   -0.1525   -0.3006 H       1  LIG1        0.0638
      4 C          -1.4285    1.2369    1.3094 C.2     1  LIG1       -0.0553
      5 C          -2.2390    2.2087    0.8568 C.2     1  LIG1       -0.0561
      6 C          -2.4759    3.4960    1.5397 C.ar    1  LIG1       -0.0252
      7 C          -3.3666    4.4182    0.9698 C.ar    1  LIG1       -0.0546
      8 C          -3.5987    5.6589    1.5746 C.ar    1  LIG1       -0.0612
      9 C          -2.9462    5.9938    2.7585 C.ar    1  LIG1       -0.0617
     10 C          -2.0668    5.0884    3.3408 C.ar    1  LIG1       -0.0612
     11 C          -1.8350    3.8517    2.7357 C.ar    1  LIG1       -0.0546
     12 C           0.3184   -0.2375    0.2943 C.3     1  LIG1        0.0030
     13 C           0.6289   -1.5698   -0.4085 C.3     1  LIG1        0.0612
     14 H           0.0468   -1.6136   -1.3341 H       1  LIG1        0.0595
     15 C           2.1256   -1.7013   -0.7226 C.3     1  LIG1        0.0108
     16 C           2.5079   -3.0243   -1.4094 C.3     1  LIG1        0.1091
     17 H           2.3162   -3.8548   -0.7176 H       1  LIG1        0.0738
     18 O           3.9404   -2.9974   -1.6417 O.3     1  LIG1       -0.4579
     19 C           4.5085   -4.0067   -2.3469 C.2     1  LIG1        0.3319
     20 C           3.6215   -4.7770   -3.2389 C.2     1  LIG1        0.0187
     21 C           2.3529   -4.4084   -3.4522 C.2     1  LIG1       -0.0738
     22 C           1.7626   -3.2444   -2.7268 C.3     1  LIG1        0.0032
     23 O           5.7134   -4.2478   -2.3089 O.2     1  LIG1       -0.2456
     24 O           0.2457   -2.6861    0.3884 O.3     1  LIG1       -0.3916
     25 H          -2.4011   -0.7993    1.9449 H       1  LIG1        0.2102
     26 H          -0.8899    1.3493    2.2454 H       1  LIG1        0.0598
     27 H          -2.7676    2.0683   -0.0848 H       1  LIG1        0.0621
     28 H          -3.8903    4.1875    0.0446 H       1  LIG1        0.0623
     29 H          -4.2869    6.3661    1.1189 H       1  LIG1        0.0618
     30 H          -3.1198    6.9585    3.2271 H       1  LIG1        0.0618
     31 H          -1.5529    5.3390    4.2650 H       1  LIG1        0.0618
     32 H          -1.1358    3.1816    3.2252 H       1  LIG1        0.0623
     33 H           0.8945   -0.1903    1.2284 H       1  LIG1        0.0318
     34 H           0.6506    0.5925   -0.3429 H       1  LIG1        0.0318
     35 H           2.7037   -1.6363    0.2102 H       1  LIG1        0.0326
     36 H           2.4598   -0.8553   -1.3366 H       1  LIG1        0.0326
     37 H           4.0775   -5.6075   -3.7648 H       1  LIG1        0.0686
     38 H           1.7345   -4.9492   -4.1617 H       1  LIG1        0.0575
     39 H           0.7031   -3.4406   -2.5336 H       1  LIG1        0.0343
     40 H           1.8336   -2.3630   -3.3751 H       1  LIG1        0.0343
     41 H          -0.6048   -2.4563    0.8235 H       1  LIG1        0.2098
@<TRIPOS>BOND
     1     1     2    1
     2     2     3    1
     3     2     4    1
     4     4     5    2
     5     5     6    1
     6     6     7   ar
     7     7     8   ar
     8     8     9   ar
     9     9    10   ar
    10    10    11   ar
    11     6    11   ar
    12     2    12    1
    13    12    13    1
    14    13    14    1
    15    13    15    1
    16    15    16    1
    17    16    17    1
    18    16    18    1
    19    18    19    1
    20    19    20    1
    21    20    21    2
    22    21    22    1
    23    16    22    1
    24    19    23    2
    25    13    24    1
    26     1    25    1
    27     4    26    1
    28     5    27    1
    29     7    28    1
    30     8    29    1
    31     9    30    1
    32    10    31    1
    33    11    32    1
    34    12    33    1
    35    12    34    1
    36    15    35    1
    37    15    36    1
    38    20    37    1
    39    21    38    1
    40    22    39    1
    41    22    40    1
    42    24    41    1
