REMARK  Name = NuBBE_1878
REMARK  14 active torsions:
REMARK  status: ('A' for Active; 'I' for Inactive)
REMARK    1  A    between atoms: C_4  and  O_30
REMARK    2  A    between atoms: C_5  and  O_6
REMARK    3  A    between atoms: O_6  and  C_7
REMARK    4  A    between atoms: C_8  and  O_28
REMARK    5  A    between atoms: C_12  and  C_13
REMARK    6  A    between atoms: C_16  and  O_23
REMARK    7  A    between atoms: C_17  and  O_18
REMARK    8  A    between atoms: O_18  and  C_19
REMARK    9  A    between atoms: C_20  and  O_21
REMARK   10  A    between atoms: O_21  and  C_22
REMARK   11  A    between atoms: O_23  and  C_24
REMARK   12  A    between atoms: C_25  and  O_26
REMARK   13  A    between atoms: O_26  and  C_27
REMARK   14  A    between atoms: O_28  and  C_29
REMARK                            x       y       z     vdW  Elec       q    Type
REMARK                         _______ _______ _______ _____ _____    ______ ____
ROOT
ATOM      1  O   LIG A   1      -3.626  -2.212  -0.403  0.00  0.00    -0.283 OA
ATOM      2  C   LIG A   1      -2.500  -1.692  -0.133  0.00  0.00    +0.238 A 
ATOM      3  C   LIG A   1      -1.357  -2.538  -0.325  0.00  0.00    +0.113 A 
ATOM      4  C   LIG A   1      -1.450  -3.896  -0.706  0.00  0.00    +0.177 A 
ATOM      5  C   LIG A   1      -0.297  -4.679  -0.752  0.00  0.00    +0.204 A 
ATOM      6  C   LIG A   1       0.959  -4.086  -0.464  0.00  0.00    +0.169 A 
ATOM      7  C   LIG A   1       1.027  -2.726  -0.145  0.00  0.00    +0.096 A 
ATOM      8  C   LIG A   1      -0.120  -1.951  -0.084  0.00  0.00    +0.147 A 
ATOM      9  O   LIG A   1       0.032  -0.633   0.197  0.00  0.00    -0.451 OA
ATOM     10  C   LIG A   1      -1.062   0.187   0.452  0.00  0.00    +0.184 A 
ATOM     11  C   LIG A   1      -2.352  -0.306   0.350  0.00  0.00    +0.211 A 
ENDROOT
BRANCH  10  12
ATOM     12  C   LIG A   1      -0.622   1.631   0.738  0.00  0.00    +0.067 A 
ATOM     13  C   LIG A   1      -1.595   2.588   1.053  0.00  0.00    +0.019 A 
ATOM     14  C   LIG A   1      -1.302   3.944   1.185  0.00  0.00    +0.050 A 
ATOM     15  C   LIG A   1      -0.019   4.441   0.950  0.00  0.00    +0.165 A 
ATOM     16  C   LIG A   1       1.030   3.545   0.712  0.00  0.00    +0.204 A 
ATOM     17  C   LIG A   1       0.740   2.134   0.641  0.00  0.00    +0.176 A 
BRANCH  16  18
ATOM     18  O   LIG A   1       2.255   3.982   0.255  0.00  0.00    -0.488 OA
ATOM     19  C   LIG A   1       3.119   4.753   1.097  0.00  0.00    +0.277 C 
ENDBRANCH  16  18
BRANCH  17  20
ATOM     20  O   LIG A   1       1.726   1.174   0.466  0.00  0.00    -0.491 OA
ATOM     21  C   LIG A   1       3.096   1.563   0.500  0.00  0.00    +0.277 C 
ENDBRANCH  17  20
BRANCH  15  22
ATOM     22  O   LIG A   1       0.025   5.805   0.985  0.00  0.00    -0.491 OA
ATOM     23  C   LIG A   1       0.806   6.477   0.006  0.00  0.00    +0.277 C 
ENDBRANCH  15  22
ENDBRANCH  10  12
BRANCH   5  24
ATOM     24  O   LIG A   1      -0.267  -6.026  -1.039  0.00  0.00    -0.488 OA
ATOM     25  C   LIG A   1      -1.292  -6.527  -1.892  0.00  0.00    +0.277 C 
ENDBRANCH   5  24
BRANCH  11  26
ATOM     26  O   LIG A   1      -3.450   0.463   0.697  0.00  0.00    -0.488 OA
ATOM     27  C   LIG A   1      -4.737   0.086   0.191  0.00  0.00    +0.277 C 
ENDBRANCH  11  26
BRANCH   6  28
ATOM     28  O   LIG A   1       2.054  -4.910  -0.447  0.00  0.00    -0.491 OA
ATOM     29  C   LIG A   1       3.311  -4.337  -0.791  0.00  0.00    +0.277 C 
ENDBRANCH   6  28
BRANCH   4  30
ATOM     30  O   LIG A   1      -2.679  -4.437  -0.971  0.00  0.00    -0.503 OA
ATOM     31  H   LIG A   1      -3.364  -3.746  -0.877  0.00  0.00    +0.292 HD
ENDBRANCH   4  30
TORSDOF 8
