@<TRIPOS>MOLECULE
NuBBE_989
 51 55 0 0 0
SMALL
GASTEIGER

@<TRIPOS>ATOM
      1 C          -2.4129    1.4216    2.4581 C.3     1  LIG1       -0.0589
      2 C          -0.9107    1.0892    2.3826 C.3     1  LIG1       -0.0219
      3 C          -0.0040    2.2002    1.5844 C.3     1  LIG1       -0.0255
      4 C           0.2733    1.6568   -0.0484 C.3     1  LIG1       -0.0339
      5 C           0.7522    2.2992   -1.4172 C.3     1  LIG1       -0.0494
      6 C           0.5105    1.2800   -2.7174 C.3     1  LIG1       -0.0493
      7 C           1.0469   -0.2075   -2.5802 C.3     1  LIG1       -0.0303
      8 C           0.4429   -1.5015   -3.5030 C.3     1  LIG1       -0.0184
      9 C          -0.3551   -2.7514   -2.7360 C.3     1  LIG1        0.1090
     10 H           0.1995   -3.6908   -2.8493 H       1  LIG1        0.0647
     11 C          -0.5678   -2.4835   -1.2343 C.3     1  LIG1        0.1942
     12 C          -0.7098   -1.0095   -1.2500 C.3     1  LIG1        0.0120
     13 C           0.7692   -0.6211   -1.1607 C.3     1  LIG1        0.0052
     14 C           1.0615    0.3436   -0.0131 C.3     1  LIG1       -0.0297
     15 C           0.7455   -0.3752    1.2825 C.3     1  LIG1       -0.0488
     16 C          -0.7323   -0.1880    1.6155 C.3     1  LIG1       -0.0467
     17 C           1.5884   -1.9082   -0.8956 C.3     1  LIG1        0.0573
     18 O           0.5926   -2.8403   -0.4947 O.3     1  LIG1       -0.3459
     19 O          -1.7217   -3.0845   -0.6763 O.3     1  LIG1       -0.3626
     20 O          -1.6620   -2.9523   -3.2993 O.3     1  LIG1       -0.3865
     21 C           1.1196    2.4234    2.6534 C.3     1  LIG1        0.0094
     22 C           0.9579    1.3678    3.7389 C.2     1  LIG1        0.1342
     23 C          -0.3443    0.6858    3.7545 C.3     1  LIG1        0.0115
     24 O           1.8678    1.0574    4.5663 O.2     1  LIG1       -0.2974
     25 H          -2.6852    2.2369    1.7834 H       1  LIG1        0.0235
     26 H          -2.7209    1.7016    3.4696 H       1  LIG1        0.0235
     27 H          -3.0323    0.5568    2.1792 H       1  LIG1        0.0235
     28 H          -0.5580    3.1448    1.4944 H       1  LIG1        0.0313
     29 H          -0.7732    1.5071   -0.3404 H       1  LIG1        0.0307
     30 H           1.8175    2.5627   -1.3973 H       1  LIG1        0.0268
     31 H           0.1954    3.2212   -1.6327 H       1  LIG1        0.0268
     32 H           0.9689    1.7336   -3.6078 H       1  LIG1        0.0268
     33 H          -0.5674    1.2646   -2.9211 H       1  LIG1        0.0268
     34 H           2.1238   -0.1680   -2.7953 H       1  LIG1        0.0308
     35 H           1.3222   -1.9938   -3.9418 H       1  LIG1        0.0295
     36 H          -0.1732   -1.1377   -4.3291 H       1  LIG1        0.0295
     37 H          -1.4892   -0.6518   -0.6189 H       1  LIG1        0.0324
     38 H          -1.2108   -0.6574   -2.1667 H       1  LIG1        0.0324
     39 H           2.1355    0.5937   -0.0409 H       1  LIG1        0.0310
     40 H           1.4547    0.0174    2.0064 H       1  LIG1        0.0268
     41 H           0.9876   -1.4315    1.3281 H       1  LIG1        0.0268
     42 H          -1.1613   -1.0962    2.0438 H       1  LIG1        0.0271
     43 H          -1.3831    0.0360    0.7990 H       1  LIG1        0.0271
     44 H           2.3763   -1.7961   -0.1397 H       1  LIG1        0.0567
     45 H           2.1139   -2.3119   -1.7669 H       1  LIG1        0.0567
     46 H          -1.9612   -2.5380    0.0975 H       1  LIG1        0.2128
     47 H          -2.1830   -3.3512   -2.5601 H       1  LIG1        0.2100
     48 H           0.9276    3.3576    3.1999 H       1  LIG1        0.0344
     49 H           2.1297    2.4205    2.2545 H       1  LIG1        0.0344
     50 H          -0.9741    0.9677    4.6087 H       1  LIG1        0.0347
     51 H          -0.1873   -0.3995    3.8334 H       1  LIG1        0.0347
@<TRIPOS>BOND
     1     1     2    1
     2     2     3    1
     3     3     4    1
     4     4     5    1
     5     5     6    1
     6     6     7    1
     7     7     8    1
     8     8     9    1
     9     9    10    1
    10     9    11    1
    11    11    12    1
    12    12    13    1
    13    13    14    1
    14     4    14    1
    15    14    15    1
    16    15    16    1
    17     2    16    1
    18     7    13    1
    19    13    17    1
    20    17    18    1
    21    11    18    1
    22    11    19    1
    23     9    20    1
    24     3    21    1
    25    21    22    1
    26    22    23    1
    27     2    23    1
    28    22    24    2
    29     1    25    1
    30     1    26    1
    31     1    27    1
    32     3    28    1
    33     4    29    1
    34     5    30    1
    35     5    31    1
    36     6    32    1
    37     6    33    1
    38     7    34    1
    39     8    35    1
    40     8    36    1
    41    12    37    1
    42    12    38    1
    43    14    39    1
    44    15    40    1
    45    15    41    1
    46    16    42    1
    47    16    43    1
    48    17    44    1
    49    17    45    1
    50    19    46    1
    51    20    47    1
    52    21    48    1
    53    21    49    1
    54    23    50    1
    55    23    51    1
