REMARK  Name = NuBBE_539
REMARK  5 active torsions:
REMARK  status: ('A' for Active; 'I' for Inactive)
REMARK    1  A    between atoms: O_1  and  C_2
REMARK    2  A    between atoms: C_2  and  C_4
REMARK    3  A    between atoms: C_2  and  C_13
REMARK    4  A    between atoms: C_4  and  C_5
REMARK    5  A    between atoms: C_14  and  C_15
REMARK                            x       y       z     vdW  Elec       q    Type
REMARK                         _______ _______ _______ _____ _____    ______ ____
ROOT
ATOM      1  C   LIG A   1      -0.704  -0.586   0.015  0.00  0.00    +0.141 C 
ENDROOT
BRANCH   1   2
ATOM      2  O   LIG A   1      -2.108  -0.742  -0.194  0.00  0.00    -0.388 OA
ATOM      3  H   LIG A   1      -2.558  -0.274   0.531  0.00  0.00    +0.210 HD
ENDBRANCH   1   2
BRANCH   1   4
ATOM      4  C   LIG A   1      -0.484   0.867   0.343  0.00  0.00    +0.005 C 
ATOM      5  C   LIG A   1       0.046   1.338   1.488  0.00  0.00    +0.006 C 
BRANCH   5   6
ATOM      6  C   LIG A   1       0.154   2.776   1.810  0.00  0.00    -0.025 A 
ATOM      7  C   LIG A   1      -0.778   3.710   1.333  0.00  0.00    +0.008 A 
ATOM      8  C   LIG A   1      -0.666   5.067   1.646  0.00  0.00    +0.001 A 
ATOM      9  C   LIG A   1       0.369   5.510   2.462  0.00  0.00    +0.000 A 
ATOM     10  C   LIG A   1       1.283   4.592   2.977  0.00  0.00    +0.001 A 
ATOM     11  C   LIG A   1       1.172   3.232   2.660  0.00  0.00    +0.008 A 
ENDBRANCH   5   6
ENDBRANCH   1   4
BRANCH   1  12
ATOM     12  C   LIG A   1       0.012  -1.029  -1.271  0.00  0.00    +0.080 C 
BRANCH  12  13
ATOM     13  C   LIG A   1      -0.206  -2.525  -1.568  0.00  0.00    +0.183 C 
ATOM     14  O   LIG A   1       0.375  -3.296  -0.494  0.00  0.00    -0.458 OA
ATOM     15  C   LIG A   1       0.374  -4.652  -0.593  0.00  0.00    +0.332 C 
ATOM     16  C   LIG A   1       0.334  -5.209  -1.960  0.00  0.00    +0.087 C 
ATOM     17  C   LIG A   1       0.394  -4.422  -3.042  0.00  0.00    -0.016 C 
ATOM     18  C   LIG A   1       0.413  -2.932  -2.910  0.00  0.00    +0.072 C 
ATOM     19  O   LIG A   1       0.472  -5.384   0.377  0.00  0.00    -0.246 OA
ENDBRANCH  12  13
ENDBRANCH   1  12
TORSDOF 5
