@<TRIPOS>MOLECULE
NuBBE_1234
 81 84 0 0 0
SMALL
GASTEIGER

@<TRIPOS>ATOM
      1 C          -2.5823   -1.5353    1.0481 C.3     1  LIG1       -0.0553
      2 C          -1.1290   -0.9945    1.1905 C.3     1  LIG1       -0.0051
      3 C          -1.2188    0.5484    1.3095 C.2     1  LIG1       -0.0633
      4 C          -0.6247    1.4126    0.4491 C.2     1  LIG1       -0.0636
      5 C          -0.8728    2.9552    0.4594 C.3     1  LIG1       -0.0073
      6 C          -1.6039    3.2432   -0.8829 C.3     1  LIG1       -0.0556
      7 C          -1.7856    3.4493    1.6554 C.3     1  LIG1       -0.0242
      8 H          -2.8207    3.3867    1.2847 H       1  LIG1        0.0315
      9 C          -1.7182    2.4791    2.8453 C.3     1  LIG1       -0.0451
     10 C          -2.0852    1.0663    2.4335 C.3     1  LIG1       -0.0306
     11 C          -1.5643    4.9549    2.1283 C.3     1  LIG1       -0.0053
     12 C          -0.6628    5.0873    3.3855 C.3     1  LIG1       -0.0572
     13 C          -2.9415    5.5485    2.5195 C.3     1  LIG1       -0.0572
     14 C          -0.9707    5.8095    0.9852 C.3     1  LIG1        0.0607
     15 H          -1.6994    5.8802    0.1731 H       1  LIG1        0.0599
     16 C           0.3439    5.2493    0.4524 C.3     1  LIG1       -0.0256
     17 C           0.4671    3.7277    0.5154 C.3     1  LIG1       -0.0413
     18 O          -0.7539    7.1594    1.4017 O.3     1  LIG1       -0.3912
     19 C           0.2632    0.8852   -0.6618 C.3     1  LIG1       -0.0304
     20 C           0.8842   -0.4553   -0.3154 C.3     1  LIG1       -0.0429
     21 C          -0.1724   -1.5319    0.0291 C.3     1  LIG1       -0.0196
     22 C          -0.9593   -1.8460   -1.2579 C.3     1  LIG1       -0.0585
     23 C           0.6202   -2.7457    0.6658 C.3     1  LIG1       -0.0322
     24 H           1.5998   -2.3525    0.9826 H       1  LIG1        0.0309
     25 C          -0.0773   -3.0259    1.9991 C.3     1  LIG1       -0.0486
     26 C          -0.5137   -1.6392    2.4558 C.3     1  LIG1       -0.0431
     27 C           0.9915   -4.0261   -0.1327 C.3     1  LIG1       -0.0402
     28 H           1.4752   -4.6938    0.5958 H       1  LIG1        0.0301
     29 C           2.0579   -3.7199   -1.2111 C.3     1  LIG1       -0.0467
     30 C           2.6618   -4.9719   -1.8572 C.3     1  LIG1       -0.0343
     31 C           3.6894   -4.6026   -2.8911 C.2     1  LIG1       -0.0853
     32 C           3.4752   -4.4096   -4.2103 C.2     1  LIG1       -0.0796
     33 C           2.1350   -4.5091   -4.8831 C.3     1  LIG1       -0.0440
     34 C           4.6087   -4.0400   -5.1336 C.3     1  LIG1       -0.0440
     35 C          -0.1875   -4.8185   -0.7014 C.3     1  LIG1       -0.0621
     36 H          -3.1127   -1.0500    0.2207 H       1  LIG1        0.0238
     37 H          -3.1722   -1.3564    1.9549 H       1  LIG1        0.0238
     38 H          -2.6124   -2.6160    0.8778 H       1  LIG1        0.0238
     39 H          -2.4376    2.5452   -1.0331 H       1  LIG1        0.0238
     40 H          -0.9284    3.1405   -1.7401 H       1  LIG1        0.0238
     41 H          -2.0346    4.2426   -0.9412 H       1  LIG1        0.0238
     42 H          -2.4084    2.7954    3.6360 H       1  LIG1        0.0271
     43 H          -0.7098    2.4658    3.2775 H       1  LIG1        0.0271
     44 H          -3.1382    1.0293    2.1293 H       1  LIG1        0.0310
     45 H          -1.9849    0.4346    3.3222 H       1  LIG1        0.0310
     46 H          -0.4966    6.1371    3.6524 H       1  LIG1        0.0236
     47 H           0.3204    4.6321    3.2390 H       1  LIG1        0.0236
     48 H          -1.1199    4.6230    4.2659 H       1  LIG1        0.0236
     49 H          -3.6230    5.5606    1.6612 H       1  LIG1        0.0236
     50 H          -2.8495    6.5788    2.8810 H       1  LIG1        0.0236
     51 H          -3.4172    4.9632    3.3137 H       1  LIG1        0.0236
     52 H           1.1986    5.6959    0.9771 H       1  LIG1        0.0290
     53 H           0.4555    5.5784   -0.5895 H       1  LIG1        0.0290
     54 H           0.9979    3.4468    1.4343 H       1  LIG1        0.0274
     55 H           1.1409    3.4476   -0.2997 H       1  LIG1        0.0274
     56 H          -0.3826    7.6440    0.6445 H       1  LIG1        0.2098
     57 H           1.0994    1.5567   -0.8627 H       1  LIG1        0.0310
     58 H          -0.3072    0.8265   -1.5947 H       1  LIG1        0.0310
     59 H           1.5650   -0.2966    0.5329 H       1  LIG1        0.0274
     60 H           1.5127   -0.7877   -1.1504 H       1  LIG1        0.0274
     61 H          -1.5536   -0.9869   -1.5873 H       1  LIG1        0.0235
     62 H          -1.6659   -2.6676   -1.1251 H       1  LIG1        0.0235
     63 H          -0.2991   -2.1021   -2.0903 H       1  LIG1        0.0235
     64 H           0.6032   -3.4840    2.7248 H       1  LIG1        0.0268
     65 H          -0.9363   -3.6929    1.8870 H       1  LIG1        0.0268
     66 H           0.3547   -1.0666    2.8061 H       1  LIG1        0.0274
     67 H          -1.2178   -1.7158    3.2915 H       1  LIG1        0.0274
     68 H           1.6294   -3.0862   -1.9941 H       1  LIG1        0.0271
     69 H           2.8712   -3.1393   -0.7552 H       1  LIG1        0.0271
     70 H           1.8866   -5.6051   -2.2977 H       1  LIG1        0.0307
     71 H           3.1488   -5.5871   -1.0898 H       1  LIG1        0.0307
     72 H           4.6997   -4.4838   -2.5034 H       1  LIG1        0.0571
     73 H           1.3280   -4.8033   -4.2087 H       1  LIG1        0.0274
     74 H           2.1720   -5.2471   -5.6920 H       1  LIG1        0.0274
     75 H           1.8597   -3.5395   -5.3128 H       1  LIG1        0.0274
     76 H           5.5574   -3.9240   -4.5998 H       1  LIG1        0.0274
     77 H           4.3919   -3.0910   -5.6346 H       1  LIG1        0.0274
     78 H           4.7431   -4.8142   -5.8939 H       1  LIG1        0.0274
     79 H          -0.5045   -4.4410   -1.6773 H       1  LIG1        0.0233
     80 H          -1.0487   -4.8190   -0.0288 H       1  LIG1        0.0233
     81 H           0.0960   -5.8655   -0.8540 H       1  LIG1        0.0233
@<TRIPOS>BOND
     1     2     3    1
     2     3     4    2
     3     4     5    1
     4     5     7    1
     5     7     9    1
     6     9    10    1
     7     3    10    1
     8     7    11    1
     9    11    14    1
    10    14    16    1
    11    16    17    1
    12     5    17    1
    13     4    19    1
    14    19    20    1
    15    20    21    1
    16     2    21    1
    17    21    23    1
    18    23    25    1
    19    25    26    1
    20     2    26    1
    21    29    30    1
    22    30    31    1
    23    31    32    2
    24    32    33    1
    25    32    34    1
    26    27    35    1
    27     1     2    1
    28     5     6    1
    29     7     8    1
    30    11    12    1
    31    11    13    1
    32    21    22    1
    33    14    18    1
    34    14    15    1
    35    23    27    1
    36    23    24    1
    37    27    29    1
    38    27    28    1
    39     1    36    1
    40     1    37    1
    41     1    38    1
    42     6    39    1
    43     6    40    1
    44     6    41    1
    45     9    42    1
    46     9    43    1
    47    10    44    1
    48    10    45    1
    49    12    46    1
    50    12    47    1
    51    12    48    1
    52    13    49    1
    53    13    50    1
    54    13    51    1
    55    16    52    1
    56    16    53    1
    57    17    54    1
    58    17    55    1
    59    18    56    1
    60    19    57    1
    61    19    58    1
    62    20    59    1
    63    20    60    1
    64    22    61    1
    65    22    62    1
    66    22    63    1
    67    25    64    1
    68    25    65    1
    69    26    66    1
    70    26    67    1
    71    29    68    1
    72    29    69    1
    73    30    70    1
    74    30    71    1
    75    31    72    1
    76    33    73    1
    77    33    74    1
    78    33    75    1
    79    34    76    1
    80    34    77    1
    81    34    78    1
    82    35    79    1
    83    35    80    1
    84    35    81    1
