REMARK  Name = NuBBE_2190
REMARK  6 active torsions:
REMARK  status: ('A' for Active; 'I' for Inactive)
REMARK    1  A    between atoms: C_1  and  C_2
REMARK    2  A    between atoms: C_8  and  O_10
REMARK    3  A    between atoms: C_12  and  C_13
REMARK    4  A    between atoms: C_12  and  C_15
REMARK    5  A    between atoms: C_19  and  C_20
REMARK    6  A    between atoms: C_19  and  C_21
REMARK                            x       y       z     vdW  Elec       q    Type
REMARK                         _______ _______ _______ _____ _____    ______ ____
ROOT
ATOM      1  C   LIG A   1      -2.213  -0.447   1.292  0.00  0.00    +0.016 C 
ATOM      2  C   LIG A   1      -0.766   0.051   1.029  0.00  0.00    -0.004 C 
ATOM      3  C   LIG A   1      -0.680   1.547   0.537  0.00  0.00    +0.012 C 
ATOM      4  C   LIG A   1      -1.625   1.766  -0.646  0.00  0.00    +0.084 C 
ATOM      5  C   LIG A   1      -1.289   0.793  -1.757  0.00  0.00    +0.160 C 
ATOM      6  C   LIG A   1      -0.477  -0.433  -1.443  0.00  0.00    -0.002 C 
ATOM      7  C   LIG A   1      -0.251  -0.811  -0.160  0.00  0.00    -0.029 C 
ATOM      8  C   LIG A   1       0.485  -2.108   0.125  0.00  0.00    +0.142 C 
ATOM      9  C   LIG A   1       0.708  -3.009  -1.099  0.00  0.00    +0.047 C 
ATOM     10  C   LIG A   1       1.114  -2.240  -2.367  0.00  0.00    -0.008 C 
ATOM     11  C   LIG A   1       1.148  -3.233  -3.550  0.00  0.00    +0.016 C 
ATOM     12  C   LIG A   1       0.013  -1.187  -2.658  0.00  0.00    +0.049 C 
ATOM     13  O   LIG A   1      -1.689   0.991  -2.905  0.00  0.00    -0.292 OA
ATOM     14  C   LIG A   1      -0.706   2.640   1.657  0.00  0.00    -0.031 C 
ATOM     15  C   LIG A   1      -0.512   4.050   1.046  0.00  0.00    +0.011 C 
ATOM     16  C   LIG A   1      -2.028   2.688   2.445  0.00  0.00    +0.011 C 
ATOM     17  C   LIG A   1       0.476   2.390   2.643  0.00  0.00    +0.007 C 
ATOM     18  C   LIG A   1       1.092   0.992   2.552  0.00  0.00    +0.001 C 
ATOM     19  C   LIG A   1       0.027  -0.080   2.366  0.00  0.00    +0.011 C 
ENDROOT
BRANCH   8  20
ATOM     20  O   LIG A   1      -0.260  -2.874   1.068  0.00  0.00    -0.387 OA
ATOM     21  H   LIG A   1       0.266  -3.663   1.279  0.00  0.00    +0.210 HD
ENDBRANCH   8  20
BRANCH  10  22
ATOM     22  C   LIG A   1       2.463  -1.548  -2.154  0.00  0.00    -0.028 C 
ATOM     23  C   LIG A   1       3.638  -1.848  -2.725  0.00  0.00    +0.004 C 
ENDBRANCH  10  22
TORSDOF 2
