REMARK  Name = NuBBE_1938
REMARK  3 active torsions:
REMARK  status: ('A' for Active; 'I' for Inactive)
REMARK    1  A    between atoms: C_1  and  C_2
REMARK    2  A    between atoms: C_3  and  C_4
REMARK    3  A    between atoms: C_14  and  C_18
REMARK                            x       y       z     vdW  Elec       q    Type
REMARK                         _______ _______ _______ _____ _____    ______ ____
ROOT
ATOM      1  C   LIG A   1      -0.132   0.462   2.110  0.00  0.00    +0.012 C 
ATOM      2  C   LIG A   1       0.082  -0.243   0.770  0.00  0.00    -0.020 C 
ATOM      3  C   LIG A   1       1.263   0.136  -0.149  0.00  0.00    -0.005 C 
ATOM      4  C   LIG A   1       2.678   0.012   0.475  0.00  0.00    +0.016 C 
ATOM      5  C   LIG A   1       1.005  -1.029  -1.329  0.00  0.00    -0.067 C 
ATOM      6  C   LIG A   1       1.790  -1.308  -2.350  0.00  0.00    +0.008 C 
ATOM      7  C   LIG A   1      -0.365  -1.947  -1.129  0.00  0.00    +0.015 C 
ATOM      8  C   LIG A   1      -0.230  -2.732   0.167  0.00  0.00    +0.008 C 
ATOM      9  C   LIG A   1       0.329  -1.763   1.178  0.00  0.00    +0.008 C 
ATOM     10  C   LIG A   1      -1.666  -1.095  -0.913  0.00  0.00    +0.012 C 
ATOM     11  C   LIG A   1      -1.078   0.129  -0.294  0.00  0.00    -0.001 C 
ATOM     12  C   LIG A   1      -1.586   1.548  -0.351  0.00  0.00    -0.010 C 
ATOM     13  C   LIG A   1      -0.309   2.434  -0.506  0.00  0.00    +0.004 C 
ATOM     14  C   LIG A   1       1.101   1.720  -0.417  0.00  0.00    +0.012 C 
ATOM     15  C   LIG A   1      -2.561   1.932   0.747  0.00  0.00    +0.008 C 
ENDROOT
TORSDOF 0
