REMARK  Name = NuBBE_670
REMARK  0 active torsions:
REMARK  status: ('A' for Active; 'I' for Inactive)
REMARK                            x       y       z     vdW  Elec       q    Type
REMARK                         _______ _______ _______ _____ _____    ______ ____
ROOT
ATOM      1  O   LIG A   1      -2.622   0.008   0.212  0.00  0.00    -0.268 OA
ATOM      2  C   LIG A   1      -1.400  -0.002   0.139  0.00  0.00    +0.254 A 
ATOM      3  C   LIG A   1      -0.632   1.259   0.079  0.00  0.00    +0.087 A 
ATOM      4  C   LIG A   1       0.694   1.196  -0.058  0.00  0.00    +0.092 A 
ATOM      5  N   LIG A   1       1.334  -0.008  -0.137  0.00  0.00    -0.314 N 
ATOM      6  N   LIG A   1      -0.664  -1.153   0.100  0.00  0.00    -0.275 N 
ATOM      7  C   LIG A   1       0.690  -1.215  -0.070  0.00  0.00    +0.327 A 
ATOM      8  O   LIG A   1       1.294  -2.279  -0.163  0.00  0.00    -0.247 OA
ATOM      9  H   LIG A   1       2.340  -0.053  -0.258  0.00  0.00    +0.170 HD
ATOM     10  H   LIG A   1      -1.164  -2.026   0.135  0.00  0.00    +0.173 HD
ENDROOT
TORSDOF 0
