REMARK  Name = NuBBE_607
REMARK  12 active torsions:
REMARK  status: ('A' for Active; 'I' for Inactive)
REMARK    1  A    between atoms: C_1  and  C_2
REMARK    2  A    between atoms: C_2  and  C_40
REMARK    3  A    between atoms: C_5  and  C_37
REMARK    4  A    between atoms: C_9  and  C_36
REMARK    5  A    between atoms: C_14  and  C_15
REMARK    6  A    between atoms: C_14  and  C_35
REMARK    7  A    between atoms: C_16  and  O_31
REMARK    8  A    between atoms: C_20  and  C_30
REMARK    9  A    between atoms: C_25  and  C_26
REMARK   10  A    between atoms: O_31  and  C_32
REMARK   11  A    between atoms: C_32  and  C_33
REMARK   12  A    between atoms: C_37  and  O_38
REMARK                            x       y       z     vdW  Elec       q    Type
REMARK                         _______ _______ _______ _____ _____    ______ ____
ROOT
ATOM      1  C   LIG A   1      -0.892  -4.974  -2.841  0.00  0.00    +0.011 C 
ATOM      2  C   LIG A   1      -1.105  -3.447  -2.935  0.00  0.00    -0.035 C 
ATOM      3  C   LIG A   1      -1.816  -3.119  -4.252  0.00  0.00    +0.007 C 
ATOM      4  C   LIG A   1      -1.955  -1.617  -4.462  0.00  0.00    +0.019 C 
ATOM      5  C   LIG A   1      -0.621  -0.820  -4.424  0.00  0.00    +0.075 C 
ATOM      6  C   LIG A   1      -0.978   0.671  -4.367  0.00  0.00    +0.045 C 
ATOM      7  C   LIG A   1      -1.438   1.125  -3.020  0.00  0.00    -0.025 C 
ATOM      8  C   LIG A   1      -0.819   0.769  -1.877  0.00  0.00    -0.061 C 
ATOM      9  C   LIG A   1      -1.018   1.570  -0.540  0.00  0.00    -0.007 C 
ATOM     10  C   LIG A   1      -1.896   0.757   0.438  0.00  0.00    +0.012 C 
ATOM     11  C   LIG A   1      -1.247   0.231   1.705  0.00  0.00    +0.005 C 
ATOM     12  C   LIG A   1      -0.352   1.269   2.395  0.00  0.00    +0.004 C 
ATOM     13  C   LIG A   1       0.011   0.872   3.879  0.00  0.00    +0.005 C 
ATOM     14  C   LIG A   1      -1.300   0.981   4.722  0.00  0.00    +0.015 C 
ATOM     15  C   LIG A   1       1.046   1.863   4.540  0.00  0.00    +0.182 C 
ATOM     16  C   LIG A   1       1.773   2.891   3.645  0.00  0.00    +0.046 C 
ATOM     17  C   LIG A   1       1.317   3.049   2.194  0.00  0.00    +0.011 C 
ATOM     18  C   LIG A   1       0.859   1.721   1.509  0.00  0.00    -0.025 C 
ATOM     19  C   LIG A   1       0.390   2.082   0.006  0.00  0.00    +0.005 C 
ATOM     20  C   LIG A   1       1.466   2.039  -1.130  0.00  0.00    +0.006 C 
ATOM     21  C   LIG A   1       1.593   0.748  -1.988  0.00  0.00    +0.012 C 
ATOM     22  C   LIG A   1       0.355  -0.216  -1.963  0.00  0.00    -0.007 C 
ATOM     23  C   LIG A   1       0.548  -1.075  -0.719  0.00  0.00    +0.016 C 
ATOM     24  C   LIG A   1       0.342  -1.207  -3.237  0.00  0.00    +0.017 C 
ATOM     25  C   LIG A   1       0.279  -2.754  -2.954  0.00  0.00    +0.012 C 
ATOM     26  C   LIG A   1       2.096   0.779   1.563  0.00  0.00    +0.012 C 
ATOM     27  C   LIG A   1       0.447  -0.614   4.006  0.00  0.00    +0.015 C 
ATOM     28  C   LIG A   1      -1.846   2.882  -0.810  0.00  0.00    +0.016 C 
ATOM     29  C   LIG A   1      -1.994  -3.054  -1.742  0.00  0.00    +0.011 C 
ENDROOT
BRANCH   5  30
ATOM     30  C   LIG A   1       0.094  -1.085  -5.748  0.00  0.00    +0.311 C 
ATOM     31  O   LIG A   1       0.882  -1.996  -5.974  0.00  0.00    -0.250 OA
BRANCH  30  32
ATOM     32  O   LIG A   1      -0.238  -0.263  -6.753  0.00  0.00    -0.480 OA
ATOM     33  H   LIG A   1       0.296  -0.561  -7.511  0.00  0.00    +0.295 HD
ENDBRANCH  30  32
ENDBRANCH   5  30
BRANCH  15  34
ATOM     34  O   LIG A   1       2.112   1.134   5.215  0.00  0.00    -0.461 OA
BRANCH  34  35
ATOM     35  C   LIG A   1       1.940   0.777   6.513  0.00  0.00    +0.304 C 
ATOM     36  C   LIG A   1       3.145   0.045   7.011  0.00  0.00    +0.136 C 
ATOM     37  O   LIG A   1       0.947   1.019   7.199  0.00  0.00    -0.251 OA
ENDBRANCH  34  35
ENDBRANCH  15  34
TORSDOF 4
