@<TRIPOS>MOLECULE
NuBBE_1513
 67 70 0 0 0
SMALL
GASTEIGER

@<TRIPOS>ATOM
      1 C          -1.5967    0.9859   -2.0204 C.3     1  LIG1        0.0989
      2 O          -1.8058    2.4118   -1.9263 O.3     1  LIG1       -0.4642
      3 C          -1.9580    3.0934   -3.0957 C.2     1  LIG1        0.3040
      4 O          -1.9730    2.5987   -4.2088 O.2     1  LIG1       -0.2512
      5 C          -2.1499    4.5649   -2.8417 C.3     1  LIG1        0.0332
      6 C          -0.2384    0.5676   -1.3414 C.3     1  LIG1        0.0177
      7 C          -0.2821    0.9805    0.1978 C.3     1  LIG1       -0.0285
      8 H          -0.6589    2.0132    0.2442 H       1  LIG1        0.0310
      9 C          -1.2738    0.1291    1.0496 C.3     1  LIG1       -0.0338
     10 H          -2.2812    0.4649    0.7567 H       1  LIG1        0.0307
     11 C          -1.2289    0.4831    2.5853 C.3     1  LIG1       -0.0252
     12 H          -1.7793    1.4292    2.6864 H       1  LIG1        0.0313
     13 C           0.1823    0.6577    3.2112 C.3     1  LIG1       -0.0191
     14 C           1.0973    1.4681    2.2955 C.3     1  LIG1       -0.0464
     15 C           1.1155    1.0337    0.8451 C.3     1  LIG1       -0.0488
     16 C           0.0995    1.4586    4.5418 C.3     1  LIG1       -0.0586
     17 C           0.6255   -0.8137    3.4744 C.3     1  LIG1        0.0229
     18 H           0.8916   -1.2987    2.5301 H       1  LIG1        0.0383
     19 C          -0.7086   -1.4150    3.9180 C.2     1  LIG1        0.1372
     20 O          -0.8425   -2.4772    4.5110 O.2     1  LIG1       -0.2971
     21 C          -1.8881   -0.5592    3.5023 C.3     1  LIG1        0.0097
     22 C           1.7845   -1.0022    4.4583 C.3     1  LIG1       -0.0459
     23 C           2.1897   -2.4596    4.6562 C.3     1  LIG1       -0.0646
     24 C          -1.2800   -1.3689    0.6731 C.3     1  LIG1       -0.0494
     25 C          -0.1581   -1.8073   -0.2437 C.3     1  LIG1       -0.0492
     26 C          -0.0529   -0.9840   -1.5291 C.3     1  LIG1       -0.0279
     27 H          -0.8547   -1.3490   -2.1876 H       1  LIG1        0.0309
     28 C           1.2841   -1.3535   -2.2068 C.3     1  LIG1       -0.0052
     29 C           1.4392   -0.6964   -3.5761 C.3     1  LIG1        0.1607
     30 H           2.4602   -0.8552   -3.9496 H       1  LIG1        0.0815
     31 C           1.2348    0.8051   -3.4530 C.2     1  LIG1        0.1742
     32 O           1.4328    1.5707   -4.3973 O.2     1  LIG1       -0.2935
     33 C           0.9042    1.3398   -2.0750 C.3     1  LIG1        0.0188
     34 O           0.4691   -1.1938   -4.5039 O.3     1  LIG1       -0.4538
     35 C           0.7999   -2.3534   -5.1256 C.2     1  LIG1        0.3046
     36 O           1.7844   -3.0405   -4.9039 O.2     1  LIG1       -0.2511
     37 C          -0.2581   -2.6751   -6.1559 C.3     1  LIG1        0.0333
     38 H          -1.6250    0.6405   -3.0602 H       1  LIG1        0.0703
     39 H          -2.4448    0.5103   -1.5158 H       1  LIG1        0.0703
     40 H          -3.2137    4.8081   -2.8827 H       1  LIG1        0.0342
     41 H          -1.6072    5.1346   -3.6008 H       1  LIG1        0.0342
     42 H          -1.7466    4.8467   -1.8653 H       1  LIG1        0.0342
     43 H           2.1249    1.4646    2.6783 H       1  LIG1        0.0271
     44 H           0.7757    2.5199    2.3130 H       1  LIG1        0.0271
     45 H           1.6477    0.0864    0.7439 H       1  LIG1        0.0268
     46 H           1.7236    1.7904    0.3393 H       1  LIG1        0.0268
     47 H          -0.4205    2.4118    4.3938 H       1  LIG1        0.0235
     48 H           1.1016    1.6942    4.9202 H       1  LIG1        0.0235
     49 H          -0.4263    0.9167    5.3336 H       1  LIG1        0.0235
     50 H          -2.3047   -0.0927    4.4006 H       1  LIG1        0.0345
     51 H          -2.6651   -1.1476    3.0111 H       1  LIG1        0.0345
     52 H           2.6598   -0.4600    4.0800 H       1  LIG1        0.0269
     53 H           1.5441   -0.5856    5.4415 H       1  LIG1        0.0269
     54 H           2.3715   -2.9600    3.7005 H       1  LIG1        0.0230
     55 H           1.4241   -3.0191    5.2007 H       1  LIG1        0.0230
     56 H           3.1067   -2.5162    5.2519 H       1  LIG1        0.0230
     57 H          -2.2332   -1.5927    0.1746 H       1  LIG1        0.0268
     58 H          -1.2625   -2.0316    1.5390 H       1  LIG1        0.0268
     59 H          -0.3212   -2.8600   -0.5130 H       1  LIG1        0.0268
     60 H           0.7898   -1.8010    0.3025 H       1  LIG1        0.0268
     61 H           1.3512   -2.4435   -2.3043 H       1  LIG1        0.0308
     62 H           2.1165   -1.0473   -1.5592 H       1  LIG1        0.0308
     63 H           0.6843    2.4099   -2.1435 H       1  LIG1        0.0349
     64 H           1.8570    1.2549   -1.5464 H       1  LIG1        0.0349
     65 H          -1.2309   -2.7722   -5.6678 H       1  LIG1        0.0342
     66 H          -0.0177   -3.6243   -6.6453 H       1  LIG1        0.0342
     67 H          -0.2848   -1.8887   -6.9150 H       1  LIG1        0.0342
@<TRIPOS>BOND
     1     1     2    1
     2     2     3    1
     3     3     4    2
     4     3     5    1
     5     6     7    1
     6     7     9    1
     7     9    11    1
     8    11    13    1
     9    13    14    1
    10    14    15    1
    11     7    15    1
    12    13    17    1
    13    17    19    1
    14    19    21    1
    15    11    21    1
    16    22    23    1
    17     9    24    1
    18    24    25    1
    19    25    26    1
    20     6    26    1
    21    26    28    1
    22    28    29    1
    23    29    31    1
    24    31    33    1
    25     6    33    1
    26    34    35    1
    27    35    36    2
    28    35    37    1
    29     1     6    1
    30     7     8    1
    31     9    10    1
    32    11    12    1
    33    13    16    1
    34    19    20    2
    35    26    27    1
    36    29    30    1
    37    29    34    1
    38    31    32    2
    39    17    22    1
    40    17    18    1
    41     1    38    1
    42     1    39    1
    43     5    40    1
    44     5    41    1
    45     5    42    1
    46    14    43    1
    47    14    44    1
    48    15    45    1
    49    15    46    1
    50    16    47    1
    51    16    48    1
    52    16    49    1
    53    21    50    1
    54    21    51    1
    55    22    52    1
    56    22    53    1
    57    23    54    1
    58    23    55    1
    59    23    56    1
    60    24    57    1
    61    24    58    1
    62    25    59    1
    63    25    60    1
    64    28    61    1
    65    28    62    1
    66    33    63    1
    67    33    64    1
    68    37    65    1
    69    37    66    1
    70    37    67    1
