REMARK  Name = NuBBE_469
REMARK  2 active torsions:
REMARK  status: ('A' for Active; 'I' for Inactive)
REMARK    1  A    between atoms: C_13  and  C_14
REMARK    2  A    between atoms: C_13  and  C_15
REMARK                            x       y       z     vdW  Elec       q    Type
REMARK                         _______ _______ _______ _____ _____    ______ ____
ROOT
ATOM      1  O   LIG A   1      -4.282  -0.232   0.218  0.00  0.00    -0.283 OA
ATOM      2  C   LIG A   1      -3.060  -0.191   0.222  0.00  0.00    +0.233 C 
ATOM      3  C   LIG A   1      -2.251  -1.422   0.234  0.00  0.00    +0.036 A 
ATOM      4  C   LIG A   1      -2.906  -2.663   0.249  0.00  0.00    +0.012 A 
ATOM      5  C   LIG A   1      -2.164  -3.841   0.263  0.00  0.00    +0.001 A 
ATOM      6  C   LIG A   1      -0.774  -3.778   0.263  0.00  0.00    +0.001 A 
ATOM      7  C   LIG A   1      -0.124  -2.539   0.245  0.00  0.00    +0.012 A 
ATOM      8  C   LIG A   1      -0.853  -1.337   0.228  0.00  0.00    +0.028 A 
ATOM      9  C   LIG A   1      -0.172  -0.026   0.202  0.00  0.00    +0.136 C 
ATOM     10  C   LIG A   1      -0.853   1.133   0.221  0.00  0.00    +0.045 C 
ATOM     11  C   LIG A   1      -0.178   2.470   0.248  0.00  0.00    +0.047 C 
ATOM     12  C   LIG A   1       1.306   2.322   0.557  0.00  0.00    +0.052 C 
ATOM     13  C   LIG A   1       1.907   1.130  -0.200  0.00  0.00    +0.105 C 
ATOM     14  C   LIG A   1       1.879   1.317  -1.725  0.00  0.00    +0.055 C 
ATOM     15  C   LIG A   1       3.366   0.944   0.239  0.00  0.00    +0.055 C 
ATOM     16  O   LIG A   1       1.211  -0.088   0.138  0.00  0.00    -0.485 OA
ATOM     17  C   LIG A   1      -2.335   1.143   0.216  0.00  0.00    +0.233 C 
ATOM     18  O   LIG A   1      -2.966   2.191   0.193  0.00  0.00    -0.283 OA
ENDROOT
TORSDOF 0
