@<TRIPOS>MOLECULE
NuBBE_305
 57 57 0 0 0
SMALL
GASTEIGER

@<TRIPOS>ATOM
      1 H          -1.3754   -2.4557    0.8752 H       1  LIG1        0.1226
      2 N          -2.3593   -2.5944    0.9974 N.3     1  LIG1       -0.3063
      3 CA         -3.1281   -1.3881    0.6627 C.3     1  LIG1        0.0572
      4 C          -2.3761   -0.0713    1.0374 C.3     1  LIG1        0.0620
      5 O          -3.1930    1.0869    0.8796 O.3     1  LIG1       -0.3934
      6 C          -3.5887   -1.3071   -0.8127 C.3     1  LIG1        0.0727
      7 O          -4.5544   -0.2682   -0.9843 O.3     1  LIG1       -0.3902
      8 C          -4.2004   -2.6258   -1.2606 C.3     1  LIG1       -0.0239
      9 C          -3.1491   -3.7033   -1.1321 C.3     1  LIG1       -0.0352
     10 C          -2.6835   -3.8417    0.3214 C.3     1  LIG1        0.0081
     11 C          -1.4394   -4.7579    0.3955 C.3     1  LIG1       -0.0375
     12 C          -0.2216   -4.4036   -0.5100 C.3     1  LIG1       -0.0516
     13 C           0.8000   -3.2317   -0.2492 C.3     1  LIG1       -0.0530
     14 C           0.4808   -1.6927   -0.2629 C.3     1  LIG1       -0.0531
     15 C           1.6931   -0.7779    0.0753 C.3     1  LIG1       -0.0531
     16 C           1.4773    0.7787    0.1681 C.3     1  LIG1       -0.0531
     17 C           2.8448    1.4578    0.4398 C.3     1  LIG1       -0.0530
     18 C           2.9295    2.9885    0.6157 C.3     1  LIG1       -0.0527
     19 C           2.5615    3.8521   -0.5960 C.3     1  LIG1       -0.0464
     20 C           2.7214    5.3508   -0.3043 C.3     1  LIG1        0.0055
     21 C           4.1083    5.8030    0.0251 C.2     1  LIG1        0.1303
     22 C           4.3110    6.9914    0.8817 C.3     1  LIG1       -0.0061
     23 O           5.1052    5.2156   -0.4871 O.2     1  LIG1       -0.2977
     24 HA         -4.0248   -1.4072    1.2914 H       1  LIG1        0.0509
     25 H1         -1.5010    0.0925    0.4034 H       1  LIG1        0.0573
     26 H2         -2.0347   -0.0951    2.0781 H       1  LIG1        0.0573
     27 H          -3.6135    1.0115   -0.0041 H       1  LIG1        0.2095
     28 H          -2.7352   -1.0564   -1.4569 H       1  LIG1        0.0609
     29 H          -5.4026   -0.6028   -0.6360 H       1  LIG1        0.2098
     30 H          -4.5509   -2.5495   -2.2950 H       1  LIG1        0.0291
     31 H          -5.0759   -2.8719   -0.6480 H       1  LIG1        0.0291
     32 H          -2.3225   -3.4355   -1.7976 H       1  LIG1        0.0281
     33 H          -3.5438   -4.6622   -1.4877 H       1  LIG1        0.0281
     34 H          -3.4970   -4.3044    0.8984 H       1  LIG1        0.0460
     35 H          -1.7888   -5.7613    0.0921 H       1  LIG1        0.0280
     36 H          -1.1123   -4.8894    1.4358 H       1  LIG1        0.0280
     37 H          -0.5380   -4.3890   -1.5581 H       1  LIG1        0.0266
     38 H           0.3965   -5.3179   -0.4589 H       1  LIG1        0.0266
     39 H           1.5457   -3.3673   -1.0474 H       1  LIG1        0.0265
     40 H           1.3204   -3.4669    0.6859 H       1  LIG1        0.0265
     41 H          -0.1666   -1.4355    0.5557 H       1  LIG1        0.0265
     42 H           0.0019   -1.4089   -1.2068 H       1  LIG1        0.0265
     43 H           2.5005   -0.9845   -0.6304 H       1  LIG1        0.0265
     44 H           2.0348   -1.0893    1.0720 H       1  LIG1        0.0265
     45 H           0.7943    1.0259    0.9931 H       1  LIG1        0.0265
     46 H           1.0323    1.1754   -0.7512 H       1  LIG1        0.0265
     47 H           3.5462    1.1610   -0.3484 H       1  LIG1        0.0265
     48 H           3.2343    1.0296    1.3738 H       1  LIG1        0.0265
     49 H           3.9764    3.2030    0.8730 H       1  LIG1        0.0265
     50 H           2.3379    3.3004    1.4833 H       1  LIG1        0.0265
     51 H           1.5268    3.6601   -0.8863 H       1  LIG1        0.0269
     52 H           3.1952    3.5843   -1.4525 H       1  LIG1        0.0269
     53 H           2.0625    5.6549    0.5196 H       1  LIG1        0.0341
     54 H           2.4053    5.9421   -1.1944 H       1  LIG1        0.0341
     55 H           5.4107    7.0835    1.1326 H       1  LIG1        0.0306
     56 H           3.7962    6.8689    1.8256 H       1  LIG1        0.0306
     57 H           4.0258    7.8962    0.3701 H       1  LIG1        0.0306
@<TRIPOS>BOND
     1     1     2    1
     2     2     3    1
     3     3     4    1
     4     4     5    1
     5     3     6    1
     6     6     7    1
     7     6     8    1
     8     8     9    1
     9     9    10    1
    10     2    10    1
    11    10    11    1
    12    11    12    1
    13    12    13    1
    14    13    14    1
    15    14    15    1
    16    15    16    1
    17    16    17    1
    18    17    18    1
    19    18    19    1
    20    19    20    1
    21    20    21    1
    22    21    22    1
    23    21    23    2
    24     3    24    1
    25     4    25    1
    26     4    26    1
    27     5    27    1
    28     6    28    1
    29     7    29    1
    30     8    30    1
    31     8    31    1
    32     9    32    1
    33     9    33    1
    34    10    34    1
    35    11    35    1
    36    11    36    1
    37    12    37    1
    38    12    38    1
    39    13    39    1
    40    13    40    1
    41    14    41    1
    42    14    42    1
    43    15    43    1
    44    15    44    1
    45    16    45    1
    46    16    46    1
    47    17    47    1
    48    17    48    1
    49    18    49    1
    50    18    50    1
    51    19    51    1
    52    19    52    1
    53    20    53    1
    54    20    54    1
    55    22    55    1
    56    22    56    1
    57    22    57    1
