REMARK  Name = NuBBE_87
REMARK  10 active torsions:
REMARK  status: ('A' for Active; 'I' for Inactive)
REMARK    1  A    between atoms: C_3  and  O_4
REMARK    2  A    between atoms: C_5  and  C_6
REMARK    3  A    between atoms: C_11  and  C_27
REMARK    4  A    between atoms: C_14  and  C_15
REMARK    5  A    between atoms: C_19  and  C_20
REMARK    6  A    between atoms: C_19  and  C_21
REMARK    7  A    between atoms: C_21  and  O_22
REMARK    8  A    between atoms: O_22  and  C_23
REMARK    9  A    between atoms: C_28  and  C_29
REMARK   10  A    between atoms: C_32  and  C_33
REMARK                            x       y       z     vdW  Elec       q    Type
REMARK                         _______ _______ _______ _____ _____    ______ ____
ROOT
ATOM      1  O   LIG A   1      -5.929  -2.469   1.526  0.00  0.00    -0.284 OA
ATOM      2  C   LIG A   1      -4.824  -2.044   1.852  0.00  0.00    +0.221 C 
ATOM      3  C   LIG A   1      -4.017  -2.777   2.864  0.00  0.00    +0.167 C 
ATOM      4  C   LIG A   1      -2.826  -2.299   3.268  0.00  0.00    +0.002 C 
ATOM      5  C   LIG A   1      -1.969  -3.079   4.234  0.00  0.00    +0.048 C 
ATOM      6  C   LIG A   1      -2.326  -1.022   2.709  0.00  0.00    -0.014 C 
ATOM      7  C   LIG A   1      -1.189  -0.467   3.166  0.00  0.00    +0.008 C 
ATOM      8  C   LIG A   1      -0.519   0.633   2.524  0.00  0.00    +0.001 C 
ATOM      9  C   LIG A   1      -1.019   1.271   1.448  0.00  0.00    -0.053 C 
ATOM     10  C   LIG A   1      -0.130   2.149   0.489  0.00  0.00    -0.004 C 
ATOM     11  C   LIG A   1       1.352   2.291   1.027  0.00  0.00    +0.012 C 
ATOM     12  C   LIG A   1       2.376   2.650  -0.046  0.00  0.00    +0.008 C 
ATOM     13  C   LIG A   1       2.525   1.526  -1.101  0.00  0.00    -0.029 C 
ATOM     14  C   LIG A   1       2.933   2.199  -2.438  0.00  0.00    +0.011 C 
ATOM     15  C   LIG A   1       1.232   0.641  -1.141  0.00  0.00    +0.003 C 
ATOM     16  C   LIG A   1       1.324  -0.403  -2.275  0.00  0.00    +0.022 C 
ATOM     17  C   LIG A   1       2.584  -1.310  -2.163  0.00  0.00    +0.065 C 
ATOM     18  C   LIG A   1       2.852  -1.943  -3.550  0.00  0.00    +0.023 C 
ATOM     19  C   LIG A   1       3.876  -0.557  -1.741  0.00  0.00    +0.018 C 
ATOM     20  C   LIG A   1       3.675   0.561  -0.710  0.00  0.00    +0.008 C 
ATOM     21  C   LIG A   1      -0.689   3.597   0.485  0.00  0.00    +0.016 C 
ATOM     22  C   LIG A   1      -0.114   1.462  -0.986  0.00  0.00    -0.020 C 
ATOM     23  C   LIG A   1      -0.262   2.497  -2.131  0.00  0.00    +0.012 C 
ATOM     24  C   LIG A   1      -1.324   0.483  -1.147  0.00  0.00    +0.009 C 
ATOM     25  C   LIG A   1      -2.600   1.019  -0.502  0.00  0.00    +0.016 C 
ATOM     26  C   LIG A   1      -2.496   1.003   1.046  0.00  0.00    +0.015 C 
ATOM     27  C   LIG A   1      -3.405   2.108   1.647  0.00  0.00    +0.021 C 
ATOM     28  C   LIG A   1      -3.053  -0.335   1.624  0.00  0.00    -0.026 C 
ATOM     29  C   LIG A   1      -4.253  -0.826   1.251  0.00  0.00    +0.059 C 
ENDROOT
BRANCH   3  30
ATOM     30  O   LIG A   1      -4.551  -3.961   3.342  0.00  0.00    -0.503 OA
ATOM     31  H   LIG A   1      -5.417  -4.046   2.888  0.00  0.00    +0.292 HD
ENDBRANCH   3  30
BRANCH  17  32
ATOM     32  C   LIG A   1       2.348  -2.437  -1.130  0.00  0.00    +0.313 C 
ATOM     33  O   LIG A   1       2.592  -2.341   0.061  0.00  0.00    -0.250 OA
BRANCH  32  34
ATOM     34  O   LIG A   1       1.893  -3.570  -1.735  0.00  0.00    -0.468 OA
ATOM     35  C   LIG A   1       2.043  -4.791  -1.007  0.00  0.00    +0.280 C 
ENDBRANCH  32  34
ENDBRANCH  17  32
TORSDOF 3
