@<TRIPOS>MOLECULE
NuBBE_2255
 39 41 0 0 0
SMALL
GASTEIGER

@<TRIPOS>ATOM
      1 O          -2.6435   -2.1249    1.4739 O.3     1  LIG1       -0.4942
      2 C          -3.1134   -3.3024    2.1193 C.3     1  LIG1        0.0788
      3 C          -1.3769   -2.1762    0.9587 C.ar    1  LIG1        0.1380
      4 C          -0.6475   -0.9844    0.8964 C.ar    1  LIG1        0.1094
      5 C           0.5636   -0.9272    0.2180 C.ar    1  LIG1        0.1465
      6 O           1.2441    0.2520    0.0493 O.2     1  LIG1       -0.4507
      7 C           0.5158    1.4400    0.1664 C.ar    1  LIG1        0.1808
      8 C          -0.6371    1.5166    0.8726 C.ar    1  LIG1        0.2107
      9 C          -1.0610    0.2574    1.5570 C.ar    1  LIG1        0.2381
     10 O          -1.6681    0.2503    2.6243 O.2     1  LIG1       -0.2830
     11 O          -1.3788    2.6801    0.9898 O.3     1  LIG1       -0.4883
     12 C          -2.7815    2.4829    1.1564 C.3     1  LIG1        0.0791
     13 C           1.1418    2.5632   -0.5885 C.ar    1  LIG1        0.0211
     14 C           1.9130    2.2846   -1.7342 C.ar    1  LIG1       -0.0510
     15 C           2.5070    3.3064   -2.4828 C.ar    1  LIG1       -0.0611
     16 C           2.3439    4.6329   -2.1000 C.ar    1  LIG1       -0.0617
     17 C           1.6080    4.9329   -0.9577 C.ar    1  LIG1       -0.0611
     18 C           1.0240    3.9072   -0.2037 C.ar    1  LIG1       -0.0510
     19 C           1.1210   -2.0772   -0.3327 C.ar    1  LIG1        0.0233
     20 C           0.4270   -3.2833   -0.2491 C.ar    1  LIG1        0.1271
     21 C          -0.8288   -3.3223    0.3737 C.ar    1  LIG1        0.0227
     22 O           0.8495   -4.4813   -0.7579 O.3     1  LIG1       -0.4949
     23 C           2.1325   -4.4934   -1.3733 C.3     1  LIG1        0.0788
     24 H          -4.1107   -3.0879    2.5161 H       1  LIG1        0.0660
     25 H          -2.4638   -3.5704    2.9584 H       1  LIG1        0.0660
     26 H          -3.2213   -4.1380    1.4217 H       1  LIG1        0.0660
     27 H          -3.1826    1.8058    0.3942 H       1  LIG1        0.0660
     28 H          -3.2715    3.4537    1.0380 H       1  LIG1        0.0660
     29 H          -3.0198    2.1267    2.1620 H       1  LIG1        0.0660
     30 H           2.0579    1.2593   -2.0679 H       1  LIG1        0.0625
     31 H           3.0926    3.0629   -3.3657 H       1  LIG1        0.0618
     32 H           2.7929    5.4303   -2.6863 H       1  LIG1        0.0618
     33 H           1.4857    5.9676   -0.6474 H       1  LIG1        0.0618
     34 H           0.4759    4.1856    0.6930 H       1  LIG1        0.0625
     35 H           2.0812   -1.9959   -0.8294 H       1  LIG1        0.0691
     36 H          -1.3698   -4.2634    0.3608 H       1  LIG1        0.0691
     37 H           2.3242   -5.5084   -1.7327 H       1  LIG1        0.0660
     38 H           2.9159   -4.2383   -0.6517 H       1  LIG1        0.0660
     39 H           2.1587   -3.8234   -2.2391 H       1  LIG1        0.0660
@<TRIPOS>BOND
     1     1     2    1
     2     1     3    1
     3     3     4   ar
     4     4     5   ar
     5     5     6   ar
     6     6     7   ar
     7     7     8   ar
     8     8     9   ar
     9     4     9   ar
    10     9    10    2
    11     8    11    1
    12    11    12    1
    13     7    13    1
    14    13    14   ar
    15    14    15   ar
    16    15    16   ar
    17    16    17   ar
    18    17    18   ar
    19    13    18   ar
    20     5    19   ar
    21    19    20   ar
    22    20    21   ar
    23     3    21   ar
    24    20    22    1
    25    22    23    1
    26     2    24    1
    27     2    25    1
    28     2    26    1
    29    12    27    1
    30    12    28    1
    31    12    29    1
    32    14    30    1
    33    15    31    1
    34    16    32    1
    35    17    33    1
    36    18    34    1
    37    19    35    1
    38    21    36    1
    39    23    37    1
    40    23    38    1
    41    23    39    1
