@<TRIPOS>MOLECULE
NuBBE_1399
 61 62 0 0 0
SMALL
GASTEIGER

@<TRIPOS>ATOM
      1 O           3.7399   -0.5151    5.6253 O.2     1  LIG1       -0.2872
      2 C           3.5019    0.4078    4.8169 C.ar    1  LIG1        0.1897
      3 C           3.3246    1.7932    5.2764 C.ar    1  LIG1        0.0450
      4 C           3.2390    2.8008    4.2945 C.ar    1  LIG1        0.0503
      5 N           3.3101    2.4587    2.9480 N.ar    1  LIG1       -0.3577
      6 H           3.7780    3.1608    2.3357 H       1  LIG1        0.1656
      7 C           3.3680    1.1679    2.5133 C.ar    1  LIG1        0.0200
      8 C           3.4142    0.1073    3.3801 C.ar    1  LIG1        0.0049
      9 C           3.3838    0.9132    1.0364 C.3     1  LIG1       -0.0124
     10 C           1.9674    0.8213    0.4872 C.3     1  LIG1       -0.0477
     11 C           1.9952    0.5970   -1.0181 C.3     1  LIG1       -0.0527
     12 C           0.5918    0.4802   -1.5988 C.3     1  LIG1       -0.0530
     13 C          -0.1940    1.7816   -1.4463 C.3     1  LIG1       -0.0531
     14 C          -1.6165    1.8432   -1.9887 C.3     1  LIG1       -0.0531
     15 C          -1.8166    1.5949   -3.4734 C.3     1  LIG1       -0.0531
     16 C          -1.6242    0.1881   -4.0205 C.3     1  LIG1       -0.0531
     17 C          -2.5290   -0.9560   -3.5274 C.3     1  LIG1       -0.0530
     18 C          -2.5050   -1.3876   -2.0483 C.3     1  LIG1       -0.0505
     19 C          -3.4611   -2.5281   -1.6038 C.3     1  LIG1       -0.0245
     20 C          -3.1376   -3.9729   -2.0232 C.3     1  LIG1        0.0605
     21 C          -4.1414   -4.9863   -1.4455 C.3     1  LIG1       -0.0363
     22 C          -3.1422   -4.1552   -3.5350 C.3     1  LIG1       -0.0363
     23 O          -1.8457   -4.3021   -1.5097 O.3     1  LIG1       -0.3891
     24 C           2.9065    4.0976    4.6948 C.ar    1  LIG1       -0.0377
     25 C           2.7520    4.4054    6.0488 C.ar    1  LIG1       -0.0598
     26 C           2.9460    3.4137    7.0159 C.ar    1  LIG1       -0.0610
     27 C           3.2190    2.1062    6.6337 C.ar    1  LIG1       -0.0490
     28 H           3.3777   -0.9196    3.0637 H       1  LIG1        0.0673
     29 H           3.9369   -0.0014    0.7991 H       1  LIG1        0.0328
     30 H           3.9117    1.7363    0.5350 H       1  LIG1        0.0328
     31 H           1.4383    1.7493    0.7296 H       1  LIG1        0.0269
     32 H           1.4150    0.0005    0.9617 H       1  LIG1        0.0269
     33 H           2.5428   -0.3270   -1.2468 H       1  LIG1        0.0265
     34 H           2.5259    1.4175   -1.5167 H       1  LIG1        0.0265
     35 H           0.0710   -0.3468   -1.1081 H       1  LIG1        0.0265
     36 H           0.7425    0.2217   -2.6462 H       1  LIG1        0.0265
     37 H           0.3906    2.6021   -1.8771 H       1  LIG1        0.0265
     38 H          -0.2980    1.9981   -0.3777 H       1  LIG1        0.0265
     39 H          -1.9733    2.8644   -1.7941 H       1  LIG1        0.0265
     40 H          -2.2708    1.2244   -1.3808 H       1  LIG1        0.0265
     41 H          -1.1445    2.2667   -4.0273 H       1  LIG1        0.0265
     42 H          -2.8335    1.9134   -3.7344 H       1  LIG1        0.0265
     43 H          -0.5810   -0.1255   -3.9797 H       1  LIG1        0.0265
     44 H          -1.8134    0.2856   -5.1024 H       1  LIG1        0.0265
     45 H          -2.1917   -1.7871   -4.1433 H       1  LIG1        0.0265
     46 H          -3.5594   -0.7362   -3.8190 H       1  LIG1        0.0265
     47 H          -2.8504   -0.5455   -1.4489 H       1  LIG1        0.0266
     48 H          -1.4856   -1.6243   -1.7316 H       1  LIG1        0.0266
     49 H          -4.4829   -2.2703   -1.9021 H       1  LIG1        0.0293
     50 H          -3.4446   -2.5013   -0.5014 H       1  LIG1        0.0293
     51 H          -5.1249   -4.8969   -1.9213 H       1  LIG1        0.0257
     52 H          -4.2640   -4.8880   -0.3611 H       1  LIG1        0.0257
     53 H          -3.7797   -6.0087   -1.6214 H       1  LIG1        0.0257
     54 H          -4.0791   -3.7912   -3.9764 H       1  LIG1        0.0257
     55 H          -3.0177   -5.2118   -3.7939 H       1  LIG1        0.0257
     56 H          -2.2921   -3.6612   -4.0015 H       1  LIG1        0.0257
     57 H          -1.6815   -5.2434   -1.6953 H       1  LIG1        0.2101
     58 H           2.7219    4.8680    3.9488 H       1  LIG1        0.0638
     59 H           2.4673    5.4101    6.3479 H       1  LIG1        0.0618
     60 H           2.8432    3.6628    8.0723 H       1  LIG1        0.0618
     61 H           3.3596    1.3299    7.3820 H       1  LIG1        0.0625
@<TRIPOS>BOND
     1     1     2    2
     2     2     3   ar
     3     3     4   ar
     4     4     5   ar
     5     5     6    1
     6     5     7   ar
     7     7     8   ar
     8     2     8   ar
     9     7     9    1
    10     9    10    1
    11    10    11    1
    12    11    12    1
    13    12    13    1
    14    13    14    1
    15    14    15    1
    16    15    16    1
    17    16    17    1
    18    17    18    1
    19    18    19    1
    20    19    20    1
    21    20    21    1
    22    20    22    1
    23    20    23    1
    24     4    24   ar
    25    24    25   ar
    26    25    26   ar
    27    26    27   ar
    28     3    27   ar
    29     8    28    1
    30     9    29    1
    31     9    30    1
    32    10    31    1
    33    10    32    1
    34    11    33    1
    35    11    34    1
    36    12    35    1
    37    12    36    1
    38    13    37    1
    39    13    38    1
    40    14    39    1
    41    14    40    1
    42    15    41    1
    43    15    42    1
    44    16    43    1
    45    16    44    1
    46    17    45    1
    47    17    46    1
    48    18    47    1
    49    18    48    1
    50    19    49    1
    51    19    50    1
    52    21    51    1
    53    21    52    1
    54    21    53    1
    55    22    54    1
    56    22    55    1
    57    22    56    1
    58    23    57    1
    59    24    58    1
    60    25    59    1
    61    26    60    1
    62    27    61    1
