@<TRIPOS>MOLECULE
NuBBE_664
 45 47 0 0 0
SMALL
GASTEIGER

@<TRIPOS>ATOM
      1 O          -1.5046    3.2646    2.4796 O.2     1  LIG1       -0.2942
      2 C          -1.4863    2.3809    1.6325 C.2     1  LIG1        0.1678
      3 C          -2.1301    2.4999    0.2780 C.3     1  LIG1        0.0423
      4 C          -1.3589    1.3696   -0.3901 C.3     1  LIG1        0.1094
      5 O          -1.3637    0.3562    0.6348 O.3     1  LIG1       -0.3543
      6 C          -0.7966    1.0251    1.7874 C.3     1  LIG1        0.1288
      7 C          -1.2133    0.3126    3.0571 C.3     1  LIG1       -0.0287
      8 C           0.7280    1.1316    1.5997 C.3     1  LIG1        0.0207
      9 C           1.1244    1.0241    0.1099 C.3     1  LIG1        0.1148
     10 H           2.1260    1.4419   -0.0538 H       1  LIG1        0.0740
     11 O           1.1216   -0.3626   -0.2908 O.3     1  LIG1       -0.4575
     12 C           2.1839   -1.1265    0.0717 C.2     1  LIG1        0.3348
     13 C           1.8942   -2.5551   -0.2507 C.2     1  LIG1        0.0293
     14 C           0.8807   -2.8073   -1.3315 C.3     1  LIG1       -0.0333
     15 C           2.5114   -3.5856    0.3708 C.2     1  LIG1       -0.0774
     16 C           3.5003   -3.5426    1.4911 C.3     1  LIG1       -0.0461
     17 O           3.2124   -0.7051    0.5941 O.2     1  LIG1       -0.2453
     18 C           0.1036    1.8123   -0.7317 C.3     1  LIG1        0.0591
     19 H           0.2423    2.8760   -0.4883 H       1  LIG1        0.0397
     20 C           0.2394    1.6409   -2.2486 C.3     1  LIG1        0.0829
     21 H           1.1315    1.0885   -2.5556 H       1  LIG1        0.0643
     22 O           0.2321    2.9123   -2.8849 O.3     1  LIG1       -0.3872
     23 C          -1.0142    0.9599   -2.6656 C.2     1  LIG1       -0.0513
     24 C          -1.8936    0.8043   -1.6660 C.2     1  LIG1       -0.0136
     25 C          -3.2358    0.1675   -1.7960 C.3     1  LIG1        0.0680
     26 O          -3.3425   -0.9702   -0.9559 O.3     1  LIG1       -0.3906
     27 H          -1.9648    3.4791   -0.1761 H       1  LIG1        0.0374
     28 H          -3.1974    2.2865    0.3850 H       1  LIG1        0.0374
     29 H          -2.3048    0.2799    3.1472 H       1  LIG1        0.0262
     30 H          -0.8141    0.8111    3.9462 H       1  LIG1        0.0262
     31 H          -0.8670   -0.7266    3.0496 H       1  LIG1        0.0262
     32 H           1.2251    0.3365    2.1673 H       1  LIG1        0.0333
     33 H           1.0865    2.0841    2.0091 H       1  LIG1        0.0333
     34 H          -0.1076   -2.4487   -1.0254 H       1  LIG1        0.0280
     35 H           0.7811   -3.8733   -1.5635 H       1  LIG1        0.0280
     36 H           1.1738   -2.2964   -2.2543 H       1  LIG1        0.0280
     37 H           2.2580   -4.5958    0.0546 H       1  LIG1        0.0574
     38 H           3.3820   -2.6676    2.1340 H       1  LIG1        0.0272
     39 H           4.5213   -3.5782    1.1004 H       1  LIG1        0.0272
     40 H           3.3582   -4.4238    2.1282 H       1  LIG1        0.0272
     41 H           1.0994    3.3244   -2.7341 H       1  LIG1        0.2102
     42 H          -1.1858    0.6485   -3.6875 H       1  LIG1        0.0599
     43 H          -4.0309    0.8720   -1.5363 H       1  LIG1        0.0605
     44 H          -3.4148   -0.1664   -2.8241 H       1  LIG1        0.0605
     45 H          -2.8905   -0.7589   -0.1172 H       1  LIG1        0.2098
@<TRIPOS>BOND
     1     2     3    1
     2     3     4    1
     3     4     5    1
     4     5     6    1
     5     2     6    1
     6     6     8    1
     7     8     9    1
     8    11    12    1
     9    12    13    1
    10    13    14    1
    11    13    15    2
    12    15    16    1
    13    12    17    2
    14     9    18    1
    15     4    18    1
    16    18    20    1
    17    20    23    1
    18    23    24    2
    19     4    24    1
    20    25    26    1
    21     1     2    2
    22     6     7    1
    23     9    10    1
    24     9    11    1
    25    18    19    1
    26    20    21    1
    27    20    22    1
    28    24    25    1
    29     3    27    1
    30     3    28    1
    31     7    29    1
    32     7    30    1
    33     7    31    1
    34     8    32    1
    35     8    33    1
    36    14    34    1
    37    14    35    1
    38    14    36    1
    39    15    37    1
    40    16    38    1
    41    16    39    1
    42    16    40    1
    43    22    41    1
    44    23    42    1
    45    25    43    1
    46    25    44    1
    47    26    45    1
