REMARK  Name = NuBBE_1873
REMARK  12 active torsions:
REMARK  status: ('A' for Active; 'I' for Inactive)
REMARK    1  A    between atoms: C_4  and  O_28
REMARK    2  A    between atoms: C_5  and  O_6
REMARK    3  A    between atoms: O_6  and  C_7
REMARK    4  A    between atoms: C_8  and  O_26
REMARK    5  A    between atoms: C_12  and  C_13
REMARK    6  A    between atoms: C_14  and  O_15
REMARK    7  A    between atoms: C_17  and  O_21
REMARK    8  A    between atoms: C_18  and  O_19
REMARK    9  A    between atoms: O_21  and  C_22
REMARK   10  A    between atoms: C_23  and  O_24
REMARK   11  A    between atoms: O_24  and  C_25
REMARK   12  A    between atoms: O_26  and  C_27
REMARK                            x       y       z     vdW  Elec       q    Type
REMARK                         _______ _______ _______ _____ _____    ______ ____
ROOT
ATOM      1  O   LIG A   1      -3.071  -0.810   0.219  0.00  0.00    -0.283 OA
ATOM      2  C   LIG A   1      -1.866  -0.594   0.097  0.00  0.00    +0.238 A 
ATOM      3  C   LIG A   1      -0.980  -1.739  -0.054  0.00  0.00    +0.113 A 
ATOM      4  C   LIG A   1      -1.469  -3.048  -0.264  0.00  0.00    +0.177 A 
ATOM      5  C   LIG A   1      -0.591  -4.129  -0.439  0.00  0.00    +0.204 A 
ATOM      6  C   LIG A   1       0.795  -3.884  -0.332  0.00  0.00    +0.169 A 
ATOM      7  C   LIG A   1       1.263  -2.577  -0.092  0.00  0.00    +0.096 A 
ATOM      8  C   LIG A   1       0.388  -1.504   0.036  0.00  0.00    +0.147 A 
ATOM      9  O   LIG A   1       0.915  -0.258   0.251  0.00  0.00    -0.451 OA
ATOM     10  C   LIG A   1       0.077   0.841   0.198  0.00  0.00    +0.184 A 
ATOM     11  C   LIG A   1      -1.280   0.770   0.102  0.00  0.00    +0.211 A 
ENDROOT
BRANCH  10  12
ATOM     12  C   LIG A   1       0.775   2.135   0.325  0.00  0.00    +0.066 A 
ATOM     13  C   LIG A   1       1.123   2.682   1.577  0.00  0.00    +0.131 A 
ATOM     14  C   LIG A   1       1.700   3.955   1.697  0.00  0.00    +0.095 A 
ATOM     15  C   LIG A   1       1.968   4.703   0.555  0.00  0.00    +0.165 A 
ATOM     16  C   LIG A   1       1.693   4.135  -0.694  0.00  0.00    +0.159 A 
ATOM     17  C   LIG A   1       1.102   2.876  -0.821  0.00  0.00    +0.064 A 
BRANCH  13  18
ATOM     18  O   LIG A   1       0.934   2.007   2.755  0.00  0.00    -0.506 OA
ATOM     19  H   LIG A   1       0.715   1.082   2.554  0.00  0.00    +0.292 HD
ENDBRANCH  13  18
BRANCH  16  20
ATOM     20  O   LIG A   1       1.988   4.834  -1.835  0.00  0.00    -0.503 OA
ATOM     21  H   LIG A   1       2.376   5.676  -1.523  0.00  0.00    +0.292 HD
ENDBRANCH  16  20
BRANCH  15  22
ATOM     22  O   LIG A   1       2.534   5.952   0.530  0.00  0.00    -0.491 OA
ATOM     23  C   LIG A   1       2.256   6.782   1.656  0.00  0.00    +0.277 C 
ENDBRANCH  15  22
ENDBRANCH  10  12
BRANCH   5  24
ATOM     24  O   LIG A   1      -1.006  -5.421  -0.646  0.00  0.00    -0.488 OA
ATOM     25  C   LIG A   1      -2.196  -5.617  -1.408  0.00  0.00    +0.277 C 
ENDBRANCH   5  24
BRANCH  11  26
ATOM     26  O   LIG A   1      -2.062   1.914   0.065  0.00  0.00    -0.488 OA
ATOM     27  C   LIG A   1      -3.302   1.779  -0.643  0.00  0.00    +0.277 C 
ENDBRANCH  11  26
BRANCH   6  28
ATOM     28  O   LIG A   1       1.835  -4.768  -0.458  0.00  0.00    -0.491 OA
ATOM     29  C   LIG A   1       1.566  -6.157  -0.577  0.00  0.00    +0.277 C 
ENDBRANCH   6  28
BRANCH   4  30
ATOM     30  O   LIG A   1      -2.830  -3.272  -0.284  0.00  0.00    -0.503 OA
ATOM     31  H   LIG A   1      -3.302  -2.440  -0.074  0.00  0.00    +0.292 HD
ENDBRANCH   4  30
TORSDOF 8
