REMARK  Name = NuBBE_83
REMARK  12 active torsions:
REMARK  status: ('A' for Active; 'I' for Inactive)
REMARK    1  A    between atoms: C_1  and  C_2
REMARK    2  A    between atoms: C_4  and  C_6
REMARK    3  A    between atoms: C_7  and  C_9
REMARK    4  A    between atoms: C_11  and  O_12
REMARK    5  A    between atoms: O_12  and  C_13
REMARK    6  A    between atoms: C_21  and  C_23
REMARK    7  A    between atoms: C_25  and  O_26
REMARK    8  A    between atoms: O_26  and  C_27
REMARK    9  A    between atoms: C_28  and  O_29
REMARK   10  A    between atoms: O_29  and  C_30
REMARK   11  A    between atoms: C_31  and  O_32
REMARK   12  A    between atoms: O_32  and  C_33
REMARK                            x       y       z     vdW  Elec       q    Type
REMARK                         _______ _______ _______ _____ _____    ______ ____
ROOT
ATOM      1  C   LIG A   1      -0.132  -0.728  -3.599  0.00  0.00    +0.011 C 
ATOM      2  C   LIG A   1       0.996  -0.782  -2.579  0.00  0.00    +0.025 C 
ATOM      3  C   LIG A   1       1.322   0.550  -1.906  0.00  0.00    +0.025 C 
ATOM      4  C   LIG A   1       1.989   1.541  -2.845  0.00  0.00    +0.011 C 
ATOM      5  C   LIG A   1       2.189   0.086  -0.730  0.00  0.00    +0.152 C 
ATOM      6  O   LIG A   1       1.628  -1.185  -0.320  0.00  0.00    -0.364 OA
ATOM      7  C   LIG A   1       0.824  -1.733  -1.391  0.00  0.00    +0.152 C 
ENDROOT
BRANCH   5   8
ATOM      8  C   LIG A   1       2.242   1.054   0.439  0.00  0.00    -0.011 A 
ATOM      9  C   LIG A   1       3.241   2.062   0.506  0.00  0.00    +0.056 A 
ATOM     10  C   LIG A   1       3.303   2.980   1.573  0.00  0.00    +0.166 A 
ATOM     11  C   LIG A   1       2.349   2.875   2.561  0.00  0.00    +0.207 A 
ATOM     12  O   LIG A   1       2.195   3.652   3.673  0.00  0.00    -0.449 OA
ATOM     13  C   LIG A   1       1.055   3.056   4.309  0.00  0.00    +0.467 C 
ATOM     14  O   LIG A   1       0.528   1.933   3.577  0.00  0.00    -0.453 OA
ATOM     15  C   LIG A   1       1.381   1.894   2.513  0.00  0.00    +0.170 A 
ATOM     16  C   LIG A   1       1.309   0.979   1.483  0.00  0.00    +0.056 A 
BRANCH  10  17
ATOM     17  O   LIG A   1       4.327   3.891   1.505  0.00  0.00    -0.491 OA
ATOM     18  C   LIG A   1       4.443   4.800   2.591  0.00  0.00    +0.277 C 
ENDBRANCH  10  17
ENDBRANCH   5   8
BRANCH   7  19
ATOM     19  C   LIG A   1      -0.580  -1.982  -0.874  0.00  0.00    -0.011 A 
ATOM     20  C   LIG A   1      -1.106  -3.278  -0.857  0.00  0.00    +0.056 A 
ATOM     21  C   LIG A   1      -2.363  -3.550  -0.293  0.00  0.00    +0.166 A 
ATOM     22  C   LIG A   1      -3.143  -2.494   0.238  0.00  0.00    +0.203 A 
ATOM     23  C   LIG A   1      -2.639  -1.185   0.187  0.00  0.00    +0.166 A 
ATOM     24  C   LIG A   1      -1.370  -0.951  -0.358  0.00  0.00    +0.056 A 
BRANCH  21  25
ATOM     25  O   LIG A   1      -2.902  -4.816  -0.225  0.00  0.00    -0.491 OA
ATOM     26  C   LIG A   1      -2.129  -5.881  -0.768  0.00  0.00    +0.277 C 
ENDBRANCH  21  25
BRANCH  22  27
ATOM     27  O   LIG A   1      -4.348  -2.873   0.783  0.00  0.00    -0.488 OA
ATOM     28  C   LIG A   1      -5.372  -1.892   0.879  0.00  0.00    +0.277 C 
ENDBRANCH  22  27
BRANCH  23  29
ATOM     29  O   LIG A   1      -3.338  -0.146   0.754  0.00  0.00    -0.491 OA
ATOM     30  C   LIG A   1      -3.297   1.071   0.010  0.00  0.00    +0.277 C 
ENDBRANCH  23  29
ENDBRANCH   7  19
TORSDOF 6
