REMARK  Name = NuBBE_1508
REMARK  7 active torsions:
REMARK  status: ('A' for Active; 'I' for Inactive)
REMARK    1  A    between atoms: O_1  and  C_2
REMARK    2  A    between atoms: O_1  and  C_5
REMARK    3  A    between atoms: C_2  and  C_4
REMARK    4  A    between atoms: C_16  and  C_19
REMARK    5  A    between atoms: C_29  and  O_31
REMARK    6  A    between atoms: O_31  and  C_32
REMARK    7  A    between atoms: C_32  and  C_34
REMARK                            x       y       z     vdW  Elec       q    Type
REMARK                         _______ _______ _______ _____ _____    ______ ____
ROOT
ATOM      1  C   LIG A   1       0.273   1.852   2.227  0.00  0.00    +0.253 C 
ATOM      2  C   LIG A   1       0.481   0.381   1.802  0.00  0.00    +0.092 C 
ATOM      3  C   LIG A   1       0.531   0.548   0.279  0.00  0.00    +0.006 C 
ATOM      4  C   LIG A   1       1.472   1.777   0.235  0.00  0.00    +0.172 C 
ATOM      5  O   LIG A   1       1.288   2.525   1.445  0.00  0.00    -0.336 OA
ATOM      6  C   LIG A   1       1.154  -0.631  -0.517  0.00  0.00    +0.001 C 
ATOM      7  C   LIG A   1       0.327  -1.927  -0.373  0.00  0.00    -0.003 C 
ATOM      8  C   LIG A   1       0.893  -3.092  -1.258  0.00  0.00    +0.006 C 
ATOM      9  C   LIG A   1       1.309  -2.717  -2.705  0.00  0.00    -0.022 C 
ATOM     10  C   LIG A   1       2.027  -1.367  -2.796  0.00  0.00    +0.007 C 
ATOM     11  C   LIG A   1       1.389  -0.249  -1.994  0.00  0.00    +0.005 C 
ATOM     12  C   LIG A   1       2.278  -3.768  -3.307  0.00  0.00    +0.012 C 
ATOM     13  C   LIG A   1      -0.021  -2.777  -3.478  0.00  0.00    +0.081 C 
ATOM     14  C   LIG A   1      -0.742  -3.900  -2.765  0.00  0.00    +0.134 C 
ATOM     15  O   LIG A   1      -1.748  -4.447  -3.197  0.00  0.00    -0.297 OA
ATOM     16  C   LIG A   1      -0.082  -4.265  -1.453  0.00  0.00    +0.078 C 
ATOM     17  C   LIG A   1      -1.199  -1.666  -0.382  0.00  0.00    +0.004 C 
ATOM     18  C   LIG A   1      -1.634  -0.300  -0.899  0.00  0.00    +0.004 C 
ATOM     19  C   LIG A   1      -0.910   0.890  -0.239  0.00  0.00    +0.002 C 
ATOM     20  C   LIG A   1      -1.833   1.450   0.866  0.00  0.00    +0.055 C 
ATOM     21  C   LIG A   1      -1.115   2.429   1.789  0.00  0.00    +0.248 C 
ENDROOT
BRANCH   1  22
ATOM     22  O   LIG A   1       0.554   2.045   3.619  0.00  0.00    -0.429 OA
BRANCH  22  23
ATOM     23  C   LIG A   1      -0.338   1.525   4.501  0.00  0.00    +0.306 C 
ATOM     24  O   LIG A   1      -1.360   0.919   4.207  0.00  0.00    -0.251 OA
ATOM     25  C   LIG A   1       0.119   1.752   5.906  0.00  0.00    +0.136 C 
ENDBRANCH  22  23
ENDBRANCH   1  22
BRANCH  21  26
ATOM     26  O   LIG A   1      -1.014   3.650   1.021  0.00  0.00    -0.455 OA
BRANCH  26  27
ATOM     27  C   LIG A   1      -1.514   4.767   1.615  0.00  0.00    +0.304 C 
ATOM     28  O   LIG A   1      -1.698   4.925   2.805  0.00  0.00    -0.251 OA
ATOM     29  C   LIG A   1      -1.993   5.702   0.544  0.00  0.00    +0.136 C 
ENDBRANCH  26  27
ENDBRANCH  21  26
TORSDOF 4
