@<TRIPOS>MOLECULE
NuBBE_1512
 59 62 0 0 0
SMALL
GASTEIGER

@<TRIPOS>ATOM
      1 C          -2.8030   -1.7627   -0.9725 C.3     1  LIG1       -0.0589
      2 C          -1.2515   -1.7260   -0.7607 C.3     1  LIG1       -0.0213
      3 C          -0.7513   -0.2738   -1.1118 C.3     1  LIG1       -0.0321
      4 H          -1.0473   -0.0781   -2.1542 H       1  LIG1        0.0309
      5 C          -1.4582    0.8109   -0.2551 C.3     1  LIG1       -0.0340
      6 H          -2.4941    0.8548   -0.6270 H       1  LIG1        0.0307
      7 C          -0.9524    2.2595   -0.5686 C.3     1  LIG1       -0.0252
      8 H          -1.4327    2.5391   -1.5176 H       1  LIG1        0.0313
      9 C           0.5816    2.4350   -0.7231 C.3     1  LIG1       -0.0191
     10 C           1.2205    1.2764   -1.5022 C.3     1  LIG1       -0.0464
     11 C           0.7761   -0.1127   -1.0705 C.3     1  LIG1       -0.0489
     12 C           0.8953    3.7319   -1.5204 C.3     1  LIG1       -0.0586
     13 C           1.0589    2.5507    0.7529 C.3     1  LIG1        0.0229
     14 H           1.0461    1.5650    1.2284 H       1  LIG1        0.0383
     15 C          -0.0946    3.3490    1.3560 C.2     1  LIG1        0.1372
     16 O          -0.0454    3.9503    2.4219 O.2     1  LIG1       -0.2971
     17 C          -1.3348    3.3063    0.4889 C.3     1  LIG1        0.0097
     18 C           2.4267    3.2049    0.9603 C.3     1  LIG1       -0.0459
     19 C           3.0069    2.9057    2.3379 C.3     1  LIG1       -0.0646
     20 C          -1.6352    0.3958    1.2255 C.3     1  LIG1       -0.0493
     21 C          -0.8776   -0.8477    1.6672 C.3     1  LIG1       -0.0470
     22 C          -0.9729   -2.0830    0.7388 C.3     1  LIG1       -0.0067
     23 H          -1.8367   -2.6595    1.1030 H       1  LIG1        0.0332
     24 C           0.2726   -2.9632    1.0080 C.3     1  LIG1        0.0868
     25 H           1.1832   -2.3533    0.9933 H       1  LIG1        0.0623
     26 O           0.1503   -3.5186    2.3267 O.3     1  LIG1       -0.3889
     27 C           0.4344   -4.1137    0.0230 C.3     1  LIG1        0.1071
     28 H           1.3187   -4.7123    0.2696 H       1  LIG1        0.0645
     29 C           0.5427   -3.5566   -1.3890 C.3     1  LIG1        0.0840
     30 H           1.4340   -2.9302   -1.4743 H       1  LIG1        0.0620
     31 C          -0.7108   -2.7805   -1.7823 C.3     1  LIG1       -0.0183
     32 O           0.7115   -4.6410   -2.3075 O.3     1  LIG1       -0.3891
     33 O          -0.6807   -5.0142    0.1087 O.3     1  LIG1       -0.3867
     34 H          -3.3514   -1.1399   -0.2624 H       1  LIG1        0.0235
     35 H          -3.1941   -2.7793   -0.8413 H       1  LIG1        0.0235
     36 H          -3.0684   -1.4349   -1.9843 H       1  LIG1        0.0235
     37 H           2.3140    1.3344   -1.4379 H       1  LIG1        0.0271
     38 H           0.9770    1.3824   -2.5686 H       1  LIG1        0.0271
     39 H           1.1872   -0.3295   -0.0838 H       1  LIG1        0.0268
     40 H           1.2413   -0.8200   -1.7626 H       1  LIG1        0.0268
     41 H           0.3942    3.7204   -2.4954 H       1  LIG1        0.0235
     42 H           1.9699    3.8305   -1.7110 H       1  LIG1        0.0235
     43 H           0.5733    4.6387   -0.9990 H       1  LIG1        0.0235
     44 H          -1.4750    4.2932    0.0368 H       1  LIG1        0.0345
     45 H          -2.2269    3.0463    1.0618 H       1  LIG1        0.0345
     46 H           3.1376    2.8324    0.2144 H       1  LIG1        0.0269
     47 H           2.3616    4.2924    0.8384 H       1  LIG1        0.0269
     48 H           3.1247    1.8273    2.4862 H       1  LIG1        0.0230
     49 H           2.3715    3.2947    3.1382 H       1  LIG1        0.0230
     50 H           3.9939    3.3686    2.4382 H       1  LIG1        0.0230
     51 H          -2.7039    0.2186    1.4065 H       1  LIG1        0.0268
     52 H          -1.3747    1.1948    1.9216 H       1  LIG1        0.0268
     53 H          -1.2301   -1.1328    2.6677 H       1  LIG1        0.0269
     54 H           0.1700   -0.5618    1.8154 H       1  LIG1        0.0269
     55 H           1.0214   -3.8739    2.5796 H       1  LIG1        0.2099
     56 H          -1.4912   -3.5270   -1.9904 H       1  LIG1        0.0296
     57 H          -0.5466   -2.3101   -2.7614 H       1  LIG1        0.0296
     58 H           0.0513   -5.3124   -2.0398 H       1  LIG1        0.2099
     59 H          -0.9070   -5.0609    1.0598 H       1  LIG1        0.2100
@<TRIPOS>BOND
     1     2     3    1
     2     3     5    1
     3     5     7    1
     4     7     9    1
     5     9    10    1
     6    10    11    1
     7     3    11    1
     8     9    13    1
     9    13    15    1
    10    15    17    1
    11     7    17    1
    12    18    19    1
    13     5    20    1
    14    20    21    1
    15    21    22    1
    16     2    22    1
    17    22    24    1
    18    24    27    1
    19    27    29    1
    20    29    31    1
    21     2    31    1
    22     1     2    1
    23     3     4    1
    24     5     6    1
    25     7     8    1
    26     9    12    1
    27    15    16    2
    28    22    23    1
    29    27    28    1
    30    27    33    1
    31    13    18    1
    32    13    14    1
    33    24    26    1
    34    24    25    1
    35    29    32    1
    36    29    30    1
    37     1    34    1
    38     1    35    1
    39     1    36    1
    40    10    37    1
    41    10    38    1
    42    11    39    1
    43    11    40    1
    44    12    41    1
    45    12    42    1
    46    12    43    1
    47    17    44    1
    48    17    45    1
    49    18    46    1
    50    18    47    1
    51    19    48    1
    52    19    49    1
    53    19    50    1
    54    20    51    1
    55    20    52    1
    56    21    53    1
    57    21    54    1
    58    26    55    1
    59    31    56    1
    60    31    57    1
    61    32    58    1
    62    33    59    1
