REMARK  Name = NuBBE_1945
REMARK  3 active torsions:
REMARK  status: ('A' for Active; 'I' for Inactive)
REMARK    1  A    between atoms: C_1  and  C_2
REMARK    2  A    between atoms: C_11  and  C_15
REMARK    3  A    between atoms: C_11  and  C_16
REMARK                            x       y       z     vdW  Elec       q    Type
REMARK                         _______ _______ _______ _____ _____    ______ ____
ROOT
ATOM      1  C   LIG A   1      -2.716  -0.745  -0.449  0.00  0.00    +0.012 C 
ATOM      2  C   LIG A   1      -1.201  -0.690  -0.152  0.00  0.00    -0.022 C 
ATOM      3  C   LIG A   1      -0.767   0.699   0.519  0.00  0.00    +0.025 C 
ATOM      4  C   LIG A   1       0.654   0.462  -0.115  0.00  0.00    +0.006 C 
ATOM      5  C   LIG A   1      -0.175  -0.260  -1.279  0.00  0.00    +0.000 C 
ATOM      6  C   LIG A   1      -0.771   0.725  -2.303  0.00  0.00    +0.009 C 
ATOM      7  C   LIG A   1      -1.096   2.071  -1.634  0.00  0.00    +0.031 C 
ATOM      8  C   LIG A   1      -1.408   1.906  -0.157  0.00  0.00    -0.073 C 
ATOM      9  C   LIG A   1      -2.228   2.716   0.515  0.00  0.00    +0.008 C 
ATOM     10  C   LIG A   1       1.801  -0.186   0.695  0.00  0.00    -0.031 C 
ATOM     11  C   LIG A   1       1.413  -1.491   1.402  0.00  0.00    +0.007 C 
ATOM     12  C   LIG A   1       0.604  -2.450   0.559  0.00  0.00    +0.001 C 
ATOM     13  C   LIG A   1      -0.863  -2.049   0.513  0.00  0.00    +0.007 C 
ATOM     14  C   LIG A   1       2.270   0.795   1.794  0.00  0.00    +0.011 C 
ATOM     15  C   LIG A   1       2.981  -0.406  -0.273  0.00  0.00    +0.011 C 
ENDROOT
TORSDOF 0
