REMARK  Name = NuBBE_1852
REMARK  7 active torsions:
REMARK  status: ('A' for Active; 'I' for Inactive)
REMARK    1  A    between atoms: C_2  and  C_3
REMARK    2  A    between atoms: C_3  and  C_4
REMARK    3  A    between atoms: C_7  and  C_9
REMARK    4  A    between atoms: C_10  and  C_12
REMARK    5  A    between atoms: C_23  and  O_24
REMARK    6  A    between atoms: O_24  and  C_25
REMARK    7  A    between atoms: C_26  and  O_27
REMARK                            x       y       z     vdW  Elec       q    Type
REMARK                         _______ _______ _______ _____ _____    ______ ____
ROOT
ATOM      1  C   LIG A   1      -1.447   1.214   1.062  0.00  0.00    +0.043 A 
ATOM      2  C   LIG A   1      -0.702   0.044   1.051  0.00  0.00    +0.132 A 
ATOM      3  C   LIG A   1       0.645   0.007   1.403  0.00  0.00    +0.005 A 
ATOM      4  C   LIG A   1       1.123  -1.402   1.333  0.00  0.00    +0.065 C 
ATOM      5  C   LIG A   1       2.554  -1.609   0.866  0.00  0.00    +0.016 C 
ATOM      6  C   LIG A   1      -0.003  -2.006   0.457  0.00  0.00    +0.211 C 
ATOM      7  O   LIG A   1      -1.190  -1.182   0.656  0.00  0.00    -0.483 OA
ATOM      8  C   LIG A   1       1.312   1.156   1.800  0.00  0.00    +0.057 A 
ATOM      9  C   LIG A   1       0.598   2.355   1.834  0.00  0.00    +0.162 A 
ATOM     10  C   LIG A   1      -0.769   2.367   1.472  0.00  0.00    +0.166 A 
ENDROOT
BRANCH   6  11
ATOM     11  C   LIG A   1       0.283  -2.167  -1.034  0.00  0.00    -0.003 A 
ATOM     12  C   LIG A   1       0.860  -3.373  -1.506  0.00  0.00    +0.011 A 
ATOM     13  C   LIG A   1       1.132  -3.566  -2.866  0.00  0.00    +0.050 A 
ATOM     14  C   LIG A   1       0.815  -2.546  -3.735  0.00  0.00    +0.166 A 
ATOM     15  O   LIG A   1       0.993  -2.560  -5.083  0.00  0.00    -0.453 OA
ATOM     16  C   LIG A   1       0.463  -1.266  -5.439  0.00  0.00    +0.466 C 
ATOM     17  O   LIG A   1       0.018  -0.495  -4.305  0.00  0.00    -0.453 OA
ATOM     18  C   LIG A   1       0.260  -1.371  -3.293  0.00  0.00    +0.167 A 
ATOM     19  C   LIG A   1      -0.011  -1.149  -1.960  0.00  0.00    +0.056 A 
ENDBRANCH   6  11
BRANCH   9  20
ATOM     20  O   LIG A   1       1.107   3.578   2.200  0.00  0.00    -0.491 OA
ATOM     21  C   LIG A   1       2.491   3.614   2.533  0.00  0.00    +0.277 C 
ENDBRANCH   9  20
BRANCH  10  22
ATOM     22  O   LIG A   1      -1.446   3.562   1.518  0.00  0.00    -0.503 OA
ATOM     23  H   LIG A   1      -0.799   4.206   1.864  0.00  0.00    +0.292 HD
ENDBRANCH  10  22
BRANCH   1  24
ATOM     24  C   LIG A   1      -2.892   1.233   0.640  0.00  0.00    +0.069 C 
BRANCH  24  26
ATOM     25  C   LIG A   1      -4.792   1.881   2.154  0.00  0.00    +0.004 C 
ATOM     26  C   LIG A   1      -3.846   1.011   1.784  0.00  0.00    -0.030 C 
ENDBRANCH  24  26
ENDBRANCH   1  24
TORSDOF 5
