REMARK  Name = NuBBE_2376
REMARK  7 active torsions:
REMARK  status: ('A' for Active; 'I' for Inactive)
REMARK    1  A    between atoms: C_1  and  C_22
REMARK    2  A    between atoms: C_1  and  C_23
REMARK    3  A    between atoms: C_9  and  C_10
REMARK    4  A    between atoms: C_10  and  C_11
REMARK    5  A    between atoms: C_10  and  C_12
REMARK    6  A    between atoms: C_13  and  O_16
REMARK    7  A    between atoms: C_14  and  O_15
REMARK                            x       y       z     vdW  Elec       q    Type
REMARK                         _______ _______ _______ _____ _____    ______ ____
ROOT
ATOM      1  C   LIG A   1       3.000  -0.956   0.551  0.00  0.00    -0.032 C 
ATOM      2  C   LIG A   1       1.681  -0.523  -0.202  0.00  0.00    -0.002 C 
ATOM      3  C   LIG A   1       1.908   0.742  -1.090  0.00  0.00    -0.003 C 
ATOM      4  C   LIG A   1       0.673   1.269  -1.861  0.00  0.00    +0.043 C 
ATOM      5  C   LIG A   1      -0.651   1.003  -1.191  0.00  0.00    +0.001 A 
ATOM      6  C   LIG A   1      -1.135  -0.316  -1.122  0.00  0.00    -0.040 A 
ATOM      7  C   LIG A   1      -2.372  -0.582  -0.508  0.00  0.00    +0.011 A 
ATOM      8  C   LIG A   1      -3.160   0.444   0.050  0.00  0.00    +0.001 A 
ATOM      9  C   LIG A   1      -2.633   1.742   0.015  0.00  0.00    +0.162 A 
ATOM     10  C   LIG A   1      -1.409   2.015  -0.609  0.00  0.00    +0.162 A 
ATOM     11  C   LIG A   1      -0.308  -1.437  -1.699  0.00  0.00    +0.036 C 
ATOM     12  C   LIG A   1       1.003  -1.707  -0.945  0.00  0.00    +0.009 C 
ATOM     13  C   LIG A   1       2.491   1.892  -0.244  0.00  0.00    +0.004 C 
ATOM     14  C   LIG A   1       3.776   1.493   0.465  0.00  0.00    +0.001 C 
ATOM     15  C   LIG A   1       3.570   0.258   1.329  0.00  0.00    +0.007 C 
ATOM     16  C   LIG A   1       4.078  -1.506  -0.408  0.00  0.00    +0.011 C 
ATOM     17  C   LIG A   1       2.704  -2.059   1.594  0.00  0.00    +0.011 C 
ENDROOT
BRANCH   8  18
ATOM     18  C   LIG A   1      -4.510   0.127   0.674  0.00  0.00    +0.017 C 
ATOM     19  C   LIG A   1      -4.331  -0.361   2.113  0.00  0.00    +0.012 C 
ATOM     20  C   LIG A   1      -5.343  -0.877  -0.134  0.00  0.00    +0.012 C 
ENDBRANCH   8  18
BRANCH  10  21
ATOM     21  O   LIG A   1      -0.957   3.308  -0.620  0.00  0.00    -0.503 OA
ATOM     22  H   LIG A   1      -1.666   3.812  -0.175  0.00  0.00    +0.292 HD
ENDBRANCH  10  21
BRANCH   9  23
ATOM     23  O   LIG A   1      -3.252   2.825   0.589  0.00  0.00    -0.503 OA
ATOM     24  H   LIG A   1      -3.877   2.501   1.257  0.00  0.00    +0.292 HD
ENDBRANCH   9  23
TORSDOF 3
