@<TRIPOS>MOLECULE
NuBBE_92
 147 157 0 0 0
SMALL
GASTEIGER

@<TRIPOS>ATOM
      1 O          -2.2582    1.1765   -4.8292 O.2     1  LIG1       -0.2873
      2 C          -1.3777    0.3492   -4.6407 C.2     1  LIG1        0.1867
      3 C          -1.2429   -0.7822   -5.5758 C.2     1  LIG1       -0.0137
      4 C          -0.0683   -1.4190   -5.7565 C.2     1  LIG1       -0.0493
      5 C           0.0604   -2.5096   -6.8551 C.3     1  LIG1       -0.0042
      6 C           0.4178   -1.7032   -8.1489 C.3     1  LIG1       -0.0553
      7 C          -1.2815   -3.2606   -7.1706 C.3     1  LIG1       -0.0429
      8 C          -1.1798   -4.3283   -8.2736 C.3     1  LIG1       -0.0465
      9 C          -0.0261   -5.3463   -8.1104 C.3     1  LIG1       -0.0286
     10 C          -0.4957   -6.4771   -7.1587 C.3     1  LIG1       -0.0593
     11 C           0.2291   -6.0142   -9.4923 C.3     1  LIG1       -0.0464
     12 C           1.4005   -6.9994   -9.4709 C.3     1  LIG1       -0.0370
     13 C           2.7106   -6.3992   -8.9326 C.3     1  LIG1        0.0653
     14 C           3.3879   -5.5248  -10.0056 C.2     1  LIG1        0.3128
     15 O           2.6267   -4.4542  -10.3350 O.3     1  LIG1       -0.4675
     16 C           3.3342   -3.3392  -10.8626 C.3     1  LIG1        0.0817
     17 O           4.5187   -5.7138  -10.4527 O.2     1  LIG1       -0.2502
     18 C           3.6840   -7.5569   -8.6129 C.3     1  LIG1       -0.0494
     19 C           2.4982   -5.5797   -7.6240 C.3     1  LIG1       -0.0336
     20 C           1.2914   -4.6089   -7.6726 C.3     1  LIG1       -0.0284
     21 H           1.5362   -3.9397   -8.4959 H       1  LIG1        0.0312
     22 C           1.1350   -3.6079   -6.4562 C.3     1  LIG1       -0.0196
     23 C           0.7417   -4.3823   -5.1672 C.3     1  LIG1       -0.0585
     24 C           2.4686   -2.8754   -6.1294 C.3     1  LIG1       -0.0455
     25 C           2.3387   -1.9463   -4.9145 C.3     1  LIG1       -0.0393
     26 C           1.1810   -0.9098   -4.9807 C.3     1  LIG1        0.0156
     27 C           1.7601    0.3439   -5.7028 C.3     1  LIG1       -0.0517
     28 C           0.7382   -0.4098   -3.5704 C.ar    1  LIG1       -0.0227
     29 C           1.4799   -0.6237   -2.3891 C.ar    1  LIG1       -0.0114
     30 C           1.0227   -0.1325   -1.1626 C.ar    1  LIG1        0.1669
     31 C          -0.0956    0.7030   -1.1197 C.ar    1  LIG1        0.1672
     32 O          -0.5481    1.2605    0.0413 O.3     1  LIG1       -0.4703
     33 C           0.2376    1.0001    1.2214 C.3     1  LIG1        0.2054
     34 C          -0.7166    1.1006    2.4144 C.2     1  LIG1        0.0064
     35 C          -1.9217    1.6967    2.3105 C.2     1  LIG1       -0.0543
     36 C          -2.8059    1.8545    3.4522 C.2     1  LIG1       -0.0607
     37 C          -2.1448    1.9648    4.6265 C.2     1  LIG1       -0.0529
     38 C          -2.1373    3.3338    5.3707 C.3     1  LIG1       -0.0043
     39 C          -3.3477    3.1975    6.3399 C.3     1  LIG1       -0.0429
     40 C          -3.6314    4.4516    7.1527 C.3     1  LIG1       -0.0465
     41 C          -2.4014    4.9748    7.9312 C.3     1  LIG1       -0.0286
     42 C          -2.1853    6.4618    7.5537 C.3     1  LIG1       -0.0593
     43 C          -1.1462    4.0474    7.7194 C.3     1  LIG1       -0.0284
     44 H          -1.4174    3.0763    8.1587 H       1  LIG1        0.0312
     45 C           0.0447    4.5356    8.5913 C.3     1  LIG1       -0.0336
     46 C          -0.2807    4.7453   10.0904 C.3     1  LIG1        0.0653
     47 C          -0.3146    3.3977   10.8394 C.2     1  LIG1        0.3128
     48 O           0.9000    3.1014   11.3783 O.3     1  LIG1       -0.4675
     49 C           0.8528    2.3234   12.5742 C.3     1  LIG1        0.0817
     50 O          -1.3165    2.7152   10.9946 O.2     1  LIG1       -0.2502
     51 C           0.8183    5.6406   10.7132 C.3     1  LIG1       -0.0494
     52 C          -1.6297    5.4548   10.3308 C.3     1  LIG1       -0.0370
     53 C          -2.7598    4.9450    9.4409 C.3     1  LIG1       -0.0464
     54 C          -2.4964    4.4572    4.3410 C.3     1  LIG1       -0.0553
     55 C          -0.7888    3.7167    6.1858 C.3     1  LIG1       -0.0196
     56 C           0.0111    4.8928    5.5527 C.3     1  LIG1       -0.0585
     57 C           0.2464    2.5439    6.1149 C.3     1  LIG1       -0.0455
     58 C          -0.3728    1.1675    6.2249 C.3     1  LIG1       -0.0393
     59 C          -1.1774    0.8151    4.9609 C.3     1  LIG1        0.0152
     60 C          -1.9904   -0.4626    5.2967 C.3     1  LIG1       -0.0518
     61 C          -0.2908    0.4978    3.6977 C.2     1  LIG1       -0.0268
     62 C           0.7896   -0.3088    3.7288 C.2     1  LIG1       -0.0080
     63 C           1.5500   -0.6653    2.4857 C.2     1  LIG1        0.2317
     64 O           2.6789   -1.1398    2.6066 O.2     1  LIG1       -0.2855
     65 C           1.2981    2.1179    1.3195 C.3     1  LIG1       -0.0138
     66 C           0.8430   -0.4242    1.1302 C.3     1  LIG1        0.3183
     67 O          -0.1720   -1.4539    1.0484 O.3     1  LIG1       -0.3462
     68 O           1.6939   -0.5165   -0.0202 O.3     1  LIG1       -0.4464
     69 C          -0.8499    0.9690   -2.2678 C.ar    1  LIG1        0.0060
     70 C          -2.0681    1.8553   -2.1843 C.3     1  LIG1       -0.0354
     71 C          -0.4629    0.3409   -3.4696 C.ar    1  LIG1        0.0323
     72 H          -2.1383   -0.9755   -6.1514 H       1  LIG1        0.0656
     73 H          -0.3183   -0.9082   -8.3282 H       1  LIG1        0.0238
     74 H           0.4227   -2.3083   -9.0582 H       1  LIG1        0.0238
     75 H           1.3953   -1.2222   -8.0997 H       1  LIG1        0.0238
     76 H          -2.0475   -2.5534   -7.5115 H       1  LIG1        0.0274
     77 H          -1.6870   -3.7135   -6.2587 H       1  LIG1        0.0274
     78 H          -1.0871   -3.8163   -9.2393 H       1  LIG1        0.0271
     79 H          -2.1392   -4.8597   -8.3341 H       1  LIG1        0.0271
     80 H          -1.0349   -7.2590   -7.7074 H       1  LIG1        0.0235
     81 H          -1.2102   -6.1279   -6.4096 H       1  LIG1        0.0235
     82 H           0.3329   -6.9682   -6.6425 H       1  LIG1        0.0235
     83 H           0.4048   -5.2473  -10.2544 H       1  LIG1        0.0271
     84 H          -0.6713   -6.5426   -9.8324 H       1  LIG1        0.0271
     85 H           1.5523   -7.3890  -10.4855 H       1  LIG1        0.0276
     86 H           1.1169   -7.8645   -8.8570 H       1  LIG1        0.0276
     87 H           3.8878   -2.8658  -10.0455 H       1  LIG1        0.0661
     88 H           2.6047   -2.6190  -11.2430 H       1  LIG1        0.0661
     89 H           4.0049   -3.6294  -11.6740 H       1  LIG1        0.0661
     90 H           3.3022   -8.1905   -7.8052 H       1  LIG1        0.0240
     91 H           4.6647   -7.1774   -8.2993 H       1  LIG1        0.0240
     92 H           3.8453   -8.1946   -9.4901 H       1  LIG1        0.0240
     93 H           3.4199   -5.0170   -7.4380 H       1  LIG1        0.0279
     94 H           2.3818   -6.2599   -6.7735 H       1  LIG1        0.0279
     95 H          -0.1893   -4.9288   -5.2489 H       1  LIG1        0.0235
     96 H           0.5753   -3.7269   -4.3089 H       1  LIG1        0.0235
     97 H           1.5239   -5.0969   -4.8888 H       1  LIG1        0.0235
     98 H           2.8435   -2.3183   -6.9944 H       1  LIG1        0.0271
     99 H           3.2535   -3.6002   -5.8849 H       1  LIG1        0.0271
    100 H           3.2993   -1.4305   -4.7735 H       1  LIG1        0.0277
    101 H           2.2474   -2.5815   -4.0274 H       1  LIG1        0.0277
    102 H           2.2366    0.0891   -6.6532 H       1  LIG1        0.0241
    103 H           2.5268    0.8324   -5.0876 H       1  LIG1        0.0241
    104 H           0.9971    1.1012   -5.9161 H       1  LIG1        0.0241
    105 H           2.3972   -1.2057   -2.3867 H       1  LIG1        0.0658
    106 H          -2.2765    2.1490    1.3878 H       1  LIG1        0.0622
    107 H          -3.4982    1.0092    3.3490 H       1  LIG1        0.0618
    108 H          -3.2005    2.3499    7.0227 H       1  LIG1        0.0274
    109 H          -4.2617    2.9568    5.7777 H       1  LIG1        0.0274
    110 H          -4.4617    4.2250    7.8343 H       1  LIG1        0.0271
    111 H          -4.0330    5.2267    6.4882 H       1  LIG1        0.0271
    112 H          -2.1919    6.6320    6.4779 H       1  LIG1        0.0235
    113 H          -1.2488    6.8709    7.9407 H       1  LIG1        0.0235
    114 H          -2.9964    7.0826    7.9550 H       1  LIG1        0.0235
    115 H           0.4259    5.4768    8.1806 H       1  LIG1        0.0279
    116 H           0.8744    3.8249    8.5280 H       1  LIG1        0.0279
    117 H          -0.0881    1.7852   12.7180 H       1  LIG1        0.0661
    118 H           0.9969    3.0139   13.4110 H       1  LIG1        0.0661
    119 H           1.6765    1.6065   12.5669 H       1  LIG1        0.0661
    120 H           0.8308    6.6341   10.2524 H       1  LIG1        0.0240
    121 H           1.8175    5.2103   10.5778 H       1  LIG1        0.0240
    122 H           0.6565    5.7713   11.7901 H       1  LIG1        0.0240
    123 H          -1.5189    6.5347   10.1728 H       1  LIG1        0.0276
    124 H          -1.9362    5.3465   11.3800 H       1  LIG1        0.0276
    125 H          -3.6528    5.5552    9.6323 H       1  LIG1        0.0271
    126 H          -3.0362    3.9246    9.7325 H       1  LIG1        0.0271
    127 H          -3.4942    4.3147    3.9074 H       1  LIG1        0.0238
    128 H          -1.7814    4.4854    3.5104 H       1  LIG1        0.0238
    129 H          -2.5143    5.4522    4.7842 H       1  LIG1        0.0238
    130 H          -0.5019    5.8507    5.5981 H       1  LIG1        0.0235
    131 H           0.2411    4.6942    4.4993 H       1  LIG1        0.0235
    132 H           0.9782    5.0310    6.0505 H       1  LIG1        0.0235
    133 H           1.0117    2.6442    6.8891 H       1  LIG1        0.0271
    134 H           0.8052    2.5931    5.1702 H       1  LIG1        0.0271
    135 H          -1.0091    1.1187    7.1173 H       1  LIG1        0.0277
    136 H           0.4219    0.4322    6.3980 H       1  LIG1        0.0277
    137 H          -2.7390   -0.2634    6.0733 H       1  LIG1        0.0241
    138 H          -1.3376   -1.2616    5.6690 H       1  LIG1        0.0241
    139 H          -2.5198   -0.8627    4.4241 H       1  LIG1        0.0241
    140 H           1.1579   -0.7759    4.6343 H       1  LIG1        0.0658
    141 H           0.8199    3.1050    1.3189 H       1  LIG1        0.0274
    142 H           1.9753    2.1099    0.4588 H       1  LIG1        0.0274
    143 H           1.9080    2.0421    2.2257 H       1  LIG1        0.0274
    144 H          -0.9900   -1.0170    0.7546 H       1  LIG1        0.2144
    145 H          -2.1687    2.3539   -1.2157 H       1  LIG1        0.0279
    146 H          -2.9786    1.2691   -2.3414 H       1  LIG1        0.0279
    147 H          -2.0013    2.6623   -2.9211 H       1  LIG1        0.0279
@<TRIPOS>BOND
     1     2     3    1
     2     3     4    2
     3     4     5    1
     4     5     7    1
     5     7     8    1
     6     8     9    1
     7     9    11    1
     8    11    12    1
     9    12    13    1
    10    14    15    1
    11    15    16    1
    12    14    17    2
    13    13    19    1
    14    19    20    1
    15     9    20    1
    16    20    22    1
    17     5    22    1
    18    22    24    1
    19    24    25    1
    20    25    26    1
    21     4    26    1
    22    26    28    1
    23    28    29   ar
    24    29    30   ar
    25    30    31   ar
    26    31    32    1
    27    32    33    1
    28    33    34    1
    29    34    35    2
    30    35    36    1
    31    36    37    2
    32    37    38    1
    33    38    39    1
    34    39    40    1
    35    40    41    1
    36    41    43    1
    37    43    45    1
    38    45    46    1
    39    47    48    1
    40    48    49    1
    41    47    50    2
    42    46    52    1
    43    52    53    1
    44    41    53    1
    45    38    55    1
    46    43    55    1
    47    55    57    1
    48    57    58    1
    49    37    59    1
    50    58    59    1
    51    59    61    1
    52    34    61    1
    53    61    62    2
    54    62    63    1
    55    33    66    1
    56    63    66    1
    57    66    68    1
    58    30    68    1
    59    31    69   ar
    60    69    71   ar
    61     2    71    1
    62    28    71   ar
    63     1     2    2
    64     5     6    1
    65     9    10    1
    66    20    21    1
    67    22    23    1
    68    26    27    1
    69    33    65    1
    70    38    54    1
    71    41    42    1
    72    43    44    1
    73    46    47    1
    74    46    51    1
    75    55    56    1
    76    59    60    1
    77    63    64    2
    78    66    67    1
    79    69    70    1
    80    13    18    1
    81    13    14    1
    82     3    72    1
    83     6    73    1
    84     6    74    1
    85     6    75    1
    86     7    76    1
    87     7    77    1
    88     8    78    1
    89     8    79    1
    90    10    80    1
    91    10    81    1
    92    10    82    1
    93    11    83    1
    94    11    84    1
    95    12    85    1
    96    12    86    1
    97    16    87    1
    98    16    88    1
    99    16    89    1
   100    18    90    1
   101    18    91    1
   102    18    92    1
   103    19    93    1
   104    19    94    1
   105    23    95    1
   106    23    96    1
   107    23    97    1
   108    24    98    1
   109    24    99    1
   110    25   100    1
   111    25   101    1
   112    27   102    1
   113    27   103    1
   114    27   104    1
   115    29   105    1
   116    35   106    1
   117    36   107    1
   118    39   108    1
   119    39   109    1
   120    40   110    1
   121    40   111    1
   122    42   112    1
   123    42   113    1
   124    42   114    1
   125    45   115    1
   126    45   116    1
   127    49   117    1
   128    49   118    1
   129    49   119    1
   130    51   120    1
   131    51   121    1
   132    51   122    1
   133    52   123    1
   134    52   124    1
   135    53   125    1
   136    53   126    1
   137    54   127    1
   138    54   128    1
   139    54   129    1
   140    56   130    1
   141    56   131    1
   142    56   132    1
   143    57   133    1
   144    57   134    1
   145    58   135    1
   146    58   136    1
   147    60   137    1
   148    60   138    1
   149    60   139    1
   150    62   140    1
   151    65   141    1
   152    65   142    1
   153    65   143    1
   154    67   144    1
   155    70   145    1
   156    70   146    1
   157    70   147    1
