REMARK  Name = NuBBE_573
REMARK  7 active torsions:
REMARK  status: ('A' for Active; 'I' for Inactive)
REMARK    1  A    between atoms: C_1  and  C_2
REMARK    2  A    between atoms: C_6  and  O_7
REMARK    3  A    between atoms: C_10  and  O_11
REMARK    4  A    between atoms: C_10  and  C_12
REMARK    5  A    between atoms: C_18  and  C_19
REMARK    6  A    between atoms: C_18  and  C_20
REMARK    7  A    between atoms: C_23  and  C_25
REMARK                            x       y       z     vdW  Elec       q    Type
REMARK                         _______ _______ _______ _____ _____    ______ ____
ROOT
ATOM      1  C   LIG A   1      -3.553   1.599   0.763  0.00  0.00    +0.047 C 
ATOM      2  C   LIG A   1      -2.121   1.980   0.731  0.00  0.00    -0.004 C 
ATOM      3  C   LIG A   1      -1.260   1.307  -0.218  0.00  0.00    +0.188 C 
ATOM      4  O   LIG A   1      -1.676   0.374  -0.876  0.00  0.00    -0.287 OA
ATOM      5  C   LIG A   1      -1.330   2.821   1.393  0.00  0.00    +0.027 C 
ATOM      6  C   LIG A   1       0.126   2.703   0.994  0.00  0.00    +0.171 C 
ATOM      7  C   LIG A   1       0.050   1.925  -0.282  0.00  0.00    +0.041 C 
ATOM      8  C   LIG A   1       0.799   1.898  -1.401  0.00  0.00    +0.018 C 
ATOM      9  C   LIG A   1       0.698   0.938  -2.579  0.00  0.00    +0.082 C 
ATOM     10  C   LIG A   1      -0.550   1.042  -3.465  0.00  0.00    +0.046 C 
ATOM     11  C   LIG A   1       1.129  -0.519  -2.212  0.00  0.00    +0.039 C 
ATOM     12  C   LIG A   1       0.153  -1.583  -1.660  0.00  0.00    +0.007 C 
ATOM     13  C   LIG A   1       0.649  -2.269  -0.414  0.00  0.00    -0.001 C 
ATOM     14  C   LIG A   1       0.849  -1.816   1.042  0.00  0.00    -0.001 C 
ATOM     15  C   LIG A   1      -0.233  -2.863   0.687  0.00  0.00    -0.029 C 
ATOM     16  C   LIG A   1       0.023  -4.304   1.074  0.00  0.00    +0.011 C 
ATOM     17  C   LIG A   1      -1.699  -2.518   0.855  0.00  0.00    +0.011 C 
ATOM     18  C   LIG A   1       0.429  -0.623   1.870  0.00  0.00    +0.015 C 
ATOM     19  C   LIG A   1       1.435   0.534   2.095  0.00  0.00    +0.056 C 
ATOM     20  C   LIG A   1       2.725   0.532   1.292  0.00  0.00    +0.015 C 
ATOM     21  C   LIG A   1       0.813   1.954   2.212  0.00  0.00    +0.176 C 
ATOM     22  O   LIG A   1       0.867   2.518   3.319  0.00  0.00    -0.293 OA
ENDROOT
BRANCH   6  23
ATOM     23  O   LIG A   1       0.588   4.019   0.750  0.00  0.00    -0.373 OA
ATOM     24  H   LIG A   1       1.493   3.970   0.404  0.00  0.00    +0.211 HD
ENDBRANCH   6  23
BRANCH   9  25
ATOM     25  O   LIG A   1       1.787   1.395  -3.432  0.00  0.00    -0.385 OA
ATOM     26  H   LIG A   1       1.493   2.203  -3.886  0.00  0.00    +0.211 HD
ENDBRANCH   9  25
TORSDOF 2
