@<TRIPOS>MOLECULE
NuBBE_1212
 75 78 0 0 0
SMALL
GASTEIGER

@<TRIPOS>ATOM
      1 O          -3.9738   -1.9541   -6.3723 O.3     1  LIG1       -0.3915
      2 C          -3.8696   -1.1452   -5.2023 C.3     1  LIG1        0.0590
      3 H          -4.4854   -0.2511   -5.3560 H       1  LIG1        0.0596
      4 C          -2.4125   -0.7295   -4.9939 C.3     1  LIG1       -0.0051
      5 C          -4.4210   -1.9412   -4.0187 C.3     1  LIG1       -0.0258
      6 C          -4.2154   -1.2192   -2.6882 C.3     1  LIG1       -0.0413
      7 C          -2.7399   -0.8433   -2.4226 C.3     1  LIG1       -0.0078
      8 C          -1.8919   -2.1382   -2.2543 C.3     1  LIG1       -0.0556
      9 C          -2.2127   -0.0633   -3.6591 C.2     1  LIG1       -0.0648
     10 C          -1.5980    1.1346   -3.5819 C.2     1  LIG1       -0.0839
     11 C          -1.2703    1.7877   -2.2861 C.3     1  LIG1       -0.0311
     12 C          -1.3314    0.7570   -1.1536 C.3     1  LIG1       -0.0307
     13 C          -2.6832    0.0602   -1.1241 C.3     1  LIG1       -0.0285
     14 C          -3.0221   -0.6540    0.2142 C.3     1  LIG1       -0.0486
     15 C          -2.3957   -0.0611    1.5030 C.3     1  LIG1       -0.0468
     16 C          -0.8960    0.3461    1.3255 C.3     1  LIG1       -0.0259
     17 C          -0.0896   -0.9415    1.1089 C.3     1  LIG1       -0.0590
     18 C          -0.8772    1.3218    0.1524 C.3     1  LIG1       -0.0320
     19 C          -1.4585    2.6254    0.6981 C.3     1  LIG1       -0.0492
     20 C          -1.1491    2.5845    2.2086 C.3     1  LIG1       -0.0492
     21 C          -0.3242    1.2839    2.4532 C.3     1  LIG1       -0.0328
     22 H          -0.5944    0.8768    3.4380 H       1  LIG1        0.0309
     23 C           1.2519    1.6309    2.5119 C.3     1  LIG1       -0.0403
     24 H           1.3446    2.3106    3.3727 H       1  LIG1        0.0301
     25 C           2.2055    0.4338    2.8237 C.3     1  LIG1       -0.0465
     26 C           3.6189    0.8714    3.3127 C.3     1  LIG1       -0.0315
     27 C           4.6274   -0.2681    3.5431 C.2     1  LIG1       -0.0740
     28 C           5.6308   -0.5884    2.4128 C.3     1  LIG1       -0.0258
     29 C           6.7200   -1.6237    2.7743 C.3     1  LIG1       -0.0590
     30 C           4.8593   -1.1307    1.2128 C.3     1  LIG1       -0.0590
     31 C           4.6551   -0.8982    4.7031 C.2     1  LIG1       -0.0992
     32 C           1.8164    2.4210    1.3128 C.3     1  LIG1       -0.0621
     33 H          -3.5405   -1.4737   -7.0984 H       1  LIG1        0.2098
     34 H          -2.1080   -0.0711   -5.8179 H       1  LIG1        0.0335
     35 H          -1.7521   -1.6019   -5.0811 H       1  LIG1        0.0335
     36 H          -3.9591   -2.9356   -3.9874 H       1  LIG1        0.0290
     37 H          -5.4908   -2.1249   -4.1717 H       1  LIG1        0.0290
     38 H          -4.5945   -1.8504   -1.8757 H       1  LIG1        0.0274
     39 H          -4.8297   -0.3088   -2.6879 H       1  LIG1        0.0274
     40 H          -1.8312   -2.7254   -3.1751 H       1  LIG1        0.0238
     41 H          -2.3163   -2.8091   -1.5021 H       1  LIG1        0.0238
     42 H          -0.8570   -1.9312   -1.9643 H       1  LIG1        0.0238
     43 H          -1.2690    1.6432   -4.4798 H       1  LIG1        0.0572
     44 H          -1.9480    2.6288   -2.1098 H       1  LIG1        0.0310
     45 H          -0.2516    2.2024   -2.3496 H       1  LIG1        0.0310
     46 H          -0.5633    0.0095   -1.3977 H       1  LIG1        0.0309
     47 H          -3.4388    0.8545   -1.2249 H       1  LIG1        0.0312
     48 H          -2.7613   -1.7125    0.1785 H       1  LIG1        0.0268
     49 H          -4.1140   -0.6439    0.3335 H       1  LIG1        0.0268
     50 H          -2.4917   -0.7905    2.3182 H       1  LIG1        0.0271
     51 H          -3.0192    0.7862    1.8087 H       1  LIG1        0.0271
     52 H          -0.6619   -1.7106    0.5809 H       1  LIG1        0.0235
     53 H           0.1954   -1.3957    2.0633 H       1  LIG1        0.0235
     54 H           0.8031   -0.7710    0.5032 H       1  LIG1        0.0235
     55 H           0.1345    1.5352   -0.1148 H       1  LIG1        0.0309
     56 H          -2.5361    2.7096    0.5202 H       1  LIG1        0.0268
     57 H          -0.9790    3.4919    0.2309 H       1  LIG1        0.0268
     58 H          -2.0953    2.5432    2.7653 H       1  LIG1        0.0268
     59 H          -0.6421    3.4917    2.5507 H       1  LIG1        0.0268
     60 H           2.3229   -0.1665    1.9204 H       1  LIG1        0.0271
     61 H           1.7502   -0.2054    3.5872 H       1  LIG1        0.0271
     62 H           3.4913    1.4184    4.2585 H       1  LIG1        0.0310
     63 H           4.0778    1.5889    2.6356 H       1  LIG1        0.0310
     64 H           6.1517    0.3305    2.1253 H       1  LIG1        0.0340
     65 H           6.2807   -2.5813    3.0767 H       1  LIG1        0.0235
     66 H           7.3663   -1.2684    3.5843 H       1  LIG1        0.0235
     67 H           7.3664   -1.8323    1.9122 H       1  LIG1        0.0235
     68 H           4.2160   -1.9660    1.5134 H       1  LIG1        0.0235
     69 H           5.5346   -1.4909    0.4304 H       1  LIG1        0.0235
     70 H           4.2314   -0.3537    0.7659 H       1  LIG1        0.0235
     71 H           3.9331   -0.6953    5.5075 H       1  LIG1        0.0534
     72 H           5.3930   -1.6810    4.9455 H       1  LIG1        0.0534
     73 H           2.9007    2.5226    1.3281 H       1  LIG1        0.0233
     74 H           1.3934    3.4282    1.2623 H       1  LIG1        0.0233
     75 H           1.6894    1.9175    0.3627 H       1  LIG1        0.0233
@<TRIPOS>BOND
     1     2     4    1
     2     2     5    1
     3     5     6    1
     4     6     7    1
     5     7     9    1
     6     4     9    1
     7     9    10    2
     8    10    11    1
     9    11    12    1
    10    12    13    1
    11     7    13    1
    12    13    14    1
    13    14    15    1
    14    15    16    1
    15    16    18    1
    16    12    18    1
    17    18    19    1
    18    19    20    1
    19    20    21    1
    20    16    21    1
    21    23    24    1
    22    23    25    1
    23    25    26    1
    24    26    27    1
    25    27    28    1
    26    28    29    1
    27    28    30    1
    28    27    31    2
    29    23    32    1
    30     7     8    1
    31    16    17    1
    32    21    22    1
    33    21    23    1
    34     2     3    1
    35     2     1    1
    36     1    33    1
    37     4    34    1
    38     4    35    1
    39     5    36    1
    40     5    37    1
    41     6    38    1
    42     6    39    1
    43     8    40    1
    44     8    41    1
    45     8    42    1
    46    10    43    1
    47    11    44    1
    48    11    45    1
    49    12    46    1
    50    13    47    1
    51    14    48    1
    52    14    49    1
    53    15    50    1
    54    15    51    1
    55    17    52    1
    56    17    53    1
    57    17    54    1
    58    18    55    1
    59    19    56    1
    60    19    57    1
    61    20    58    1
    62    20    59    1
    63    25    60    1
    64    25    61    1
    65    26    62    1
    66    26    63    1
    67    28    64    1
    68    29    65    1
    69    29    66    1
    70    29    67    1
    71    30    68    1
    72    30    69    1
    73    30    70    1
    74    31    71    1
    75    31    72    1
    76    32    73    1
    77    32    74    1
    78    32    75    1
