@<TRIPOS>MOLECULE
NuBBE_1304
 47 49 0 0 0
SMALL
GASTEIGER

@<TRIPOS>ATOM
      1 O          -0.4479   -1.4703    3.6223 O.2     1  LIG1       -0.2918
      2 C          -0.6192   -1.0036    2.5003 C.2     1  LIG1        0.1663
      3 C          -1.9578   -1.1954    1.8227 C.ar    1  LIG1        0.0214
      4 C          -2.7228   -2.3517    2.1079 C.ar    1  LIG1       -0.0476
      5 C          -3.9758   -2.5521    1.5122 C.ar    1  LIG1       -0.0155
      6 C          -4.4489   -1.5687    0.6687 C.ar    1  LIG1        0.1663
      7 O          -5.6541   -1.5542    0.0388 O.3     1  LIG1       -0.4526
      8 C          -5.6229   -0.2484   -0.5792 C.3     1  LIG1        0.2332
      9 O          -4.3531    0.4179   -0.4377 O.3     1  LIG1       -0.4526
     10 C          -3.7107   -0.4433    0.3957 C.ar    1  LIG1        0.1669
     11 C          -2.4672   -0.2237    0.9427 C.ar    1  LIG1       -0.0057
     12 C           0.4403   -0.1641    1.7514 C.3     1  LIG1        0.0222
     13 H           0.0934    0.0725    0.7377 H       1  LIG1        0.0381
     14 C           0.6275    1.1489    2.5232 C.3     1  LIG1       -0.0551
     15 C           1.7653   -0.9663    1.6016 C.3     1  LIG1       -0.0303
     16 H           2.0534   -1.2838    2.6141 H       1  LIG1        0.0308
     17 C           1.5623   -2.2646    0.7993 C.3     1  LIG1       -0.0615
     18 C           2.9706   -0.1510    1.0434 C.3     1  LIG1       -0.0243
     19 C           2.8628    0.3647   -0.3797 C.ar    1  LIG1       -0.0434
     20 C           3.3579   -0.3909   -1.4490 C.ar    1  LIG1       -0.0549
     21 C           3.2043    0.0472   -2.7689 C.ar    1  LIG1       -0.0163
     22 C           2.5431    1.2473   -3.0414 C.ar    1  LIG1        0.1585
     23 O           2.3983    1.6433   -4.3410 O.3     1  LIG1       -0.5033
     24 C           2.0700    2.0346   -1.9918 C.ar    1  LIG1        0.1615
     25 O           1.4491    3.2523   -2.0871 O.3     1  LIG1       -0.4915
     26 C           0.5541    3.4115   -3.1818 C.3     1  LIG1        0.0790
     27 C           2.2751    1.6037   -0.6737 C.ar    1  LIG1       -0.0131
     28 H          -2.3391   -3.0979    2.8049 H       1  LIG1        0.0626
     29 H          -4.5668   -3.4397    1.7180 H       1  LIG1        0.0655
     30 H          -6.3942    0.3797   -0.1168 H       1  LIG1        0.1166
     31 H          -5.8457   -0.3522   -1.6464 H       1  LIG1        0.1166
     32 H          -1.9405    0.6884    0.7108 H       1  LIG1        0.0662
     33 H          -0.3296    1.5688    2.8515 H       1  LIG1        0.0237
     34 H           1.1040    1.9111    1.9106 H       1  LIG1        0.0237
     35 H           1.2548    1.0079    3.4103 H       1  LIG1        0.0237
     36 H           0.6457   -2.7909    1.0808 H       1  LIG1        0.0233
     37 H           2.3960   -2.9506    0.9875 H       1  LIG1        0.0233
     38 H           1.5109   -2.0860   -0.2781 H       1  LIG1        0.0233
     39 H           3.8631   -0.7895    1.1048 H       1  LIG1        0.0316
     40 H           3.1921    0.6912    1.7105 H       1  LIG1        0.0316
     41 H           3.8674   -1.3340   -1.2621 H       1  LIG1        0.0621
     42 H           3.6031   -0.5670   -3.5708 H       1  LIG1        0.0655
     43 H           2.8654    1.0169   -4.9169 H       1  LIG1        0.2923
     44 H          -0.0652    4.2905   -2.9726 H       1  LIG1        0.0660
     45 H          -0.1186    2.5533   -3.2882 H       1  LIG1        0.0660
     46 H           1.0932    3.6192   -4.1092 H       1  LIG1        0.0660
     47 H           1.9569    2.2691    0.1206 H       1  LIG1        0.0658
@<TRIPOS>BOND
     1     1     2    2
     2     2     3    1
     3     3     4   ar
     4     4     5   ar
     5     5     6   ar
     6     6     7    1
     7     7     8    1
     8     8     9    1
     9     6    10   ar
    10     9    10    1
    11    10    11   ar
    12     3    11   ar
    13     2    12    1
    14    12    13    1
    15    12    14    1
    16    12    15    1
    17    15    16    1
    18    15    17    1
    19    15    18    1
    20    18    19    1
    21    19    20   ar
    22    20    21   ar
    23    21    22   ar
    24    22    23    1
    25    22    24   ar
    26    24    25    1
    27    25    26    1
    28    24    27   ar
    29    19    27   ar
    30     4    28    1
    31     5    29    1
    32     8    30    1
    33     8    31    1
    34    11    32    1
    35    14    33    1
    36    14    34    1
    37    14    35    1
    38    17    36    1
    39    17    37    1
    40    17    38    1
    41    18    39    1
    42    18    40    1
    43    20    41    1
    44    21    42    1
    45    23    43    1
    46    26    44    1
    47    26    45    1
    48    26    46    1
    49    27    47    1
