@<TRIPOS>MOLECULE
NuBBE_514
 58 61 0 0 0
SMALL
GASTEIGER

@<TRIPOS>ATOM
      1 O          -1.6630    0.3522   -3.3700 O.3     1  LIG1       -0.3912
      2 C          -0.6283   -0.6392   -3.4080 C.3     1  LIG1        0.0630
      3 H          -0.5907   -1.0057   -4.4412 H       1  LIG1        0.0599
      4 C          -1.0335   -1.7968   -2.4965 C.3     1  LIG1       -0.0257
      5 C          -1.0859   -1.3761   -1.0279 C.3     1  LIG1       -0.0445
      6 C           0.2673   -0.8404   -0.4906 C.3     1  LIG1       -0.0226
      7 C           0.7804    0.2943   -1.4636 C.3     1  LIG1       -0.0253
      8 H           0.0631    1.1178   -1.3464 H       1  LIG1        0.0313
      9 C           0.7323    0.0106   -3.0224 C.3     1  LIG1        0.0203
     10 C           0.8787    1.3779   -3.7706 C.3     1  LIG1        0.0522
     11 O           0.6062    1.2566   -5.1651 O.3     1  LIG1       -0.3944
     12 C           1.8787   -0.8876   -3.5406 C.3     1  LIG1       -0.0548
     13 C           2.1307    0.8462   -0.9683 C.3     1  LIG1       -0.0488
     14 C           1.9983    1.4444    0.4253 C.3     1  LIG1       -0.0494
     15 C           1.3705    0.4980    1.4627 C.3     1  LIG1       -0.0345
     16 C           0.0869   -0.2525    0.9846 C.3     1  LIG1       -0.0203
     17 C          -0.9460    0.8902    1.1438 C.3     1  LIG1       -0.0411
     18 C          -0.6519    1.3586    2.5794 C.3     1  LIG1       -0.0092
     19 H          -0.9855    2.3905    2.7339 H       1  LIG1        0.0329
     20 C           0.8924    1.3171    2.6754 C.3     1  LIG1       -0.0441
     21 C          -0.2535   -1.3747    2.0493 C.3     1  LIG1       -0.0439
     22 C          -1.3768   -1.0420    3.0471 C.3     1  LIG1       -0.0210
     23 C          -1.3639    0.4060    3.5719 C.3     1  LIG1        0.0918
     24 C          -2.8220    0.8615    3.8364 C.3     1  LIG1        0.0732
     25 O          -2.8389    2.1622    4.4260 O.3     1  LIG1       -0.3922
     26 O          -0.7245    0.4652    4.8590 O.3     1  LIG1       -0.3860
     27 C           1.2725   -2.0279   -0.4145 C.3     1  LIG1       -0.0588
     28 H          -2.5061   -0.0933   -3.5668 H       1  LIG1        0.2098
     29 H          -0.3582   -2.6474   -2.6304 H       1  LIG1        0.0290
     30 H          -2.0331   -2.1493   -2.7807 H       1  LIG1        0.0290
     31 H          -1.4259   -2.2360   -0.4401 H       1  LIG1        0.0272
     32 H          -1.8631   -0.6110   -0.9198 H       1  LIG1        0.0272
     33 H           0.2076    2.1429   -3.3633 H       1  LIG1        0.0563
     34 H           1.8980    1.7665   -3.6858 H       1  LIG1        0.0563
     35 H          -0.3660    1.2283   -5.2383 H       1  LIG1        0.2094
     36 H           1.7741   -1.9324   -3.2528 H       1  LIG1        0.0237
     37 H           2.8581   -0.5332   -3.2057 H       1  LIG1        0.0237
     38 H           1.9045   -0.8931   -4.6372 H       1  LIG1        0.0237
     39 H           2.4982    1.6379   -1.6281 H       1  LIG1        0.0268
     40 H           2.9033    0.0711   -0.9673 H       1  LIG1        0.0268
     41 H           1.4107    2.3682    0.3440 H       1  LIG1        0.0268
     42 H           2.9891    1.7566    0.7791 H       1  LIG1        0.0268
     43 H           2.1469   -0.2109    1.7756 H       1  LIG1        0.0306
     44 H          -1.9812    0.5648    1.0041 H       1  LIG1        0.0274
     45 H          -0.7817    1.7215    0.4525 H       1  LIG1        0.0274
     46 H           1.2609    0.8646    3.5993 H       1  LIG1        0.0272
     47 H           1.2971    2.3362    2.6599 H       1  LIG1        0.0272
     48 H           0.6492   -1.6429    2.6128 H       1  LIG1        0.0272
     49 H          -0.5688   -2.3004    1.5596 H       1  LIG1        0.0272
     50 H          -1.3399   -1.7575    3.8780 H       1  LIG1        0.0294
     51 H          -2.3249   -1.2331    2.5257 H       1  LIG1        0.0294
     52 H          -3.4190    0.8911    2.9202 H       1  LIG1        0.0586
     53 H          -3.3106    0.1866    4.5482 H       1  LIG1        0.0586
     54 H          -2.1187    2.1411    5.0880 H       1  LIG1        0.2095
     55 H           0.0021   -0.1797    4.8688 H       1  LIG1        0.2103
     56 H           1.5137   -2.4481   -1.3862 H       1  LIG1        0.0235
     57 H           0.8720   -2.8685    0.1603 H       1  LIG1        0.0235
     58 H           2.2180   -1.7473    0.0570 H       1  LIG1        0.0235
@<TRIPOS>BOND
     1     1     2    1
     2     2     3    1
     3     2     4    1
     4     4     5    1
     5     5     6    1
     6     6     7    1
     7     7     8    1
     8     7     9    1
     9    10    11    1
    10     2     9    1
    11     7    13    1
    12    13    14    1
    13    14    15    1
    14    15    16    1
    15    16    17    1
    16    17    18    1
    17    18    19    1
    18    18    20    1
    19    15    20    1
    20     6    16    1
    21    16    21    1
    22    21    22    1
    23    22    23    1
    24    24    25    1
    25    18    23    1
    26     6    27    1
    27     9    12    1
    28     9    10    1
    29    23    26    1
    30    23    24    1
    31     1    28    1
    32     4    29    1
    33     4    30    1
    34     5    31    1
    35     5    32    1
    36    10    33    1
    37    10    34    1
    38    11    35    1
    39    12    36    1
    40    12    37    1
    41    12    38    1
    42    13    39    1
    43    13    40    1
    44    14    41    1
    45    14    42    1
    46    15    43    1
    47    17    44    1
    48    17    45    1
    49    20    46    1
    50    20    47    1
    51    21    48    1
    52    21    49    1
    53    22    50    1
    54    22    51    1
    55    24    52    1
    56    24    53    1
    57    25    54    1
    58    26    55    1
    59    27    56    1
    60    27    57    1
    61    27    58    1
