@<TRIPOS>MOLECULE
NuBBE_2078
 46 49 0 0 0
SMALL
GASTEIGER

@<TRIPOS>ATOM
      1 O           1.0885   -2.0105    3.2911 O.2     1  LIG1       -0.2505
      2 C           1.1679   -1.4800    2.1945 C.2     1  LIG1        0.3106
      3 C           1.2249    0.0298    1.8697 C.3     1  LIG1        0.0604
      4 H           2.2932    0.2070    1.6316 H       1  LIG1        0.0415
      5 C           0.8159    1.2537    2.7292 C.3     1  LIG1       -0.0519
      6 O           1.0721   -2.1953    1.0233 O.3     1  LIG1       -0.4608
      7 C           0.9739   -1.2554   -0.0209 C.3     1  LIG1        0.1076
      8 H           2.0088   -0.9921   -0.2414 H       1  LIG1        0.0737
      9 C           0.3901    0.0005    0.5981 C.3     1  LIG1        0.0178
     10 H           0.7911    0.9078    0.1536 H       1  LIG1        0.0351
     11 C          -1.2506    0.2348    0.4961 C.3     1  LIG1        0.0155
     12 C          -1.3733   -0.5126    2.0148 C.3     1  LIG1       -0.0335
     13 C          -2.5390   -0.2596    2.9670 C.3     1  LIG1        0.0456
     14 C          -3.6548   -0.9557    2.3651 C.2     1  LIG1        0.3071
     15 O          -3.7589   -0.6166    1.0509 O.3     1  LIG1       -0.4640
     16 C          -2.5724   -0.7230    0.1395 C.3     1  LIG1        0.0987
     17 O          -4.4684   -1.6851    2.9782 O.2     1  LIG1       -0.2509
     18 C          -0.7106    0.5222   -1.2881 C.3     1  LIG1       -0.0266
     19 H          -1.6849    0.5116   -1.8022 H       1  LIG1        0.0311
     20 C          -0.1540    1.9710   -1.7123 C.3     1  LIG1       -0.0492
     21 C           1.3673    2.2141   -2.0012 C.3     1  LIG1       -0.0504
     22 C           2.0685    1.2472   -2.9363 C.3     1  LIG1       -0.0266
     23 C           1.7128   -0.1765   -2.6110 C.3     1  LIG1        0.0584
     24 H           2.4525   -0.4658   -1.8713 H       1  LIG1        0.0596
     25 O           2.0948   -1.0244   -3.7240 O.3     1  LIG1       -0.3915
     26 C           0.2140   -0.5136   -2.1507 C.3     1  LIG1       -0.0082
     27 H          -0.3235   -0.7248   -3.0891 H       1  LIG1        0.0330
     28 C           0.3161   -1.7548   -1.2929 C.3     1  LIG1       -0.0099
     29 H           0.6034    1.0170    3.7741 H       1  LIG1        0.0238
     30 H          -0.0806    1.7527    2.3129 H       1  LIG1        0.0238
     31 H           1.5795    2.0241    2.6725 H       1  LIG1        0.0238
     32 H          -0.6502   -0.2536    2.7512 H       1  LIG1        0.0277
     33 H          -1.3030   -1.6080    1.9131 H       1  LIG1        0.0277
     34 H          -2.3093   -0.7355    3.9672 H       1  LIG1        0.0378
     35 H          -2.7541    0.7997    3.2022 H       1  LIG1        0.0378
     36 H          -2.3338   -1.7951    0.1394 H       1  LIG1        0.0703
     37 H          -3.0359   -0.4862   -0.8087 H       1  LIG1        0.0703
     38 H          -0.4914    2.7318   -1.0045 H       1  LIG1        0.0268
     39 H          -0.6344    2.2075   -2.6744 H       1  LIG1        0.0268
     40 H           1.9307    2.2608   -1.0621 H       1  LIG1        0.0266
     41 H           1.4881    3.2059   -2.4566 H       1  LIG1        0.0266
     42 H           3.1661    1.3679   -2.8049 H       1  LIG1        0.0290
     43 H           1.9273    1.4801   -3.9980 H       1  LIG1        0.0290
     44 H           3.0854   -0.9967   -3.7647 H       1  LIG1        0.2098
     45 H           0.9201   -2.5324   -1.7769 H       1  LIG1        0.0304
     46 H          -0.6698   -2.1937   -1.1431 H       1  LIG1        0.0304
@<TRIPOS>BOND
     1     2     3    1
     2     2     6    1
     3     6     7    1
     4     7     9    1
     5     3     9    1
     6     9    11    1
     7    11    12    1
     8    12    13    1
     9    13    14    1
    10    14    15    1
    11    15    16    1
    12    14    17    2
    13    16    11    1
    14    11    18    1
    15    18    20    1
    16    20    21    1
    17    21    22    1
    18    22    23    1
    19    23    26    1
    20    18    26    1
    21    26    28    1
    22     7    28    1
    23     1     2    2
    24     3     4    1
    25     3     5    1
    26     7     8    1
    27     9    10    1
    28    18    19    1
    29    26    27    1
    30    23    25    1
    31    23    24    1
    32     5    29    1
    33     5    30    1
    34     5    31    1
    35    12    32    1
    36    12    33    1
    37    13    34    1
    38    13    35    1
    39    16    36    1
    40    16    37    1
    41    20    38    1
    42    20    39    1
    43    21    40    1
    44    21    41    1
    45    22    42    1
    46    22    43    1
    47    25    44    1
    48    28    45    1
    49    28    46    1
