@<TRIPOS>MOLECULE
NuBBE_1868
 45 47 0 0 0
SMALL
GASTEIGER

@<TRIPOS>ATOM
      1 C          -2.1783   -0.1321   -3.2110 C.3     1  LIG1        0.0791
      2 O          -1.1276   -0.8123   -2.5180 O.3     1  LIG1       -0.4883
      3 C          -0.4406   -0.0231   -1.6053 C.ar    1  LIG1        0.2108
      4 C           0.1738   -0.5237   -0.5088 C.ar    1  LIG1        0.1844
      5 C           0.1462   -1.9398   -0.1005 C.ar    1  LIG1        0.0661
      6 C           1.1478   -2.8043   -0.5564 C.ar    1  LIG1       -0.0022
      7 C           1.1514   -4.1533   -0.1799 C.ar    1  LIG1        0.1594
      8 O           2.1630   -4.9495   -0.6394 O.3     1  LIG1       -0.5033
      9 C           0.1568   -4.6624    0.6630 C.ar    1  LIG1        0.1648
     10 O           0.0360   -5.9549    1.1056 O.3     1  LIG1       -0.4913
     11 C           0.4606   -6.9722    0.2020 C.3     1  LIG1        0.0790
     12 C          -0.8066   -3.7843    1.1758 C.ar    1  LIG1        0.0259
     13 C          -0.8098   -2.4373    0.7957 C.ar    1  LIG1        0.1313
     14 O          -1.7515   -1.5864    1.3115 O.3     1  LIG1       -0.5059
     15 O           0.9392    0.2425    0.3620 O.2     1  LIG1       -0.4505
     16 C           0.6570    1.5793    0.4185 C.ar    1  LIG1        0.1466
     17 C          -0.0350    2.2373   -0.6001 C.ar    1  LIG1        0.1094
     18 C          -0.4431    3.5632   -0.4407 C.ar    1  LIG1        0.1380
     19 O          -1.2246    4.1179   -1.4201 O.3     1  LIG1       -0.4942
     20 C          -1.6253    5.4688   -1.2435 C.3     1  LIG1        0.0788
     21 C          -0.0721    4.2326    0.7301 C.ar    1  LIG1        0.0227
     22 C           0.7134    3.6007    1.7033 C.ar    1  LIG1        0.1271
     23 O           1.0290    4.3716    2.7901 O.3     1  LIG1       -0.4949
     24 C           2.2654    4.0451    3.4140 C.3     1  LIG1        0.0788
     25 C           1.0618    2.2641    1.5604 C.ar    1  LIG1        0.0233
     26 C          -0.2580    1.4500   -1.8100 C.ar    1  LIG1        0.2381
     27 O          -0.2268    1.9691   -2.9239 O.2     1  LIG1       -0.2830
     28 H          -2.6384   -0.8290   -3.9177 H       1  LIG1        0.0660
     29 H          -1.8210    0.7039   -3.8175 H       1  LIG1        0.0660
     30 H          -2.9467    0.2071   -2.5085 H       1  LIG1        0.0660
     31 H           1.9281   -2.4142   -1.2040 H       1  LIG1        0.0663
     32 H           2.8001   -4.4074   -1.1322 H       1  LIG1        0.2923
     33 H           0.1739   -7.9387    0.6292 H       1  LIG1        0.0660
     34 H           1.5472   -7.0022    0.0972 H       1  LIG1        0.0660
     35 H          -0.0370   -6.8761   -0.7694 H       1  LIG1        0.0660
     36 H          -1.5582   -4.1738    1.8572 H       1  LIG1        0.0692
     37 H          -2.3239   -2.0814    1.9212 H       1  LIG1        0.2922
     38 H          -2.1214    5.8025   -2.1592 H       1  LIG1        0.0660
     39 H          -0.7621    6.1234   -1.0827 H       1  LIG1        0.0660
     40 H          -2.3433    5.5539   -0.4199 H       1  LIG1        0.0660
     41 H          -0.3685    5.2567    0.9236 H       1  LIG1        0.0691
     42 H           2.4517    4.7920    4.1903 H       1  LIG1        0.0660
     43 H           3.0906    4.0890    2.6944 H       1  LIG1        0.0660
     44 H           2.2228    3.0676    3.9034 H       1  LIG1        0.0660
     45 H           1.6043    1.7200    2.3203 H       1  LIG1        0.0691
@<TRIPOS>BOND
     1     1     2    1
     2     2     3    1
     3     3     4   ar
     4     4     5    1
     5     5     6   ar
     6     6     7   ar
     7     7     8    1
     8     7     9   ar
     9     9    10    1
    10    10    11    1
    11     9    12   ar
    12    12    13   ar
    13     5    13   ar
    14    13    14    1
    15     4    15   ar
    16    15    16   ar
    17    16    17   ar
    18    17    18   ar
    19    18    19    1
    20    19    20    1
    21    18    21   ar
    22    21    22   ar
    23    22    23    1
    24    23    24    1
    25    22    25   ar
    26    16    25   ar
    27    17    26   ar
    28     3    26   ar
    29    26    27    2
    30     1    28    1
    31     1    29    1
    32     1    30    1
    33     6    31    1
    34     8    32    1
    35    11    33    1
    36    11    34    1
    37    11    35    1
    38    12    36    1
    39    14    37    1
    40    20    38    1
    41    20    39    1
    42    20    40    1
    43    21    41    1
    44    24    42    1
    45    24    43    1
    46    24    44    1
    47    25    45    1
