REMARK  Name = NuBBE_436
REMARK  4 active torsions:
REMARK  status: ('A' for Active; 'I' for Inactive)
REMARK    1  A    between atoms: C_9  and  C_10
REMARK    2  A    between atoms: C_21  and  C_22
REMARK    3  A    between atoms: C_22  and  O_23
REMARK    4  A    between atoms: O_23  and  C_24
REMARK                            x       y       z     vdW  Elec       q    Type
REMARK                         _______ _______ _______ _____ _____    ______ ____
ROOT
ATOM      1  C   LIG A   1      -1.875  -0.490  -0.021  0.00  0.00    +0.065 C 
ATOM      2  C   LIG A   1      -1.239  -1.494  -0.947  0.00  0.00    -0.018 C 
ATOM      3  C   LIG A   1      -0.101  -2.000  -0.463  0.00  0.00    +0.020 C 
ATOM      4  C   LIG A   1       0.227  -1.415   0.868  0.00  0.00    +0.172 C 
ATOM      5  C   LIG A   1       1.359  -0.422   0.935  0.00  0.00    +0.207 C 
ATOM      6  C   LIG A   1       2.458  -1.256   1.464  0.00  0.00    +0.065 C 
ATOM      7  C   LIG A   1       3.786  -1.093   1.371  0.00  0.00    -0.017 C 
ATOM      8  C   LIG A   1       4.474   0.059   0.713  0.00  0.00    +0.036 C 
ATOM      9  O   LIG A   1       0.974   0.546   1.910  0.00  0.00    -0.329 OA
ATOM     10  O   LIG A   1       0.507  -2.442   1.815  0.00  0.00    -0.447 OA
ATOM     11  C   LIG A   1       1.841  -2.439   2.106  0.00  0.00    +0.338 C 
ATOM     12  O   LIG A   1       2.414  -3.274   2.779  0.00  0.00    -0.245 OA
ATOM     13  C   LIG A   1      -1.020  -0.624   1.252  0.00  0.00    +0.120 C 
ATOM     14  C   LIG A   1      -0.460   0.654   1.875  0.00  0.00    +0.315 C 
ATOM     15  O   LIG A   1      -0.795   1.905   1.286  0.00  0.00    -0.470 OA
ATOM     16  C   LIG A   1      -1.421   1.936   0.084  0.00  0.00    +0.201 C 
ATOM     17  C   LIG A   1      -1.925   0.892  -0.581  0.00  0.00    +0.078 C 
ENDROOT
BRANCH  17  18
ATOM     18  C   LIG A   1      -2.671   1.110  -1.851  0.00  0.00    +0.338 C 
ATOM     19  O   LIG A   1      -3.428   0.282  -2.335  0.00  0.00    -0.245 OA
BRANCH  18  20
ATOM     20  O   LIG A   1      -2.378   2.321  -2.388  0.00  0.00    -0.465 OA
ATOM     21  C   LIG A   1      -3.071   2.623  -3.599  0.00  0.00    +0.280 C 
ENDBRANCH  18  20
ENDBRANCH  17  18
TORSDOF 2
