REMARK  Name = NuBBE_1087
REMARK  4 active torsions:
REMARK  status: ('A' for Active; 'I' for Inactive)
REMARK    1  A    between atoms: C_2  and  O_3
REMARK    2  A    between atoms: C_2  and  C_5
REMARK    3  A    between atoms: O_3  and  C_4
REMARK    4  A    between atoms: C_8  and  C_9
REMARK                            x       y       z     vdW  Elec       q    Type
REMARK                         _______ _______ _______ _____ _____    ______ ____
ROOT
ATOM      1  C   LIG A   1       0.438  -0.776  -0.719  0.00  0.00    +0.018 A 
ATOM      2  C   LIG A   1       0.773  -2.007  -1.302  0.00  0.00    +0.013 A 
ATOM      3  C   LIG A   1       1.562  -2.094  -2.455  0.00  0.00    +0.027 A 
ATOM      4  C   LIG A   1       2.014  -0.898  -3.017  0.00  0.00    +0.046 A 
ATOM      5  N   LIG A   1       2.793  -0.677  -4.130  0.00  0.00    -0.361 N 
ATOM      6  H   LIG A   1       3.163  -1.407  -4.723  0.00  0.00    +0.165 HD
ATOM      7  C   LIG A   1       2.993   0.666  -4.309  0.00  0.00    +0.083 A 
ATOM      8  C   LIG A   1       2.332   1.327  -3.299  0.00  0.00    +0.027 A 
ATOM      9  C   LIG A   1       1.708   0.349  -2.476  0.00  0.00    +0.000 A 
ATOM     10  C   LIG A   1       0.910   0.408  -1.314  0.00  0.00    +0.021 A 
ENDROOT
BRANCH   1  14
ATOM     11  C   LIG A   1      -1.590  -0.295   2.351  0.00  0.00    +0.097 A 
ATOM     12  C   LIG A   1      -1.503  -1.652   2.133  0.00  0.00    +0.210 A 
ATOM     13  O   LIG A   1      -0.779  -1.915   1.016  0.00  0.00    -0.462 OA
ATOM     14  C   LIG A   1      -0.379  -0.717   0.491  0.00  0.00    +0.136 A 
ATOM     15  C   LIG A   1      -0.866   0.306   1.280  0.00  0.00    +0.065 A 
BRANCH  11  17
ATOM     16  O   LIG A   1      -2.869  -0.302   4.330  0.00  0.00    -0.245 OA
ATOM     17  C   LIG A   1      -2.290   0.327   3.455  0.00  0.00    +0.342 C 
BRANCH  17  18
ATOM     18  O   LIG A   1      -2.231   1.689   3.389  0.00  0.00    -0.464 OA
ATOM     19  C   LIG A   1      -2.954   2.356   4.421  0.00  0.00    +0.280 C 
ENDBRANCH  17  18
ENDBRANCH  11  17
ENDBRANCH   1  14
TORSDOF 3
