@<TRIPOS>MOLECULE
NuBBE_2357
 53 56 0 0 0
SMALL
GASTEIGER

@<TRIPOS>ATOM
      1 C          -2.1368   -0.1475   -1.1755 C.3     1  LIG1       -0.0590
      2 C          -1.1130   -0.4553   -0.0453 C.3     1  LIG1       -0.0251
      3 C           0.0300   -1.3959   -0.5675 C.3     1  LIG1       -0.0302
      4 H           0.7133   -1.4627    0.2944 H       1  LIG1        0.0311
      5 C           0.8966   -0.7740   -1.6920 C.3     1  LIG1       -0.0484
      6 C           0.8970    0.7469   -1.7741 C.3     1  LIG1       -0.0433
      7 C           0.7393    1.4261   -0.4261 C.3     1  LIG1       -0.0070
      8 C           0.6287    2.9333   -0.5826 C.2     1  LIG1       -0.0759
      9 C           1.2610    3.5545    0.4226 C.2     1  LIG1       -0.0448
     10 C           1.4027    5.0183    0.6420 C.3     1  LIG1        0.0656
     11 O           0.7136    5.3902    1.8230 O.3     1  LIG1       -0.3907
     12 C          -0.4710    0.9284    0.4495 C.3     1  LIG1       -0.0262
     13 H          -1.2772    1.6735    0.3660 H       1  LIG1        0.0314
     14 C          -0.0755    0.9540    1.9655 C.3     1  LIG1       -0.0484
     15 C           0.8595    2.0951    2.4199 C.3     1  LIG1       -0.0461
     16 C           1.8679    2.5291    1.3520 C.3     1  LIG1       -0.0169
     17 H           2.8132    2.8712    1.7835 H       1  LIG1        0.0347
     18 C           2.0677    1.3781    0.3667 C.3     1  LIG1       -0.0370
     19 C          -0.3831   -2.8952   -0.8770 C.3     1  LIG1       -0.0315
     20 C           0.8387   -3.8038   -0.5832 C.3     1  LIG1       -0.0595
     21 C          -0.7854   -3.1667   -2.3446 C.3     1  LIG1       -0.0595
     22 C          -1.5581   -3.3635    0.0144 C.3     1  LIG1       -0.0476
     23 C          -1.6137   -2.6157    1.3308 C.3     1  LIG1       -0.0521
     24 C          -1.9535   -1.1493    1.0886 C.3     1  LIG1       -0.0471
     25 H          -1.6858    0.2157   -2.0973 H       1  LIG1        0.0235
     26 H          -2.8585    0.6109   -0.8488 H       1  LIG1        0.0235
     27 H          -2.7195   -1.0349   -1.4420 H       1  LIG1        0.0235
     28 H           0.6018   -1.1273   -2.6826 H       1  LIG1        0.0269
     29 H           1.9300   -1.1185   -1.5534 H       1  LIG1        0.0269
     30 H           0.1069    1.0804   -2.4559 H       1  LIG1        0.0274
     31 H           1.8237    1.0681   -2.2702 H       1  LIG1        0.0274
     32 H           0.0833    3.4221   -1.3794 H       1  LIG1        0.0578
     33 H           2.4563    5.2928    0.7490 H       1  LIG1        0.0604
     34 H           0.9890    5.5932   -0.1931 H       1  LIG1        0.0604
     35 H          -0.1920    5.0480    1.7311 H       1  LIG1        0.2098
     36 H           0.4062    0.0019    2.2235 H       1  LIG1        0.0269
     37 H          -0.9745    1.0295    2.5875 H       1  LIG1        0.0269
     38 H           1.4060    1.7463    3.3055 H       1  LIG1        0.0271
     39 H           0.2569    2.9455    2.7598 H       1  LIG1        0.0271
     40 H           2.2572    0.4150    0.8526 H       1  LIG1        0.0279
     41 H           2.9338    1.5818   -0.2803 H       1  LIG1        0.0279
     42 H           1.1401   -3.7415    0.4681 H       1  LIG1        0.0235
     43 H           1.7020   -3.5244   -1.1966 H       1  LIG1        0.0235
     44 H           0.6122   -4.8549   -0.7982 H       1  LIG1        0.0235
     45 H          -1.5257   -2.4490   -2.7068 H       1  LIG1        0.0235
     46 H          -1.2226   -4.1673   -2.4502 H       1  LIG1        0.0235
     47 H           0.0755   -3.1383   -3.0210 H       1  LIG1        0.0235
     48 H          -2.5146   -3.2190   -0.5055 H       1  LIG1        0.0271
     49 H          -1.4896   -4.4412    0.2091 H       1  LIG1        0.0271
     50 H          -0.6642   -2.7054    1.8706 H       1  LIG1        0.0266
     51 H          -2.3827   -3.0599    1.9738 H       1  LIG1        0.0266
     52 H          -1.8886   -0.6473    2.0524 H       1  LIG1        0.0271
     53 H          -3.0242   -1.0911    0.8472 H       1  LIG1        0.0271
@<TRIPOS>BOND
     1     2     3    1
     2     3     5    1
     3     5     6    1
     4     6     7    1
     5     7     8    1
     6     8     9    2
     7    10    11    1
     8     7    12    1
     9     2    12    1
    10    12    14    1
    11    14    15    1
    12    15    16    1
    13     9    16    1
    14    16    18    1
    15     7    18    1
    16     3    19    1
    17    19    22    1
    18    22    23    1
    19    23    24    1
    20     2    24    1
    21     1     2    1
    22     3     4    1
    23     9    10    1
    24    12    13    1
    25    16    17    1
    26    19    20    1
    27    19    21    1
    28     1    25    1
    29     1    26    1
    30     1    27    1
    31     5    28    1
    32     5    29    1
    33     6    30    1
    34     6    31    1
    35     8    32    1
    36    10    33    1
    37    10    34    1
    38    11    35    1
    39    14    36    1
    40    14    37    1
    41    15    38    1
    42    15    39    1
    43    18    40    1
    44    18    41    1
    45    20    42    1
    46    20    43    1
    47    20    44    1
    48    21    45    1
    49    21    46    1
    50    21    47    1
    51    22    48    1
    52    22    49    1
    53    23    50    1
    54    23    51    1
    55    24    52    1
    56    24    53    1
