@<TRIPOS>MOLECULE
NuBBE_366
 82 86 0 0 0
SMALL
GASTEIGER

@<TRIPOS>ATOM
      1 C          -2.9357   -1.3513    0.3698 C.3     1  LIG1       -0.0553
      2 C          -1.5142   -0.7380    0.1122 C.3     1  LIG1       -0.0051
      3 C          -1.0069   -1.2359   -1.3676 C.3     1  LIG1       -0.0194
      4 C          -1.5628   -0.3600   -2.5252 C.3     1  LIG1       -0.0463
      5 C          -0.7140    0.8436   -2.9313 C.3     1  LIG1       -0.0486
      6 C           0.7212    0.4133   -3.2783 C.3     1  LIG1       -0.0278
      7 H           0.6009   -0.4298   -3.9801 H       1  LIG1        0.0312
      8 C           1.5447    1.4692   -4.1072 C.3     1  LIG1       -0.0056
      9 C           0.8130    1.7787   -5.4438 C.3     1  LIG1       -0.0572
     10 C           2.9164    0.8335   -4.4792 C.3     1  LIG1        0.0606
     11 H           2.7403    0.0183   -5.1935 H       1  LIG1        0.0599
     12 C           3.6692    0.2473   -3.2907 C.3     1  LIG1       -0.0258
     13 C           2.8250   -0.7570   -2.5073 C.3     1  LIG1       -0.0447
     14 C           1.4416   -0.2044   -2.0225 C.3     1  LIG1       -0.0250
     15 C           0.5549   -1.4259   -1.5126 C.3     1  LIG1       -0.0257
     16 H           0.6703   -2.1281   -2.3548 H       1  LIG1        0.0315
     17 C           1.1175   -2.2249   -0.3196 C.3     1  LIG1       -0.0306
     18 C           0.5433   -1.8897    1.0175 C.2     1  LIG1       -0.0836
     19 C          -0.5675   -1.1733    1.2594 C.2     1  LIG1       -0.0631
     20 C          -1.0017   -0.7370    2.6811 C.3     1  LIG1       -0.0088
     21 H          -2.0079   -1.1644    2.7671 H       1  LIG1        0.0355
     22 C          -1.1938    0.8181    2.7836 C.3     1  LIG1        0.0007
     23 C           0.1505    1.5929    2.7107 C.3     1  LIG1        0.0504
     24 O          -0.0381    3.0058    2.6581 O.3     1  LIG1       -0.3944
     25 C          -2.1233    1.2953    1.6301 C.3     1  LIG1       -0.0439
     26 C          -1.6843    0.8030    0.2405 C.3     1  LIG1       -0.0428
     27 C          -1.9164    1.1479    4.1216 C.3     1  LIG1       -0.0445
     28 C          -1.2665    0.5263    5.3595 C.3     1  LIG1       -0.0496
     29 C          -1.0310   -0.9898    5.2403 C.3     1  LIG1       -0.0407
     30 H          -0.4089   -1.2974    6.0924 H       1  LIG1        0.0301
     31 C          -0.2781   -1.3568    3.9284 C.3     1  LIG1       -0.0342
     32 H          -0.3359   -2.4487    3.8091 H       1  LIG1        0.0307
     33 C           1.2184   -1.0351    4.1066 C.3     1  LIG1       -0.0616
     34 C          -2.3479   -1.7645    5.3888 C.3     1  LIG1       -0.0622
     35 C           1.7288    0.8098   -0.8989 C.3     1  LIG1       -0.0590
     36 O           3.7645    1.7640   -5.1508 O.3     1  LIG1       -0.3912
     37 C           1.7139    2.8254   -3.3938 C.3     1  LIG1       -0.0572
     38 C          -1.5927   -2.6768   -1.6547 C.3     1  LIG1       -0.0585
     39 H          -2.8929   -2.4359    0.5174 H       1  LIG1        0.0238
     40 H          -3.6144   -1.1326   -0.4621 H       1  LIG1        0.0238
     41 H          -3.4375   -0.9681    1.2606 H       1  LIG1        0.0238
     42 H          -2.5867   -0.0340   -2.3105 H       1  LIG1        0.0271
     43 H          -1.6592   -0.9810   -3.4280 H       1  LIG1        0.0271
     44 H          -0.7274    1.6185   -2.1646 H       1  LIG1        0.0268
     45 H          -1.2047    1.2877   -3.8028 H       1  LIG1        0.0268
     46 H           0.5509    0.8572   -5.9755 H       1  LIG1        0.0236
     47 H           1.4404    2.3769   -6.1148 H       1  LIG1        0.0236
     48 H          -0.1061    2.3516   -5.2858 H       1  LIG1        0.0236
     49 H           4.0427    1.0463   -2.6414 H       1  LIG1        0.0290
     50 H           4.5755   -0.2540   -3.6552 H       1  LIG1        0.0290
     51 H           3.4233   -1.1039   -1.6573 H       1  LIG1        0.0271
     52 H           2.6667   -1.6336   -3.1494 H       1  LIG1        0.0271
     53 H           2.2036   -2.1139   -0.2555 H       1  LIG1        0.0310
     54 H           0.9506   -3.2968   -0.4880 H       1  LIG1        0.0310
     55 H           1.1424   -2.2753    1.8352 H       1  LIG1        0.0572
     56 H           0.7652    1.4229    3.5927 H       1  LIG1        0.0563
     57 H           0.7480    1.3020    1.8448 H       1  LIG1        0.0563
     58 H          -0.2124    3.2419    1.7315 H       1  LIG1        0.2094
     59 H          -2.1906    2.3898    1.6100 H       1  LIG1        0.0272
     60 H          -3.1535    0.9744    1.8206 H       1  LIG1        0.0272
     61 H          -0.7536    1.3082    0.0041 H       1  LIG1        0.0274
     62 H          -2.4304    1.1671   -0.4746 H       1  LIG1        0.0274
     63 H          -2.9549    0.7952    4.0726 H       1  LIG1        0.0272
     64 H          -1.9815    2.2342    4.2614 H       1  LIG1        0.0272
     65 H          -1.8961    0.7341    6.2339 H       1  LIG1        0.0268
     66 H          -0.3157    1.0324    5.5596 H       1  LIG1        0.0268
     67 H           1.7196   -0.7458    3.1814 H       1  LIG1        0.0233
     68 H           1.7351   -1.9204    4.4962 H       1  LIG1        0.0233
     69 H           1.3988   -0.2400    4.8358 H       1  LIG1        0.0233
     70 H          -3.0883   -1.4938    4.6313 H       1  LIG1        0.0233
     71 H          -2.7959   -1.5682    6.3692 H       1  LIG1        0.0233
     72 H          -2.1713   -2.8430    5.3183 H       1  LIG1        0.0233
     73 H           1.7893    0.3314    0.0790 H       1  LIG1        0.0235
     74 H           0.9933    1.6092   -0.8478 H       1  LIG1        0.0235
     75 H           2.6936    1.3092   -1.0165 H       1  LIG1        0.0235
     76 H           4.0758    2.4167   -4.5013 H       1  LIG1        0.2098
     77 H           2.4107    2.7803   -2.5564 H       1  LIG1        0.0236
     78 H           0.7583    3.2073   -3.0211 H       1  LIG1        0.0236
     79 H           2.1085    3.5854   -4.0792 H       1  LIG1        0.0236
     80 H          -2.6775   -2.6580   -1.8053 H       1  LIG1        0.0235
     81 H          -1.3673   -3.3823   -0.8488 H       1  LIG1        0.0235
     82 H          -1.1812   -3.1025   -2.5785 H       1  LIG1        0.0235
@<TRIPOS>BOND
     1     2     3    1
     2     3     4    1
     3     4     5    1
     4     5     6    1
     5     6     8    1
     6     8    10    1
     7    10    12    1
     8    12    13    1
     9    13    14    1
    10    14    15    1
    11    15    17    1
    12    17    18    1
    13    18    19    2
    14     2    19    1
    15    19    20    1
    16    20    22    1
    17    23    24    1
    18    22    25    1
    19    25    26    1
    20     2    26    1
    21    22    27    1
    22    27    28    1
    23    28    29    1
    24    29    31    1
    25    20    31    1
    26     6    14    1
    27    15     3    1
    28     1     2    1
    29     3    38    1
    30     6     7    1
    31     8     9    1
    32     8    37    1
    33    10    11    1
    34    10    36    1
    35    14    35    1
    36    15    16    1
    37    20    21    1
    38    22    23    1
    39    29    30    1
    40    29    34    1
    41    31    32    1
    42    31    33    1
    43     1    39    1
    44     1    40    1
    45     1    41    1
    46     4    42    1
    47     4    43    1
    48     5    44    1
    49     5    45    1
    50     9    46    1
    51     9    47    1
    52     9    48    1
    53    12    49    1
    54    12    50    1
    55    13    51    1
    56    13    52    1
    57    17    53    1
    58    17    54    1
    59    18    55    1
    60    23    56    1
    61    23    57    1
    62    24    58    1
    63    25    59    1
    64    25    60    1
    65    26    61    1
    66    26    62    1
    67    27    63    1
    68    27    64    1
    69    28    65    1
    70    28    66    1
    71    33    67    1
    72    33    68    1
    73    33    69    1
    74    34    70    1
    75    34    71    1
    76    34    72    1
    77    35    73    1
    78    35    74    1
    79    35    75    1
    80    36    76    1
    81    37    77    1
    82    37    78    1
    83    37    79    1
    84    38    80    1
    85    38    81    1
    86    38    82    1
