@<TRIPOS>MOLECULE
NuBBE_632
 54 54 0 0 0
SMALL
GASTEIGER

@<TRIPOS>ATOM
      1 O           4.0891    0.9482   -1.0767 O.2     1  LIG1       -0.2450
      2 C           3.5702    0.3751   -1.9460 C.2     1  LIG1        0.3394
      3 O           2.8561    0.8885   -3.0122 O.3     1  LIG1       -0.4612
      4 C           2.3593    2.2192   -2.8285 C.3     1  LIG1        0.0928
      5 C           0.9776    2.1565   -2.1939 C.3     1  LIG1       -0.0185
      6 C           1.0583    1.4616   -0.8565 C.3     1  LIG1       -0.0500
      7 C          -0.2794    1.2677   -0.2549 C.3     1  LIG1       -0.0530
      8 C          -0.0534    0.3949    0.9712 C.3     1  LIG1       -0.0531
      9 C          -1.4103   -0.0346    1.4150 C.3     1  LIG1       -0.0531
     10 C          -2.6382   -0.6802    0.8351 C.3     1  LIG1       -0.0531
     11 C          -3.9633   -0.5724    1.7199 C.3     1  LIG1       -0.0531
     12 C          -4.7166    0.8098    1.9787 C.3     1  LIG1       -0.0531
     13 C          -4.2827    1.8628    3.0887 C.3     1  LIG1       -0.0533
     14 C          -2.9674    2.6420    2.8904 C.3     1  LIG1       -0.0559
     15 C          -1.9119    1.6753    3.2258 C.3     1  LIG1       -0.0653
     16 C           3.4051   -1.1165   -2.0104 C.ar    1  LIG1        0.0661
     17 C           4.3472   -1.9026   -1.3383 C.ar    1  LIG1       -0.0023
     18 C           4.2003   -3.2857   -1.3680 C.ar    1  LIG1        0.1628
     19 O           5.0937   -4.1202   -0.7583 O.3     1  LIG1       -0.5032
     20 C           3.1214   -3.8666   -2.0333 C.ar    1  LIG1        0.2006
     21 O           2.9855   -5.2269   -2.0847 O.3     1  LIG1       -0.5009
     22 C           2.1678   -3.0761   -2.6552 C.ar    1  LIG1        0.1628
     23 O           1.1039   -3.6383   -3.2950 O.3     1  LIG1       -0.5032
     24 C           2.2933   -1.7002   -2.6400 C.ar    1  LIG1       -0.0023
     25 H           2.2736    2.6737   -3.8193 H       1  LIG1        0.0697
     26 H           3.0409    2.8293   -2.2290 H       1  LIG1        0.0697
     27 H           0.2856    1.5988   -2.8386 H       1  LIG1        0.0298
     28 H           0.5738    3.1658   -2.0656 H       1  LIG1        0.0298
     29 H           1.7063    2.0080   -0.1626 H       1  LIG1        0.0266
     30 H           1.4341    0.4455   -0.9553 H       1  LIG1        0.0266
     31 H          -0.9615    0.7486   -0.9335 H       1  LIG1        0.0265
     32 H          -0.7412    2.2439   -0.0251 H       1  LIG1        0.0265
     33 H           0.4491    1.0429    1.7240 H       1  LIG1        0.0265
     34 H           0.5860   -0.4797    0.8814 H       1  LIG1        0.0265
     35 H          -1.8169    0.9602    1.2276 H       1  LIG1        0.0265
     36 H          -1.2836   -0.4309    2.4335 H       1  LIG1        0.0265
     37 H          -2.3617   -1.7239    0.6990 H       1  LIG1        0.0265
     38 H          -2.8604   -0.1941   -0.1170 H       1  LIG1        0.0265
     39 H          -3.8374   -1.0910    2.6802 H       1  LIG1        0.0265
     40 H          -4.6865   -1.1884    1.1599 H       1  LIG1        0.0265
     41 H          -5.7335    0.5170    2.3015 H       1  LIG1        0.0265
     42 H          -4.8557    1.3175    1.0198 H       1  LIG1        0.0265
     43 H          -4.2114    1.3114    4.0379 H       1  LIG1        0.0265
     44 H          -5.0566    2.6242    3.1906 H       1  LIG1        0.0265
     45 H          -2.7244    3.4655    3.5571 H       1  LIG1        0.0263
     46 H          -2.8912    2.9662    1.8380 H       1  LIG1        0.0263
     47 H          -1.7660    1.0969    4.1325 H       1  LIG1        0.0230
     48 H          -0.9714    1.9834    2.7722 H       1  LIG1        0.0230
     49 H          -2.4567    0.8951    2.7520 H       1  LIG1        0.0230
     50 H           5.1732   -1.4306   -0.8159 H       1  LIG1        0.0663
     51 H           5.7600   -3.5748   -0.3030 H       1  LIG1        0.2923
     52 H           3.7646   -5.5636   -1.5967 H       1  LIG1        0.2924
     53 H           1.2448   -4.6029   -3.2130 H       1  LIG1        0.2923
     54 H           1.5186   -1.0952   -3.1051 H       1  LIG1        0.0663
@<TRIPOS>BOND
     1     1     2    2
     2     2     3    1
     3     3     4    1
     4     4     5    1
     5     5     6    1
     6     6     7    1
     7     7     8    1
     8     8     9    1
     9     9    10    1
    10    10    11    1
    11    11    12    1
    12    12    13    1
    13    13    14    1
    14    14    15    1
    15     2    16    1
    16    16    17   ar
    17    17    18   ar
    18    18    19    1
    19    18    20   ar
    20    20    21    1
    21    20    22   ar
    22    22    23    1
    23    22    24   ar
    24    16    24   ar
    25     4    25    1
    26     4    26    1
    27     5    27    1
    28     5    28    1
    29     6    29    1
    30     6    30    1
    31     7    31    1
    32     7    32    1
    33     8    33    1
    34     8    34    1
    35     9    35    1
    36     9    36    1
    37    10    37    1
    38    10    38    1
    39    11    39    1
    40    11    40    1
    41    12    41    1
    42    12    42    1
    43    13    43    1
    44    13    44    1
    45    14    45    1
    46    14    46    1
    47    15    47    1
    48    15    48    1
    49    15    49    1
    50    17    50    1
    51    19    51    1
    52    21    52    1
    53    23    53    1
    54    24    54    1
