REMARK  Name = NuBBE_1819
REMARK  12 active torsions:
REMARK  status: ('A' for Active; 'I' for Inactive)
REMARK    1  A    between atoms: O_1  and  C_2
REMARK    2  A    between atoms: C_4  and  O_5
REMARK    3  A    between atoms: O_5  and  C_6
REMARK    4  A    between atoms: C_8  and  O_10
REMARK    5  A    between atoms: C_11  and  O_13
REMARK    6  A    between atoms: C_14  and  O_16
REMARK    7  A    between atoms: C_17  and  C_19
REMARK    8  A    between atoms: C_19  and  O_20
REMARK    9  A    between atoms: C_23  and  O_24
REMARK   10  A    between atoms: C_28  and  C_29
REMARK   11  A    between atoms: C_30  and  C_31
REMARK   12  A    between atoms: C_31  and  C_32
REMARK                            x       y       z     vdW  Elec       q    Type
REMARK                         _______ _______ _______ _____ _____    ______ ____
ROOT
ATOM      1  C   LIG A   1      -2.607   2.163   1.117  0.00  0.00    +0.121 A 
ATOM      2  C   LIG A   1      -2.111   0.937   0.706  0.00  0.00    +0.091 A 
ATOM      3  C   LIG A   1      -0.827   0.825   0.161  0.00  0.00    +0.139 A 
ATOM      4  C   LIG A   1       0.010   1.990   0.050  0.00  0.00    +0.066 A 
ATOM      5  C   LIG A   1       1.359   2.043  -0.436  0.00  0.00    +0.139 A 
ATOM      6  C   LIG A   1      -1.832   3.295   1.019  0.00  0.00    +0.054 A 
ATOM      7  C   LIG A   1      -0.537   3.218   0.505  0.00  0.00    -0.007 A 
ATOM      8  C   LIG A   1       0.207   4.395   0.471  0.00  0.00    +0.013 A 
ATOM      9  C   LIG A   1       1.535   4.431   0.020  0.00  0.00    -0.036 A 
ATOM     10  C   LIG A   1       2.215   5.777   0.054  0.00  0.00    +0.044 C 
ATOM     11  C   LIG A   1       2.133   3.228  -0.427  0.00  0.00    +0.062 A 
ENDROOT
BRANCH  11  12
ATOM     12  C   LIG A   1       3.588   3.234  -0.811  0.00  0.00    +0.164 C 
ATOM     13  C   LIG A   1       4.118   2.287  -1.862  0.00  0.00    +0.091 C 
ATOM     14  O   LIG A   1       4.372   4.031  -0.259  0.00  0.00    -0.292 OA
ENDBRANCH  11  12
BRANCH   1  15
ATOM     15  O   LIG A   1      -3.865   2.291   1.626  0.00  0.00    -0.507 OA
ATOM     16  H   LIG A   1      -4.342   1.452   1.506  0.00  0.00    +0.292 HD
ENDBRANCH   1  15
BRANCH   5  17
ATOM     17  O   LIG A   1       1.946   0.878  -0.877  0.00  0.00    -0.505 OA
ATOM     18  H   LIG A   1       1.290   0.157  -0.806  0.00  0.00    +0.292 HD
ENDBRANCH   5  17
BRANCH   3  19
ATOM     19  O   LIG A   1      -0.330  -0.368  -0.330  0.00  0.00    -0.460 OA
BRANCH  19  20
ATOM     20  C   LIG A   1      -0.818  -1.624   0.211  0.00  0.00    +0.339 C 
ATOM     21  C   LIG A   1      -2.061  -2.160  -0.575  0.00  0.00    +0.214 C 
ATOM     22  C   LIG A   1      -2.063  -3.695  -0.716  0.00  0.00    +0.180 C 
ATOM     23  C   LIG A   1      -1.455  -4.332   0.542  0.00  0.00    +0.177 C 
ATOM     24  C   LIG A   1      -0.022  -3.812   0.805  0.00  0.00    +0.179 C 
ATOM     25  O   LIG A   1       0.255  -2.578   0.108  0.00  0.00    -0.331 OA
BRANCH  21  26
ATOM     26  O   LIG A   1      -3.281  -1.826   0.130  0.00  0.00    -0.383 OA
ATOM     27  H   LIG A   1      -3.222  -2.273   1.000  0.00  0.00    +0.210 HD
ENDBRANCH  21  26
BRANCH  22  28
ATOM     28  O   LIG A   1      -1.448  -4.114  -1.928  0.00  0.00    -0.386 OA
ATOM     29  H   LIG A   1      -0.521  -4.373  -1.743  0.00  0.00    +0.210 HD
ENDBRANCH  22  28
BRANCH  23  30
ATOM     30  O   LIG A   1      -2.283  -3.963   1.667  0.00  0.00    -0.387 OA
ATOM     31  H   LIG A   1      -3.037  -4.585   1.673  0.00  0.00    +0.210 HD
ENDBRANCH  23  30
BRANCH  24  32
ATOM     32  C   LIG A   1       1.024  -4.843   0.353  0.00  0.00    +0.190 C 
BRANCH  32  33
ATOM     33  O   LIG A   1       0.889  -5.104  -1.046  0.00  0.00    -0.392 OA
ATOM     34  H   LIG A   1       1.683  -4.730  -1.476  0.00  0.00    +0.209 HD
ENDBRANCH  32  33
ENDBRANCH  24  32
ENDBRANCH  19  20
ENDBRANCH   3  19
TORSDOF 10
