@<TRIPOS>MOLECULE
NuBBE_177
 35 37 0 0 0
SMALL
GASTEIGER

@<TRIPOS>ATOM
      1 O          -4.0764   -1.0471    0.0413 O.2     1  LIG1       -0.2870
      2 C          -2.8597   -0.9822    0.0741 C.ar    1  LIG1        0.1931
      3 C          -2.1692    0.3181    0.0766 C.ar    1  LIG1        0.0287
      4 C          -0.8297    0.3577    0.1222 C.ar    1  LIG1        0.1392
      5 O          -0.0241   -0.7637    0.1821 O.2     1  LIG1       -0.4545
      6 C          -0.6213   -1.9944    0.1552 C.ar    1  LIG1        0.1427
      7 C          -1.9990   -2.1734    0.1031 C.ar    1  LIG1        0.0642
      8 C          -2.5378   -3.4581    0.0722 C.ar    1  LIG1       -0.0439
      9 C          -1.6767   -4.5604    0.0878 C.ar    1  LIG1       -0.0190
     10 C          -0.2886   -4.3820    0.1375 C.ar    1  LIG1        0.1236
     11 O           0.4557   -5.5302    0.1408 O.3     1  LIG1       -0.4950
     12 C           1.8705   -5.3581    0.1559 C.3     1  LIG1        0.0788
     13 C           0.2349   -3.0913    0.1768 C.ar    1  LIG1        0.0231
     14 C          -0.0799    1.6257    0.1116 C.ar    1  LIG1        0.0176
     15 C          -0.5731    2.7433   -0.5711 C.ar    1  LIG1       -0.0476
     16 C           0.1382    3.9415   -0.5921 C.ar    1  LIG1       -0.0193
     17 C           1.3706    4.0409    0.0502 C.ar    1  LIG1        0.1201
     18 C           1.8793    2.9322    0.7269 C.ar    1  LIG1       -0.0193
     19 C           1.1625    1.7321    0.7554 C.ar    1  LIG1       -0.0476
     20 O           2.1572    5.1596    0.0753 O.3     1  LIG1       -0.4951
     21 C           1.6650    6.2753   -0.6597 C.3     1  LIG1        0.0788
     22 H          -2.8053    1.1923    0.0443 H       1  LIG1        0.0693
     23 H          -3.6149   -3.6025    0.0313 H       1  LIG1        0.0627
     24 H          -2.0918   -5.5651    0.0574 H       1  LIG1        0.0654
     25 H           2.3348   -6.3476    0.1447 H       1  LIG1        0.0660
     26 H           2.1940   -4.8479    1.0701 H       1  LIG1        0.0660
     27 H           2.2111   -4.8193   -0.7357 H       1  LIG1        0.0660
     28 H           1.3014   -2.9001    0.2192 H       1  LIG1        0.0691
     29 H          -1.5157    2.7017   -1.1109 H       1  LIG1        0.0626
     30 H          -0.3048    4.7741   -1.1266 H       1  LIG1        0.0654
     31 H           2.8387    2.9988    1.2345 H       1  LIG1        0.0654
     32 H           1.5862    0.8840    1.2903 H       1  LIG1        0.0626
     33 H           2.4027    7.0787   -0.5952 H       1  LIG1        0.0660
     34 H           0.7281    6.6428   -0.2267 H       1  LIG1        0.0660
     35 H           1.5371    6.0246   -1.7190 H       1  LIG1        0.0660
@<TRIPOS>BOND
     1     1     2    2
     2     2     3   ar
     3     3     4   ar
     4     4     5   ar
     5     5     6   ar
     6     6     7   ar
     7     2     7   ar
     8     7     8   ar
     9     8     9   ar
    10     9    10   ar
    11    10    11    1
    12    11    12    1
    13    10    13   ar
    14     6    13   ar
    15     4    14    1
    16    14    15   ar
    17    15    16   ar
    18    16    17   ar
    19    17    18   ar
    20    18    19   ar
    21    14    19   ar
    22    17    20    1
    23    20    21    1
    24     3    22    1
    25     8    23    1
    26     9    24    1
    27    12    25    1
    28    12    26    1
    29    12    27    1
    30    13    28    1
    31    15    29    1
    32    16    30    1
    33    18    31    1
    34    19    32    1
    35    21    33    1
    36    21    34    1
    37    21    35    1
