@<TRIPOS>MOLECULE
NuBBE_1457
 49 53 0 0 0
SMALL
GASTEIGER

@<TRIPOS>ATOM
      1 O           0.2372   -2.5535    0.6274 O.2     1  LIG1       -0.2864
      2 C          -0.0077   -1.4624    0.1282 C.ar    1  LIG1        0.2007
      3 C          -1.3821   -0.9326    0.1687 C.ar    1  LIG1        0.0654
      4 C          -2.3823   -1.6256    0.8594 C.ar    1  LIG1       -0.0439
      5 C          -3.6630   -1.0841    0.9451 C.ar    1  LIG1       -0.0184
      6 C          -3.9382    0.1491    0.3529 C.ar    1  LIG1        0.1324
      7 C          -2.9527    0.8323   -0.3723 C.ar    1  LIG1        0.0594
      8 C          -3.3056    2.0979   -1.0104 C.2     1  LIG1       -0.0478
      9 C          -4.4765    2.6576   -0.6889 C.2     1  LIG1       -0.0408
     10 C          -5.4411    2.0234    0.2870 C.3     1  LIG1        0.1235
     11 C          -6.8683    2.1345   -0.2617 C.3     1  LIG1       -0.0215
     12 O          -5.2158    0.6145    0.5099 O.3     1  LIG1       -0.4815
     13 C          -5.3569    2.7343    1.6442 C.3     1  LIG1       -0.0215
     14 C          -1.6649    0.2786   -0.4596 C.ar    1  LIG1        0.1496
     15 O          -0.7069    0.9654   -1.1630 O.2     1  LIG1       -0.4547
     16 C           0.6042    0.5349   -1.0967 C.ar    1  LIG1        0.1543
     17 C           1.0243   -0.5955   -0.5026 C.ar    1  LIG1        0.0745
     18 C           2.4784   -0.8459   -0.4946 C.ar    1  LIG1        0.0345
     19 C           3.0551   -2.0742   -0.1417 C.ar    1  LIG1       -0.0049
     20 C           4.4468   -2.2221   -0.0427 C.ar    1  LIG1        0.1623
     21 O           5.0643   -3.3968    0.3110 O.3     1  LIG1       -0.4914
     22 C           4.3020   -4.2921    1.1122 C.3     1  LIG1        0.0790
     23 C           5.2871   -1.1327   -0.3230 C.ar    1  LIG1        0.1650
     24 C           4.7269    0.0821   -0.7166 C.ar    1  LIG1        0.0260
     25 C           3.3396    0.2157   -0.8077 C.ar    1  LIG1        0.1327
     26 O           2.8882    1.4587   -1.1697 O.3     1  LIG1       -0.4836
     27 C           1.5793    1.4722   -1.7489 C.3     1  LIG1        0.1477
     28 O           6.6386   -1.3450   -0.2152 O.3     1  LIG1       -0.4913
     29 C           7.4159   -0.2085    0.1429 C.3     1  LIG1        0.0790
     30 H          -2.1639   -2.5760    1.3421 H       1  LIG1        0.0627
     31 H          -4.4429   -1.6118    1.4885 H       1  LIG1        0.0654
     32 H          -2.6157    2.5715   -1.6990 H       1  LIG1        0.0624
     33 H          -4.7432    3.6200   -1.1172 H       1  LIG1        0.0611
     34 H          -6.9636    1.6022   -1.2156 H       1  LIG1        0.0271
     35 H          -7.1682    3.1768   -0.4171 H       1  LIG1        0.0271
     36 H          -7.5866    1.6697    0.4241 H       1  LIG1        0.0271
     37 H          -6.0484    2.2819    2.3645 H       1  LIG1        0.0271
     38 H          -5.5912    3.8013    1.5618 H       1  LIG1        0.0271
     39 H          -4.3548    2.6380    2.0794 H       1  LIG1        0.0271
     40 H           2.4166   -2.9279    0.0553 H       1  LIG1        0.0663
     41 H           3.5602   -4.8209    0.5059 H       1  LIG1        0.0660
     42 H           3.8288   -3.7771    1.9557 H       1  LIG1        0.0660
     43 H           4.9888   -5.0386    1.5227 H       1  LIG1        0.0660
     44 H           5.3461    0.9356   -0.9702 H       1  LIG1        0.0692
     45 H           1.6612    1.2506   -2.8199 H       1  LIG1        0.0779
     46 H           1.2158    2.5020   -1.6583 H       1  LIG1        0.0779
     47 H           8.4013   -0.5640    0.4589 H       1  LIG1        0.0660
     48 H           6.9732    0.3364    0.9839 H       1  LIG1        0.0660
     49 H           7.5605    0.4500   -0.7193 H       1  LIG1        0.0660
@<TRIPOS>BOND
     1     1     2    2
     2     2     3   ar
     3     3     4   ar
     4     4     5   ar
     5     5     6   ar
     6     6     7   ar
     7     7     8    1
     8     8     9    2
     9     9    10    1
    10    10    11    1
    11    10    12    1
    12     6    12    1
    13    10    13    1
    14     7    14   ar
    15     3    14   ar
    16    14    15   ar
    17    15    16   ar
    18    16    17   ar
    19     2    17   ar
    20    17    18    1
    21    18    19   ar
    22    19    20   ar
    23    20    21    1
    24    21    22    1
    25    20    23   ar
    26    23    24   ar
    27    24    25   ar
    28    18    25   ar
    29    25    26    1
    30    26    27    1
    31    16    27    1
    32    23    28    1
    33    28    29    1
    34     4    30    1
    35     5    31    1
    36     8    32    1
    37     9    33    1
    38    11    34    1
    39    11    35    1
    40    11    36    1
    41    13    37    1
    42    13    38    1
    43    13    39    1
    44    19    40    1
    45    22    41    1
    46    22    42    1
    47    22    43    1
    48    24    44    1
    49    27    45    1
    50    27    46    1
    51    29    47    1
    52    29    48    1
    53    29    49    1
