REMARK  Name = NuBBE_2383
REMARK  12 active torsions:
REMARK  status: ('A' for Active; 'I' for Inactive)
REMARK    1  A    between atoms: C_1  and  C_25
REMARK    2  A    between atoms: C_1  and  C_26
REMARK    3  A    between atoms: C_3  and  C_4
REMARK    4  A    between atoms: C_4  and  O_5
REMARK    5  A    between atoms: C_4  and  O_6
REMARK    6  A    between atoms: C_8  and  O_20
REMARK    7  A    between atoms: C_9  and  O_10
REMARK    8  A    between atoms: O_10  and  C_11
REMARK    9  A    between atoms: C_12  and  C_17
REMARK   10  A    between atoms: C_17  and  C_18
REMARK   11  A    between atoms: C_17  and  C_19
REMARK   12  A    between atoms: O_20  and  C_21
REMARK                            x       y       z     vdW  Elec       q    Type
REMARK                         _______ _______ _______ _____ _____    ______ ____
ROOT
ATOM      1  C   LIG A   1      -0.645  -3.097  -2.127  0.00  0.00    -0.031 C 
ATOM      2  C   LIG A   1      -0.641  -2.200  -0.824  0.00  0.00    +0.013 C 
ATOM      3  C   LIG A   1      -0.565  -0.616  -1.103  0.00  0.00    +0.075 C 
ATOM      4  C   LIG A   1       0.097   0.206   0.075  0.00  0.00    +0.015 A 
ATOM      5  C   LIG A   1       0.207   1.640   0.049  0.00  0.00    +0.166 A 
ATOM      6  C   LIG A   1       0.505   2.362   1.243  0.00  0.00    +0.165 A 
ATOM      7  C   LIG A   1       0.981   1.696   2.382  0.00  0.00    +0.001 A 
ATOM      8  C   LIG A   1       0.965   0.288   2.361  0.00  0.00    +0.011 A 
ATOM      9  C   LIG A   1       0.498  -0.436   1.244  0.00  0.00    -0.039 A 
ATOM     10  C   LIG A   1       0.390  -1.920   1.449  0.00  0.00    +0.036 C 
ATOM     11  C   LIG A   1       0.473  -2.660   0.139  0.00  0.00    +0.010 C 
ATOM     12  C   LIG A   1       0.206  -0.373  -2.444  0.00  0.00    +0.019 C 
ATOM     13  C   LIG A   1       1.214  -1.453  -2.838  0.00  0.00    +0.002 C 
ATOM     14  C   LIG A   1       0.669  -2.880  -2.903  0.00  0.00    +0.007 C 
ATOM     15  C   LIG A   1      -0.785  -4.601  -1.768  0.00  0.00    +0.011 C 
ATOM     16  C   LIG A   1      -1.837  -2.827  -3.076  0.00  0.00    +0.011 C 
ENDROOT
BRANCH   7  17
ATOM     17  C   LIG A   1       1.465   2.403   3.651  0.00  0.00    +0.017 C 
ATOM     18  C   LIG A   1       2.571   1.648   4.431  0.00  0.00    +0.012 C 
ATOM     19  C   LIG A   1       0.316   2.686   4.625  0.00  0.00    +0.012 C 
ENDBRANCH   7  17
BRANCH   6  20
ATOM     20  O   LIG A   1       0.341   3.728   1.368  0.00  0.00    -0.491 OA
ATOM     21  C   LIG A   1      -0.827   4.304   0.769  0.00  0.00    +0.277 C 
ENDBRANCH   6  20
BRANCH   5  22
ATOM     22  O   LIG A   1      -0.080   2.237  -1.156  0.00  0.00    -0.491 OA
ATOM     23  C   LIG A   1       0.686   3.376  -1.561  0.00  0.00    +0.277 C 
ENDBRANCH   5  22
BRANCH   3  24
ATOM     24  C   LIG A   1      -2.088  -0.143  -1.228  0.00  0.00    +0.356 C 
BRANCH  24  25
ATOM     25  O   LIG A   1      -2.327   1.116  -1.813  0.00  0.00    -0.507 OA
ATOM     26  H   LIG A   1      -1.658   1.711  -1.433  0.00  0.00    +0.287 HD
ENDBRANCH  24  25
BRANCH  24  27
ATOM     27  O   LIG A   1      -2.760  -0.167   0.021  0.00  0.00    -0.507 OA
ATOM     28  H   LIG A   1      -3.700  -0.075  -0.206  0.00  0.00    +0.287 HD
ENDBRANCH  24  27
ENDBRANCH   3  24
TORSDOF 6
