@<TRIPOS>MOLECULE
NuBBE_1269
 56 58 0 0 0
SMALL
GASTEIGER

@<TRIPOS>ATOM
      1 O          -3.7428    0.9957    0.4328 O.2     1  LIG1       -0.2449
      2 C          -2.5600    1.0999    0.1677 C.ar    1  LIG1        0.3413
      3 C          -1.8805    2.4197   -0.0385 C.ar    1  LIG1        0.0471
      4 C          -2.7807    3.6880   -0.0706 C.3     1  LIG1        0.0146
      5 C          -3.7941    3.5925   -1.2345 C.3     1  LIG1       -0.0521
      6 C          -3.5777    3.8476    1.2488 C.3     1  LIG1       -0.0521
      7 C          -1.9645    4.9697   -0.3544 C.2     1  LIG1       -0.0809
      8 C          -1.8286    6.0614    0.4151 C.2     1  LIG1       -0.1018
      9 C          -0.5436    2.4140   -0.2117 C.ar    1  LIG1       -0.0367
     10 C           0.2783    1.1999   -0.1499 C.ar    1  LIG1        0.0604
     11 C           1.6789    1.2072   -0.1482 C.ar    1  LIG1        0.1381
     12 O           2.3974    2.3793   -0.1953 O.3     1  LIG1       -0.5053
     13 C           2.4046    0.0060   -0.0729 C.ar    1  LIG1        0.0590
     14 C           3.8677    0.0118    0.0068 C.2     1  LIG1       -0.0478
     15 C           4.5232   -1.1515    0.0389 C.2     1  LIG1       -0.0408
     16 C           3.8184   -2.4760   -0.0081 C.3     1  LIG1        0.1235
     17 C           4.0961   -3.1760   -1.3438 C.3     1  LIG1       -0.0215
     18 C           4.2885   -3.3675    1.1473 C.3     1  LIG1       -0.0215
     19 O           2.3961   -2.3931    0.1431 O.3     1  LIG1       -0.4811
     20 C           1.7153   -1.2226   -0.0196 C.ar    1  LIG1        0.1399
     21 C           0.3006   -1.2932   -0.0565 C.ar    1  LIG1        0.0473
     22 C          -0.5053   -2.6370   -0.0390 C.3     1  LIG1        0.0148
     23 C          -1.3761   -2.6960    1.2243 C.2     1  LIG1       -0.0809
     24 C          -2.7098   -2.8184    1.3037 C.2     1  LIG1       -0.1018
     25 C          -1.3178   -2.7774   -1.3561 C.3     1  LIG1       -0.0521
     26 C           0.3422   -3.9400    0.0112 C.3     1  LIG1       -0.0521
     27 C          -0.3710   -0.0404   -0.0962 C.ar    1  LIG1        0.1501
     28 O          -1.7830   -0.0390   -0.0182 O.2     1  LIG1       -0.4214
     29 H          -4.4615    2.7308   -1.1382 H       1  LIG1        0.0241
     30 H          -3.2886    3.5082   -2.2041 H       1  LIG1        0.0241
     31 H          -4.4360    4.4818   -1.2729 H       1  LIG1        0.0241
     32 H          -4.2797    3.0286    1.4247 H       1  LIG1        0.0241
     33 H          -4.1934    4.7566    1.2330 H       1  LIG1        0.0241
     34 H          -2.9137    3.9033    2.1190 H       1  LIG1        0.0241
     35 H          -1.4580    4.9933   -1.3211 H       1  LIG1        0.0575
     36 H          -2.3067    6.1678    1.3836 H       1  LIG1        0.0532
     37 H          -1.2343    6.9065    0.0778 H       1  LIG1        0.0532
     38 H          -0.0223    3.3399   -0.4221 H       1  LIG1        0.0631
     39 H           1.8765    3.0951    0.1998 H       1  LIG1        0.2922
     40 H           4.3977    0.9574    0.0325 H       1  LIG1        0.0624
     41 H           5.6086   -1.1545    0.0843 H       1  LIG1        0.0611
     42 H           5.1664   -3.3458   -1.5024 H       1  LIG1        0.0271
     43 H           3.7120   -2.5860   -2.1846 H       1  LIG1        0.0271
     44 H           3.5844   -4.1448   -1.3921 H       1  LIG1        0.0271
     45 H           5.3667   -3.5538    1.1157 H       1  LIG1        0.0271
     46 H           3.7709   -4.3350    1.1255 H       1  LIG1        0.0271
     47 H           4.0410   -2.9139    2.1149 H       1  LIG1        0.0271
     48 H          -0.8272   -2.6256    2.1639 H       1  LIG1        0.0575
     49 H          -3.3484   -2.8806    0.4291 H       1  LIG1        0.0532
     50 H          -3.2064   -2.8357    2.2694 H       1  LIG1        0.0532
     51 H          -2.1572   -2.0803   -1.4279 H       1  LIG1        0.0241
     52 H          -1.7444   -3.7862   -1.4503 H       1  LIG1        0.0241
     53 H          -0.6793   -2.6184   -2.2328 H       1  LIG1        0.0241
     54 H           0.8614   -4.0602    0.9705 H       1  LIG1        0.0241
     55 H           1.0753   -3.9757   -0.8030 H       1  LIG1        0.0241
     56 H          -0.2754   -4.8372   -0.1181 H       1  LIG1        0.0241
@<TRIPOS>BOND
     1     1     2    2
     2     2     3   ar
     3     3     4    1
     4     4     5    1
     5     4     6    1
     6     4     7    1
     7     7     8    2
     8     3     9   ar
     9     9    10   ar
    10    10    11   ar
    11    11    12    1
    12    11    13   ar
    13    13    14    1
    14    14    15    2
    15    15    16    1
    16    16    17    1
    17    16    18    1
    18    16    19    1
    19    13    20   ar
    20    19    20    1
    21    20    21   ar
    22    21    22    1
    23    22    23    1
    24    23    24    2
    25    22    25    1
    26    22    26    1
    27    21    27   ar
    28    10    27   ar
    29    27    28   ar
    30     2    28   ar
    31     5    29    1
    32     5    30    1
    33     5    31    1
    34     6    32    1
    35     6    33    1
    36     6    34    1
    37     7    35    1
    38     8    36    1
    39     8    37    1
    40     9    38    1
    41    12    39    1
    42    14    40    1
    43    15    41    1
    44    17    42    1
    45    17    43    1
    46    17    44    1
    47    18    45    1
    48    18    46    1
    49    18    47    1
    50    23    48    1
    51    24    49    1
    52    24    50    1
    53    25    51    1
    54    25    52    1
    55    25    53    1
    56    26    54    1
    57    26    55    1
    58    26    56    1
