REMARK  Name = NuBBE_416
REMARK  8 active torsions:
REMARK  status: ('A' for Active; 'I' for Inactive)
REMARK    1  A    between atoms: C_3  and  C_28
REMARK    2  A    between atoms: C_8  and  C_9
REMARK    3  A    between atoms: C_12  and  C_13
REMARK    4  A    between atoms: C_14  and  C_15
REMARK    5  A    between atoms: C_18  and  C_19
REMARK    6  A    between atoms: C_23  and  C_24
REMARK    7  A    between atoms: C_23  and  C_25
REMARK    8  A    between atoms: C_29  and  C_31
REMARK                            x       y       z     vdW  Elec       q    Type
REMARK                         _______ _______ _______ _____ _____    ______ ____
ROOT
ATOM      1  C   LIG A   1      -0.000   3.319   0.708  0.00  0.00    +0.002 C 
ATOM      2  C   LIG A   1       1.060   3.983  -0.364  0.00  0.00    -0.019 C 
ATOM      3  C   LIG A   1       1.171   3.001  -1.522  0.00  0.00    +0.008 C 
ATOM      4  C   LIG A   1       1.835   1.732  -1.023  0.00  0.00    +0.005 C 
ATOM      5  C   LIG A   1       0.912   1.002  -0.024  0.00  0.00    +0.002 C 
ATOM      6  C   LIG A   1       0.360   1.829   1.275  0.00  0.00    -0.025 C 
ATOM      7  C   LIG A   1       0.739   2.033   2.790  0.00  0.00    +0.012 C 
ATOM      8  C   LIG A   1      -0.747   0.791   1.631  0.00  0.00    +0.008 C 
ATOM      9  C   LIG A   1       0.001  -0.682   2.120  0.00  0.00    +0.008 C 
ATOM     10  C   LIG A   1      -0.056  -1.567   0.854  0.00  0.00    -0.023 C 
ATOM     11  C   LIG A   1      -1.647  -1.657   1.137  0.00  0.00    +0.012 C 
ATOM     12  C   LIG A   1       1.226  -0.563   0.061  0.00  0.00    -0.023 C 
ATOM     13  C   LIG A   1       2.600  -0.585   0.875  0.00  0.00    +0.012 C 
ATOM     14  C   LIG A   1       1.694  -1.128  -1.402  0.00  0.00    +0.008 C 
ATOM     15  C   LIG A   1       1.140  -2.499  -1.817  0.00  0.00    +0.007 C 
ATOM     16  C   LIG A   1      -0.282  -2.515  -1.190  0.00  0.00    -0.029 C 
ATOM     17  C   LIG A   1      -0.984  -1.229  -1.765  0.00  0.00    +0.011 C 
ATOM     18  C   LIG A   1       0.326  -3.030   0.157  0.00  0.00    +0.002 C 
ATOM     19  C   LIG A   1       0.084  -4.756  -0.661  0.00  0.00    +0.011 C 
ATOM     20  C   LIG A   1      -1.406  -5.596  -0.472  0.00  0.00    -0.035 C 
ATOM     21  C   LIG A   1      -1.106  -7.077  -0.525  0.00  0.00    +0.011 C 
ATOM     22  C   LIG A   1      -3.016  -5.593  -0.631  0.00  0.00    +0.011 C 
ATOM     23  C   LIG A   1      -1.565  -4.476   0.452  0.00  0.00    +0.007 C 
ATOM     24  C   LIG A   1      -1.597  -3.375  -0.964  0.00  0.00    +0.007 C 
ATOM     25  C   LIG A   1       2.546   4.281   0.049  0.00  0.00    +0.012 C 
ATOM     26  C   LIG A   1       0.533   5.363  -0.883  0.00  0.00    +0.058 C 
ATOM     27  C   LIG A   1      -0.711   5.316  -1.770  0.00  0.00    +0.016 C 
ATOM     28  C   LIG A   1       0.309   6.207   0.373  0.00  0.00    +0.137 C 
ATOM     29  C   LIG A   1      -0.853   5.714   1.214  0.00  0.00    +0.075 C 
ATOM     30  C   LIG A   1      -0.435   4.367   1.783  0.00  0.00    +0.012 C 
ATOM     31  O   LIG A   1       1.067   7.024   0.748  0.00  0.00    -0.297 OA
ENDROOT
TORSDOF 0
