REMARK  Name = NuBBE_302
REMARK  19 active torsions:
REMARK  status: ('A' for Active; 'I' for Inactive)
REMARK    1  A    between atoms: C_1  and  C_2
REMARK    2  A    between atoms: C_4  and  O_6
REMARK    3  A    between atoms: O_6  and  C_7
REMARK    4  A    between atoms: C_7  and  C_8
REMARK    5  A    between atoms: C_12  and  C_14
REMARK    6  A    between atoms: C_14  and  C_15
REMARK    7  A    between atoms: C_15  and  C_16
REMARK    8  A    between atoms: C_16  and  C_17
REMARK    9  A    between atoms: C_17  and  C_18
REMARK   10  A    between atoms: C_18  and  C_19
REMARK   11  A    between atoms: C_19  and  C_20
REMARK   12  A    between atoms: C_20  and  C_21
REMARK   13  A    between atoms: C_21  and  C_22
REMARK   14  A    between atoms: C_22  and  C_23
REMARK   15  A    between atoms: C_23  and  C_24
REMARK   16  A    between atoms: C_24  and  C_25
REMARK   17  A    between atoms: C_25  and  C_26
REMARK   18  A    between atoms: C_26  and  O_27
REMARK   19  A    between atoms: C_26  and  C_29
REMARK                            x       y       z     vdW  Elec       q    Type
REMARK                         _______ _______ _______ _____ _____    ______ ____
ROOT
ATOM      1  C   LIG A   1      -3.256   0.337  -0.441  0.00  0.00    +0.005 C 
ENDROOT
BRANCH   1   2
ATOM      2  C   LIG A   1      -2.456  -0.782  -1.104  0.00  0.00    +0.000 C 
BRANCH   2   3
ATOM      3  C   LIG A   1      -2.711  -2.150  -0.465  0.00  0.00    -0.000 C 
BRANCH   3   4
ATOM      4  C   LIG A   1      -1.873  -3.262  -1.083  0.00  0.00    -0.000 C 
BRANCH   4   5
ATOM      5  C   LIG A   1      -0.377  -3.008  -0.909  0.00  0.00    -0.000 C 
BRANCH   5   6
ATOM      6  C   LIG A   1       0.449  -4.104  -1.566  0.00  0.00    -0.000 C 
BRANCH   6   7
ATOM      7  C   LIG A   1       1.931  -3.798  -1.411  0.00  0.00    -0.000 C 
BRANCH   7   8
ATOM      8  C   LIG A   1       2.798  -4.849  -2.099  0.00  0.00    -0.000 C 
BRANCH   8   9
ATOM      9  C   LIG A   1       4.291  -4.552  -1.946  0.00  0.00    +0.000 C 
BRANCH   9  10
ATOM     10  C   LIG A   1       4.676  -3.209  -2.572  0.00  0.00    +0.002 C 
BRANCH  10  11
ATOM     11  C   LIG A   1       6.169  -2.916  -2.438  0.00  0.00    +0.031 C 
BRANCH  11  12
ATOM     12  C   LIG A   1       6.539  -1.561  -3.053  0.00  0.00    +0.111 C 
ATOM     13  C   LIG A   1       8.028  -1.281  -2.919  0.00  0.00    +0.037 C 
BRANCH  12  14
ATOM     14  O   LIG A   1       6.225  -1.545  -4.443  0.00  0.00    -0.392 OA
ATOM     15  H   LIG A   1       5.263  -1.437  -4.528  0.00  0.00    +0.210 HD
ENDBRANCH  12  14
ENDBRANCH  11  12
ENDBRANCH  10  11
ENDBRANCH   9  10
ENDBRANCH   8   9
ENDBRANCH   7   8
ENDBRANCH   6   7
ENDBRANCH   5   6
ENDBRANCH   4   5
ENDBRANCH   3   4
ENDBRANCH   2   3
ENDBRANCH   1   2
BRANCH   1  16
ATOM     16  C   LIG A   1      -2.901   0.491   1.044  0.00  0.00    +0.054 C 
BRANCH  16  22
ATOM     17  C   LIG A   1      -3.662   5.314   0.854  0.00  0.00    +0.067 C 
ATOM     18  C   LIG A   1      -3.840   4.123   1.776  0.00  0.00    +0.101 C 
ATOM     19  C   LIG A   1      -3.156   4.267   3.138  0.00  0.00    +0.224 C 
ATOM     20  C   LIG A   1      -3.352   2.999   3.978  0.00  0.00    +0.056 C 
ATOM     21  C   LIG A   1      -3.197   1.666   3.240  0.00  0.00    +0.058 C 
ATOM     22  C   LIG A   1      -3.644   1.620   1.774  0.00  0.00    +0.063 C 
ATOM     23  N   LIG A   1      -3.346   2.897   1.066  0.00  0.00    +0.234 N 
ATOM     24  H   LIG A   1      -2.349   2.993   0.847  0.00  0.00    +0.202 HD
ATOM     25  H   LIG A   1      -3.870   2.873   0.183  0.00  0.00    +0.202 HD
BRANCH  19  26
ATOM     26  O   LIG A   1      -1.731   4.492   2.993  0.00  0.00    -0.456 OA
BRANCH  26  27
ATOM     27  C   LIG A   1      -1.286   5.708   3.421  0.00  0.00    +0.304 C 
ATOM     28  C   LIG A   1       0.159   5.555   3.853  0.00  0.00    +0.136 C 
ATOM     29  O   LIG A   1      -1.935   6.758   3.525  0.00  0.00    -0.251 OA
ENDBRANCH  26  27
ENDBRANCH  19  26
ENDBRANCH  16  22
ENDBRANCH   1  16
TORSDOF 16
REMARK  Name = NuBBE_302
REMARK  19 active torsions:
REMARK  status: ('A' for Active; 'I' for Inactive)
REMARK    1  A    between atoms: C_1  and  C_2
REMARK    2  A    between atoms: C_4  and  O_6
REMARK    3  A    between atoms: O_6  and  C_7
REMARK    4  A    between atoms: C_7  and  C_8
REMARK    5  A    between atoms: C_12  and  C_14
REMARK    6  A    between atoms: C_14  and  C_15
REMARK    7  A    between atoms: C_15  and  C_16
REMARK    8  A    between atoms: C_16  and  C_17
REMARK    9  A    between atoms: C_17  and  C_18
REMARK   10  A    between atoms: C_18  and  C_19
REMARK   11  A    between atoms: C_19  and  C_20
REMARK   12  A    between atoms: C_20  and  C_21
REMARK   13  A    between atoms: C_21  and  C_22
REMARK   14  A    between atoms: C_22  and  C_23
REMARK   15  A    between atoms: C_23  and  C_24
REMARK   16  A    between atoms: C_24  and  C_25
REMARK   17  A    between atoms: C_25  and  C_26
REMARK   18  A    between atoms: C_26  and  O_27
REMARK   19  A    between atoms: C_26  and  C_29
REMARK                            x       y       z     vdW  Elec       q    Type
REMARK                         _______ _______ _______ _____ _____    ______ ____
ROOT
ATOM      1 CL   LIG A   2      -7.048   4.065   3.236  0.00  0.00    +0.000 Cl
ENDROOT
TORSDOF 0
