REMARK  Name = NuBBE_1675
REMARK  4 active torsions:
REMARK  status: ('A' for Active; 'I' for Inactive)
REMARK    1  A    between atoms: C_1  and  N_2
REMARK    2  A    between atoms: C_17  and  C_25
REMARK    3  A    between atoms: C_22  and  C_23
REMARK    4  A    between atoms: C_25  and  O_26
REMARK                            x       y       z     vdW  Elec       q    Type
REMARK                         _______ _______ _______ _____ _____    ______ ____
ROOT
ATOM      1  C   LIG A   1      -3.229  -0.861  -2.205  0.00  0.00    +0.149 C 
ATOM      2  N   LIG A   1      -2.227  -1.490  -1.379  0.00  0.00    -0.345 N 
ATOM      3  C   LIG A   1      -1.207  -0.872  -0.733  0.00  0.00    +0.040 A 
ATOM      4  C   LIG A   1      -0.803   0.547  -0.571  0.00  0.00    +0.105 C 
ATOM      5  N   LIG A   1       0.769   0.658  -1.089  0.00  0.00    -0.286 NA
ATOM      6  C   LIG A   1       1.046   0.308   0.226  0.00  0.00    +0.068 C 
ATOM      7  C   LIG A   1       0.730  -1.255   0.636  0.00  0.00    +0.056 C 
ATOM      8  C   LIG A   1      -0.449  -1.799  -0.083  0.00  0.00    -0.016 A 
ATOM      9  C   LIG A   1      -1.026  -3.065  -0.300  0.00  0.00    +0.003 A 
ATOM     10  C   LIG A   1      -2.153  -2.853  -1.114  0.00  0.00    +0.049 A 
ATOM     11  C   LIG A   1      -2.976  -3.916  -1.522  0.00  0.00    +0.026 A 
ATOM     12  C   LIG A   1      -2.643  -5.207  -1.100  0.00  0.00    +0.002 A 
ATOM     13  C   LIG A   1      -1.528  -5.436  -0.298  0.00  0.00    +0.001 A 
ATOM     14  C   LIG A   1      -0.712  -4.375   0.108  0.00  0.00    +0.010 A 
ATOM     15  C   LIG A   1       0.261   2.093   0.606  0.00  0.00    +0.039 C 
ATOM     16  C   LIG A   1       0.469   1.773   1.946  0.00  0.00    +0.024 C 
ATOM     17  C   LIG A   1      -0.929   0.770   1.321  0.00  0.00    +0.033 C 
ATOM     18  C   LIG A   1       2.031   2.084   1.063  0.00  0.00    -0.056 C 
ATOM     19  C   LIG A   1       3.157   2.432   1.714  0.00  0.00    -0.030 C 
ATOM     20  C   LIG A   1       4.487   2.684   1.085  0.00  0.00    +0.035 C 
ATOM     21  C   LIG A   1       1.907   1.765  -0.773  0.00  0.00    +0.116 C 
ENDROOT
BRANCH  15  22
ATOM     22  C   LIG A   1       0.452   3.695   0.238  0.00  0.00    +0.161 C 
BRANCH  22  23
ATOM     23  O   LIG A   1      -0.435   4.450   1.080  0.00  0.00    -0.395 OA
ATOM     24  H   LIG A   1      -0.311   5.386   0.848  0.00  0.00    +0.209 HD
ENDBRANCH  22  23
ENDBRANCH  15  22
TORSDOF 2
