REMARK  Name = NuBBE_2211
REMARK  7 active torsions:
REMARK  status: ('A' for Active; 'I' for Inactive)
REMARK    1  A    between atoms: C_1  and  C_4
REMARK    2  A    between atoms: C_1  and  C_9
REMARK    3  A    between atoms: C_2  and  C_3
REMARK    4  A    between atoms: C_4  and  O_5
REMARK    5  A    between atoms: O_5  and  C_6
REMARK    6  A    between atoms: C_6  and  C_8
REMARK    7  A    between atoms: C_9  and  O_11
REMARK                            x       y       z     vdW  Elec       q    Type
REMARK                         _______ _______ _______ _____ _____    ______ ____
ROOT
ATOM      1  C   LIG A   1       0.594   0.248  -0.791  0.00  0.00    +0.069 C 
ATOM      2  C   LIG A   1      -0.652   0.744  -0.943  0.00  0.00    -0.016 C 
ATOM      3  C   LIG A   1      -1.306   1.208  -2.206  0.00  0.00    +0.036 C 
ENDROOT
BRANCH   1   4
ATOM      4  C   LIG A   1       1.579   0.126  -1.898  0.00  0.00    +0.336 C 
ATOM      5  O   LIG A   1       2.576  -0.572  -1.875  0.00  0.00    -0.245 OA
BRANCH   4   6
ATOM      6  O   LIG A   1       1.328   0.926  -2.947  0.00  0.00    -0.477 OA
ATOM      7  H   LIG A   1       2.056   0.744  -3.576  0.00  0.00    +0.295 HD
ENDBRANCH   4   6
ENDBRANCH   1   4
BRANCH   1   8
ATOM      8  C   LIG A   1       1.146  -0.270   0.521  0.00  0.00    +0.274 C 
BRANCH   8   9
ATOM      9  O   LIG A   1       0.212  -0.094   1.606  0.00  0.00    -0.460 OA
BRANCH   9  10
ATOM     10  C   LIG A   1      -0.202  -1.222   2.240  0.00  0.00    +0.304 C 
ATOM     11  O   LIG A   1       0.099  -2.368   1.939  0.00  0.00    -0.251 OA
ATOM     12  C   LIG A   1      -1.119  -0.871   3.373  0.00  0.00    +0.136 C 
ENDBRANCH   9  10
ENDBRANCH   8   9
ENDBRANCH   1   8
TORSDOF 5
