@<TRIPOS>MOLECULE
NuBBE_1377
 22 21 0 0 0
SMALL
GASTEIGER

@<TRIPOS>ATOM
      1 C           0.9098    1.5477    1.6340 C.3     1  LIG1       -0.0136
      2 C           0.9312    0.2750    0.7896 C.3     1  LIG1        0.1563
      3 O          -0.1773   -0.5563    1.1430 O.3     1  LIG1       -0.3519
      4 C          -0.1152   -1.8247    0.4873 C.3     1  LIG1        0.0478
      5 C          -1.3101   -2.6569    0.9049 C.3     1  LIG1       -0.0415
      6 O           0.9763    0.5833   -0.6055 O.3     1  LIG1       -0.3519
      7 C          -0.2052    1.2081   -1.1041 C.3     1  LIG1        0.0478
      8 C          -0.0251    1.4437   -2.5887 C.3     1  LIG1       -0.0415
      9 H           1.0357    1.3107    2.6963 H       1  LIG1        0.0278
     10 H          -0.0421    2.0772    1.5458 H       1  LIG1        0.0278
     11 H           1.7055    2.2322    1.3207 H       1  LIG1        0.0278
     12 H           1.8564   -0.2587    1.0259 H       1  LIG1        0.0906
     13 H           0.8127   -2.3392    0.7568 H       1  LIG1        0.0558
     14 H          -0.1413   -1.6865   -0.5993 H       1  LIG1        0.0558
     15 H          -1.3075   -2.8262    1.9858 H       1  LIG1        0.0252
     16 H          -1.3007   -3.6260    0.3960 H       1  LIG1        0.0252
     17 H          -2.2455   -2.1425    0.6616 H       1  LIG1        0.0252
     18 H          -0.3698    2.1713   -0.6107 H       1  LIG1        0.0558
     19 H          -1.0792    0.5675   -0.9401 H       1  LIG1        0.0558
     20 H           0.8605    2.0614   -2.7742 H       1  LIG1        0.0252
     21 H          -0.9003    1.9431   -3.0109 H       1  LIG1        0.0252
     22 H           0.1310    0.4957   -3.1141 H       1  LIG1        0.0252
@<TRIPOS>BOND
     1     1     2    1
     2     2     3    1
     3     3     4    1
     4     4     5    1
     5     2     6    1
     6     6     7    1
     7     7     8    1
     8     1     9    1
     9     1    10    1
    10     1    11    1
    11     2    12    1
    12     4    13    1
    13     4    14    1
    14     5    15    1
    15     5    16    1
    16     5    17    1
    17     7    18    1
    18     7    19    1
    19     8    20    1
    20     8    21    1
    21     8    22    1
