@<TRIPOS>MOLECULE
NuBBE_213
 48 49 0 0 0
SMALL
GASTEIGER

@<TRIPOS>ATOM
      1 C           1.4259   -3.4825   -0.1075 C.3     1  LIG1        0.0790
      2 O           0.8754   -2.2399   -0.5279 O.3     1  LIG1       -0.4913
      3 C           1.3972   -1.1049    0.0260 C.ar    1  LIG1        0.1658
      4 C           0.6076    0.0576    0.1803 C.ar    1  LIG1        0.2067
      5 C           1.2425    1.1940    0.7768 C.ar    1  LIG1        0.1658
      6 O           0.4814    2.3253    1.0140 O.3     1  LIG1       -0.4913
      7 C           1.1607    3.4417    1.6032 C.3     1  LIG1        0.0790
      8 C           2.6103    1.1504    1.1351 C.ar    1  LIG1       -0.0089
      9 C           3.3690    0.0069    0.9380 C.ar    1  LIG1       -0.0178
     10 C           4.7817   -0.0599    1.3147 C.2     1  LIG1       -0.0513
     11 C           5.7587    0.2648    0.4588 C.2     1  LIG1       -0.0219
     12 C           7.1728    0.1013    0.8626 C.2     1  LIG1        0.1431
     13 H           7.3544   -0.0176    1.9486 H       1  LIG1        0.1075
     14 O           8.0711    0.0872    0.0478 O.2     1  LIG1       -0.2963
     15 C           2.7575   -1.1057    0.3856 C.ar    1  LIG1       -0.0089
     16 O          -0.7157    0.2219   -0.2032 O.3     1  LIG1       -0.4535
     17 C          -1.5403   -0.8539   -0.7053 C.3     1  LIG1        0.2311
     18 H          -0.9733   -1.7311   -0.9567 H       1  LIG1        0.1084
     19 O          -2.1346   -0.5802   -1.9918 O.3     1  LIG1       -0.3313
     20 C          -3.3005    0.2426   -2.0205 C.3     1  LIG1        0.1140
     21 H          -3.7427    0.0622   -3.0102 H       1  LIG1        0.0647
     22 C          -4.3762   -0.1646   -0.9941 C.3     1  LIG1        0.1120
     23 H          -5.1789    0.5794   -0.9534 H       1  LIG1        0.0647
     24 C          -3.7850   -0.3691    0.4038 C.3     1  LIG1        0.1152
     25 H          -4.5580   -0.8280    1.0347 H       1  LIG1        0.0648
     26 O          -3.4508    0.8910    0.9753 O.3     1  LIG1       -0.3864
     27 O          -4.9828   -1.4130   -1.4003 O.3     1  LIG1       -0.3865
     28 C          -2.9078    1.7186   -1.9816 C.3     1  LIG1        0.0731
     29 O          -4.0588    2.5513   -2.0735 O.3     1  LIG1       -0.3924
     30 C          -2.5845   -1.3234    0.3362 C.3     1  LIG1        0.1454
     31 H          -2.1060   -1.3940    1.3181 H       1  LIG1        0.0683
     32 O          -3.0562   -2.6536    0.0164 O.3     1  LIG1       -0.3829
     33 H           1.6597   -3.4851    0.9630 H       1  LIG1        0.0660
     34 H           2.3123   -3.7158   -0.7054 H       1  LIG1        0.0660
     35 H           0.6805   -4.2605   -0.2883 H       1  LIG1        0.0660
     36 H           0.4410    4.2461    1.7785 H       1  LIG1        0.0660
     37 H           1.9322    3.8299    0.9266 H       1  LIG1        0.0660
     38 H           1.5957    3.1864    2.5787 H       1  LIG1        0.0660
     39 H           3.1161    2.0022    1.5778 H       1  LIG1        0.0661
     40 H           4.9848   -0.4574    2.3062 H       1  LIG1        0.0624
     41 H           5.5855    0.6184   -0.5510 H       1  LIG1        0.0650
     42 H           3.3664   -1.9893    0.2229 H       1  LIG1        0.0661
     43 H          -3.5487    0.8128    1.9396 H       1  LIG1        0.2100
     44 H          -5.6695   -1.1847   -2.0552 H       1  LIG1        0.2100
     45 H          -2.3462    1.9745   -1.0811 H       1  LIG1        0.0584
     46 H          -2.2593    1.9395   -2.8375 H       1  LIG1        0.0584
     47 H          -3.7436    3.4595   -1.9220 H       1  LIG1        0.2095
     48 H          -3.7212   -2.5512   -0.7027 H       1  LIG1        0.2102
@<TRIPOS>BOND
     1     1     2    1
     2     2     3    1
     3     3     4   ar
     4     4     5   ar
     5     5     6    1
     6     6     7    1
     7     5     8   ar
     8     8     9   ar
     9     9    10    1
    10    10    11    2
    11    11    12    1
    12    12    13    1
    13    12    14    2
    14     9    15   ar
    15     3    15   ar
    16     4    16    1
    17    16    17    1
    18    17    18    1
    19    17    19    1
    20    19    20    1
    21    20    22    1
    22    22    23    1
    23    22    24    1
    24    22    27    1
    25    28    29    1
    26    17    30    1
    27    24    30    1
    28    20    28    1
    29    20    21    1
    30    24    26    1
    31    24    25    1
    32    30    32    1
    33    30    31    1
    34     1    33    1
    35     1    34    1
    36     1    35    1
    37     7    36    1
    38     7    37    1
    39     7    38    1
    40     8    39    1
    41    10    40    1
    42    11    41    1
    43    15    42    1
    44    26    43    1
    45    27    44    1
    46    28    45    1
    47    28    46    1
    48    29    47    1
    49    32    48    1
