@<TRIPOS>MOLECULE
NuBBE_2172
 48 51 0 0 0
SMALL
GASTEIGER

@<TRIPOS>ATOM
      1 O          -2.9852    1.6450    0.1470 O.2     1  LIG1       -0.2864
      2 C          -1.7869    1.6607   -0.0941 C.ar    1  LIG1        0.2003
      3 C          -1.0238    0.4026   -0.2075 C.ar    1  LIG1        0.0684
      4 C          -1.6684   -0.8202   -0.0719 C.ar    1  LIG1       -0.0437
      5 C          -0.9322   -2.0048   -0.2085 C.ar    1  LIG1       -0.0154
      6 C           0.4481   -1.9831   -0.4675 C.ar    1  LIG1        0.1661
      7 O           1.1791   -3.1440   -0.5982 O.3     1  LIG1       -0.4842
      8 C           0.7354   -4.2606    0.1907 C.3     1  LIG1        0.1082
      9 C           1.5686   -5.4704   -0.1421 C.2     1  LIG1       -0.0484
     10 C           2.3458   -6.2007    0.6843 C.2     1  LIG1       -0.0765
     11 C           2.5653   -5.9041    2.1425 C.3     1  LIG1       -0.0439
     12 C           3.0977   -7.4171    0.1921 C.3     1  LIG1       -0.0439
     13 C           1.0845   -0.7327   -0.6284 C.ar    1  LIG1        0.2049
     14 O           2.4238   -0.5211   -0.8349 O.3     1  LIG1       -0.4885
     15 C           3.1037   -1.4030   -1.7153 C.3     1  LIG1        0.0791
     16 C           0.3326    0.4566   -0.4765 C.ar    1  LIG1        0.1834
     17 O           1.0021    1.6574   -0.6155 O.2     1  LIG1       -0.4583
     18 C           0.2848    2.8223   -0.5386 C.ar    1  LIG1        0.1040
     19 C          -1.0395    2.9214   -0.2988 C.ar    1  LIG1        0.0644
     20 C          -1.7081    4.2245   -0.2634 C.ar    1  LIG1       -0.0076
     21 C          -2.2475    4.7725   -1.4497 C.ar    1  LIG1       -0.0501
     22 C          -2.8723    6.0236   -1.4423 C.ar    1  LIG1       -0.0156
     23 C          -2.9380    6.6984   -0.2429 C.ar    1  LIG1        0.1663
     24 O          -3.5002    7.9210   -0.0492 O.3     1  LIG1       -0.4526
     25 C          -3.2741    8.1028    1.3640 C.3     1  LIG1        0.2332
     26 O          -2.5877    6.9952    1.9834 O.3     1  LIG1       -0.4526
     27 C          -2.4162    6.1706    0.9152 C.ar    1  LIG1        0.1668
     28 C          -1.7948    4.9397    0.9407 C.ar    1  LIG1       -0.0082
     29 H          -2.7353   -0.8690    0.1269 H       1  LIG1        0.0627
     30 H          -1.4899   -2.9301   -0.1175 H       1  LIG1        0.0655
     31 H          -0.2946   -4.5417   -0.0528 H       1  LIG1        0.0742
     32 H           0.7815   -3.9886    1.2484 H       1  LIG1        0.0742
     33 H           1.4725   -5.7900   -1.1800 H       1  LIG1        0.0605
     34 H           2.0210   -5.0327    2.5159 H       1  LIG1        0.0274
     35 H           3.6292   -5.7205    2.3226 H       1  LIG1        0.0274
     36 H           2.2554   -6.7648    2.7446 H       1  LIG1        0.0274
     37 H           2.8425   -7.6898   -0.8376 H       1  LIG1        0.0274
     38 H           2.8814   -8.2882    0.8219 H       1  LIG1        0.0274
     39 H           4.1767   -7.2319    0.2310 H       1  LIG1        0.0274
     40 H           3.4836   -2.2686   -1.1671 H       1  LIG1        0.0660
     41 H           3.9695   -0.8535   -2.1031 H       1  LIG1        0.0660
     42 H           2.4957   -1.7080   -2.5732 H       1  LIG1        0.0660
     43 H           0.9181    3.6721   -0.7030 H       1  LIG1        0.1037
     44 H          -2.1916    4.2149   -2.3828 H       1  LIG1        0.0625
     45 H          -3.2950    6.4475   -2.3462 H       1  LIG1        0.0655
     46 H          -4.2421    8.2389    1.8597 H       1  LIG1        0.1166
     47 H          -2.6748    9.0092    1.5084 H       1  LIG1        0.1166
     48 H          -1.4004    4.5420    1.8691 H       1  LIG1        0.0661
@<TRIPOS>BOND
     1     1     2    2
     2     2     3   ar
     3     3     4   ar
     4     4     5   ar
     5     5     6   ar
     6     6     7    1
     7     7     8    1
     8     8     9    1
     9     9    10    2
    10    10    11    1
    11    10    12    1
    12     6    13   ar
    13    13    14    1
    14    14    15    1
    15    13    16   ar
    16     3    16   ar
    17    16    17   ar
    18    17    18   ar
    19    18    19   ar
    20     2    19   ar
    21    19    20    1
    22    20    21   ar
    23    21    22   ar
    24    22    23   ar
    25    23    24    1
    26    24    25    1
    27    25    26    1
    28    23    27   ar
    29    26    27    1
    30    27    28   ar
    31    20    28   ar
    32     4    29    1
    33     5    30    1
    34     8    31    1
    35     8    32    1
    36     9    33    1
    37    11    34    1
    38    11    35    1
    39    11    36    1
    40    12    37    1
    41    12    38    1
    42    12    39    1
    43    15    40    1
    44    15    41    1
    45    15    42    1
    46    18    43    1
    47    21    44    1
    48    22    45    1
    49    25    46    1
    50    25    47    1
    51    28    48    1
