REMARK  Name = NuBBE_2365
REMARK  3 active torsions:
REMARK  status: ('A' for Active; 'I' for Inactive)
REMARK    1  A    between atoms: C_1  and  C_2
REMARK    2  A    between atoms: C_2  and  C_3
REMARK    3  A    between atoms: N_14  and  C_15
REMARK                            x       y       z     vdW  Elec       q    Type
REMARK                         _______ _______ _______ _____ _____    ______ ____
ROOT
ATOM      1  C   LIG A   1      -1.353  -0.760   0.618  0.00  0.00    +0.018 C 
ATOM      2  C   LIG A   1      -0.452  -0.482  -0.637  0.00  0.00    +0.093 C 
ATOM      3  C   LIG A   1       0.274   0.829  -0.405  0.00  0.00    +0.003 A 
ATOM      4  C   LIG A   1       0.590   1.248   0.875  0.00  0.00    +0.048 A 
ATOM      5  C   LIG A   1       0.262   0.520   2.055  0.00  0.00    -0.027 C 
ATOM      6  C   LIG A   1      -0.408  -0.868   1.853  0.00  0.00    +0.026 C 
ATOM      7  C   LIG A   1       0.690  -1.929   1.635  0.00  0.00    +0.024 C 
ATOM      8  C   LIG A   1       0.814  -2.458   0.199  0.00  0.00    +0.085 C 
ATOM      9  N   LIG A   1       0.603  -1.480  -0.864  0.00  0.00    -0.298 NA
ATOM     10  C   LIG A   1       0.503  -2.111  -2.173  0.00  0.00    +0.105 C 
ATOM     11  C   LIG A   1       0.464   1.028   3.281  0.00  0.00    +0.014 C 
ATOM     12  N   LIG A   1       1.241   2.442   0.794  0.00  0.00    -0.354 N 
ATOM     13  H   LIG A   1       1.604   2.974   1.569  0.00  0.00    +0.166 HD
ATOM     14  C   LIG A   1       1.331   2.831  -0.529  0.00  0.00    +0.047 A 
ATOM     15  C   LIG A   1       0.733   1.832  -1.304  0.00  0.00    +0.005 A 
ATOM     16  C   LIG A   1       0.700   1.993  -2.703  0.00  0.00    +0.010 A 
ATOM     17  C   LIG A   1       1.260   3.140  -3.278  0.00  0.00    +0.001 A 
ATOM     18  C   LIG A   1       1.849   4.119  -2.481  0.00  0.00    +0.002 A 
ATOM     19  C   LIG A   1       1.897   3.983  -1.090  0.00  0.00    +0.026 A 
ENDROOT
BRANCH   1  21
ATOM     20  C   LIG A   1      -3.366  -2.032   1.539  0.00  0.00    +0.004 C 
ATOM     21  C   LIG A   1      -2.332  -1.934   0.423  0.00  0.00    +0.002 C 
ENDBRANCH   1  21
TORSDOF 1
