@<TRIPOS>MOLECULE
NuBBE_1958
 58 60 0 0 0
SMALL
GASTEIGER

@<TRIPOS>ATOM
      1 O          -2.0998    1.5873   -1.4819 O.3     1  LIG1       -0.4884
      2 C          -2.8230    0.3767   -1.6463 C.3     1  LIG1        0.0791
      3 C          -0.7349    1.5758   -1.4886 C.ar    1  LIG1        0.2076
      4 C           0.0167    0.4143   -1.6067 C.ar    1  LIG1        0.1703
      5 C           1.3988    0.4130   -1.5270 C.ar    1  LIG1        0.0083
      6 C           1.9076   -0.9747   -1.6823 C.3     1  LIG1        0.0263
      7 H           2.7286   -1.2095   -0.9982 H       1  LIG1        0.0387
      8 C           0.6069   -1.7278   -1.3297 C.3     1  LIG1        0.1322
      9 H           0.5116   -2.6476   -1.9203 H       1  LIG1        0.0790
     10 O          -0.4862   -0.8657   -1.7319 O.3     1  LIG1       -0.4795
     11 C           0.4737   -2.1030    0.1491 C.ar    1  LIG1        0.0004
     12 C           0.9652   -3.3160    0.6203 C.ar    1  LIG1       -0.0094
     13 C           0.8788   -3.6399    1.9877 C.ar    1  LIG1        0.1655
     14 O           1.4049   -4.8170    2.4862 O.3     1  LIG1       -0.4913
     15 C           1.5202   -5.9117    1.5792 C.3     1  LIG1        0.0790
     16 C           0.3014   -2.7339    2.9394 C.ar    1  LIG1        0.2035
     17 C          -0.1697   -1.4974    2.4770 C.ar    1  LIG1        0.1655
     18 C          -0.0887   -1.2341    1.0942 C.ar    1  LIG1       -0.0094
     19 O          -0.6711   -0.3697    3.0584 O.3     1  LIG1       -0.4913
     20 C          -0.8409   -0.1807    4.4368 C.3     1  LIG1        0.0790
     21 O           0.4159   -3.1548    4.2425 O.3     1  LIG1       -0.4885
     22 C          -0.7359   -3.1365    5.0676 C.3     1  LIG1        0.0791
     23 C           2.3328   -1.1515   -3.1393 C.3     1  LIG1       -0.0546
     24 C           2.1031    1.5824   -1.3783 C.ar    1  LIG1       -0.0090
     25 C           1.3965    2.7876   -1.2671 C.ar    1  LIG1        0.1657
     26 C          -0.0293    2.7977   -1.3118 C.ar    1  LIG1        0.2078
     27 O          -0.6219    4.0290   -1.1631 O.3     1  LIG1       -0.4810
     28 C          -1.9812    4.2743   -1.5118 C.3     1  LIG1        0.1079
     29 C          -2.1254    4.3920   -3.0021 C.2     1  LIG1       -0.0542
     30 C          -3.2314    4.1488   -3.6502 C.2     1  LIG1       -0.0995
     31 O           2.2703    3.8418   -1.2405 O.3     1  LIG1       -0.4913
     32 C           1.9726    5.0520   -0.5718 C.3     1  LIG1        0.0790
     33 H          -2.6717   -0.0364   -2.6491 H       1  LIG1        0.0660
     34 H          -3.8866    0.6090   -1.5421 H       1  LIG1        0.0660
     35 H          -2.5866   -0.3445   -0.8582 H       1  LIG1        0.0660
     36 H           1.4395   -3.9855   -0.0894 H       1  LIG1        0.0659
     37 H           0.5520   -6.1503    1.1259 H       1  LIG1        0.0660
     38 H           1.8483   -6.7871    2.1485 H       1  LIG1        0.0660
     39 H           2.2795   -5.7321    0.8100 H       1  LIG1        0.0660
     40 H          -0.4659   -0.2635    0.7766 H       1  LIG1        0.0659
     41 H          -1.0074    0.8814    4.6465 H       1  LIG1        0.0660
     42 H           0.0506   -0.4750    4.9964 H       1  LIG1        0.0660
     43 H          -1.7729   -0.6668    4.7399 H       1  LIG1        0.0660
     44 H          -0.5241   -3.6895    5.9910 H       1  LIG1        0.0660
     45 H          -1.6382   -3.5335    4.5942 H       1  LIG1        0.0660
     46 H          -0.9098   -2.1486    5.4558 H       1  LIG1        0.0660
     47 H           3.1810   -0.4961   -3.3712 H       1  LIG1        0.0237
     48 H           1.5280   -0.8867   -3.8377 H       1  LIG1        0.0237
     49 H           2.6300   -2.1832   -3.3414 H       1  LIG1        0.0237
     50 H           3.1892    1.5727   -1.3598 H       1  LIG1        0.0659
     51 H          -2.2525    5.2250   -1.0521 H       1  LIG1        0.0742
     52 H          -2.6843    3.5616   -1.0620 H       1  LIG1        0.0742
     53 H          -1.2127    4.6705   -3.5551 H       1  LIG1        0.0600
     54 H          -4.1662    3.8667   -3.1342 H       1  LIG1        0.0533
     55 H          -3.2940    4.2084   -4.7496 H       1  LIG1        0.0533
     56 H           0.9638    5.1586   -0.1832 H       1  LIG1        0.0660
     57 H           2.1839    5.8736   -1.2636 H       1  LIG1        0.0660
     58 H           2.6607    5.1504    0.2744 H       1  LIG1        0.0660
@<TRIPOS>BOND
     1     1     2    1
     2     1     3    1
     3     3     4   ar
     4     4     5   ar
     5     5     6    1
     6     6     7    1
     7     6     8    1
     8     8    10    1
     9     4    10    1
    10    11    12   ar
    11    12    13   ar
    12    13    14    1
    13    14    15    1
    14    13    16   ar
    15    16    17   ar
    16    17    18   ar
    17    11    18   ar
    18    17    19    1
    19    19    20    1
    20    16    21    1
    21    21    22    1
    22     6    23    1
    23     5    24   ar
    24    24    25   ar
    25    25    26   ar
    26     3    26   ar
    27    26    27    1
    28    27    28    1
    29    28    29    1
    30    29    30    2
    31    25    31    1
    32    31    32    1
    33     8    11    1
    34     8     9    1
    35     2    33    1
    36     2    34    1
    37     2    35    1
    38    12    36    1
    39    15    37    1
    40    15    38    1
    41    15    39    1
    42    18    40    1
    43    20    41    1
    44    20    42    1
    45    20    43    1
    46    22    44    1
    47    22    45    1
    48    22    46    1
    49    23    47    1
    50    23    48    1
    51    23    49    1
    52    24    50    1
    53    28    51    1
    54    28    52    1
    55    29    53    1
    56    30    54    1
    57    30    55    1
    58    32    56    1
    59    32    57    1
    60    32    58    1
