REMARK  Name = NuBBE_2411
REMARK  6 active torsions:
REMARK  status: ('A' for Active; 'I' for Inactive)
REMARK    1  A    between atoms: C_2  and  C_3
REMARK    2  A    between atoms: C_2  and  C_7
REMARK    3  A    between atoms: C_3  and  O_5
REMARK    4  A    between atoms: O_5  and  C_6
REMARK    5  A    between atoms: C_26  and  C_28
REMARK    6  A    between atoms: C_28  and  C_29
REMARK                            x       y       z     vdW  Elec       q    Type
REMARK                         _______ _______ _______ _____ _____    ______ ____
ROOT
ATOM      1  C   LIG A   1       1.724   0.695   0.167  0.00  0.00    +0.031 C 
ATOM      2  C   LIG A   1       0.940  -0.626   0.366  0.00  0.00    +0.029 C 
ATOM      3  C   LIG A   1      -0.490  -0.504   0.957  0.00  0.00    +0.077 C 
ATOM      4  N   LIG A   1      -1.151   0.740   0.538  0.00  0.00    -0.298 NA
ATOM      5  C   LIG A   1      -1.731   0.526  -0.787  0.00  0.00    +0.086 C 
ATOM      6  C   LIG A   1      -1.833  -0.986  -0.961  0.00  0.00    +0.038 C 
ATOM      7  C   LIG A   1      -1.477  -1.566   0.421  0.00  0.00    +0.090 C 
ATOM      8  C   LIG A   1      -0.966  -3.027   0.230  0.00  0.00    +0.229 C 
ATOM      9  O   LIG A   1       0.136  -3.417  -0.069  0.00  0.00    -0.274 OA
ATOM     10  N   LIG A   1      -2.078  -3.851   0.407  0.00  0.00    -0.284 N 
ATOM     11  C   LIG A   1      -3.145  -3.156   0.961  0.00  0.00    +0.038 A 
ATOM     12  C   LIG A   1      -4.373  -3.672   1.318  0.00  0.00    +0.023 A 
ATOM     13  C   LIG A   1      -5.269  -2.804   1.943  0.00  0.00    +0.002 A 
ATOM     14  C   LIG A   1      -4.905  -1.472   2.212  0.00  0.00    +0.000 A 
ATOM     15  C   LIG A   1      -3.663  -0.965   1.809  0.00  0.00    +0.006 A 
ATOM     16  C   LIG A   1      -2.794  -1.818   1.145  0.00  0.00    -0.010 A 
ATOM     17  C   LIG A   1      -0.423   1.985   0.733  0.00  0.00    +0.088 C 
ATOM     18  C   LIG A   1       1.087   1.830   1.002  0.00  0.00    +0.010 C 
ATOM     19  H   LIG A   1      -2.031  -4.851   0.293  0.00  0.00    +0.155 HD
ENDROOT
BRANCH   1  21
ATOM     20  C   LIG A   1       1.315   1.755  -2.150  0.00  0.00    +0.020 C 
ATOM     21  C   LIG A   1       2.010   0.959  -1.319  0.00  0.00    +0.033 C 
BRANCH  21  22
ATOM     22  C   LIG A   1       3.236   0.279  -1.865  0.00  0.00    +0.335 C 
ATOM     23  O   LIG A   1       3.760  -0.686  -1.338  0.00  0.00    -0.245 OA
BRANCH  22  24
ATOM     24  O   LIG A   1       3.688   0.928  -2.966  0.00  0.00    -0.465 OA
ATOM     25  C   LIG A   1       4.881   0.430  -3.568  0.00  0.00    +0.280 C 
ENDBRANCH  22  24
ENDBRANCH  21  22
ENDBRANCH   1  21
BRANCH  18  26
ATOM     26  C   LIG A   1       1.815   3.191   0.905  0.00  0.00    +0.002 C 
ATOM     27  C   LIG A   1       3.309   3.118   1.202  0.00  0.00    +0.004 C 
ENDBRANCH  18  26
TORSDOF 4
