@<TRIPOS>MOLECULE
NuBBE_222
 80 82 0 0 0
SMALL
GASTEIGER

@<TRIPOS>ATOM
      1 C           0.8216    0.9078    3.3629 C.3     1  LIG1       -0.0584
      2 C          -0.1967    1.1949    2.2478 C.3     1  LIG1        0.0018
      3 H          -0.6758    2.1292    2.5748 H       1  LIG1        0.0340
      4 C          -1.2978    0.1185    2.2658 C.3     1  LIG1        0.1328
      5 H          -1.6032   -0.0533    3.3076 H       1  LIG1        0.0763
      6 O          -2.4737    0.5703    1.5527 O.3     1  LIG1       -0.4584
      7 C          -3.2944    1.3733    2.3006 C.2     1  LIG1        0.3074
      8 C          -4.4823    1.8785    1.5378 C.3     1  LIG1        0.0447
      9 C          -5.7624    1.4195    2.2315 C.3     1  LIG1       -0.0458
     10 C          -6.9928    1.9822    1.5459 C.3     1  LIG1       -0.0648
     11 O          -3.0992    1.6710    3.4784 O.2     1  LIG1       -0.2508
     12 C          -0.7816   -1.2408    1.7565 C.3     1  LIG1        0.1078
     13 H          -1.6576   -1.8805    1.5890 H       1  LIG1        0.0641
     14 O          -0.0697   -1.8879    2.8295 O.3     1  LIG1       -0.3870
     15 C           0.1165   -1.2020    0.4606 C.3     1  LIG1        0.0926
     16 C          -0.4515   -2.2382   -0.4950 C.2     1  LIG1        0.0115
     17 C          -0.0416   -3.6054   -0.0085 C.3     1  LIG1        0.2315
     18 H          -0.7393   -4.0132    0.7323 H       1  LIG1        0.1111
     19 O           0.1651   -4.5255   -1.0862 O.3     1  LIG1       -0.4311
     20 C          -0.9444   -4.9559   -1.7551 C.2     1  LIG1        0.3063
     21 C          -0.5479   -5.3927   -3.1412 C.3     1  LIG1        0.0333
     22 O          -2.0991   -4.8630   -1.3764 O.2     1  LIG1       -0.2511
     23 O           1.2068   -3.3716    0.6756 O.3     1  LIG1       -0.2971
     24 C           1.4910   -1.9455    0.6624 C.3     1  LIG1        0.2205
     25 H           1.9839   -1.6846    1.6046 H       1  LIG1        0.1068
     26 O           2.3761   -1.7127   -0.4489 O.3     1  LIG1       -0.4341
     27 C           3.7099   -1.8387   -0.1859 C.2     1  LIG1        0.3061
     28 C           4.3224   -2.6628   -1.2905 C.3     1  LIG1        0.0333
     29 O           4.3053   -1.3875    0.7598 O.2     1  LIG1       -0.2511
     30 C          -1.0448   -1.9657   -1.6627 C.2     1  LIG1       -0.0497
     31 C          -1.2429   -0.6396   -2.2591 C.3     1  LIG1        0.0772
     32 H          -2.3232   -0.5113   -2.4102 H       1  LIG1        0.0640
     33 O          -0.6383   -0.7484   -3.5498 O.3     1  LIG1       -0.3757
     34 C          -0.7864    0.3946   -4.3735 C.3     1  LIG1        0.0372
     35 C          -0.7126    0.5041   -1.4000 C.3     1  LIG1       -0.0186
     36 C           0.2622    0.2202   -0.2047 C.3     1  LIG1       -0.0145
     37 H           1.2241    0.1963   -0.7286 H       1  LIG1        0.0318
     38 C           0.3876    1.4755    0.8002 C.3     1  LIG1       -0.0186
     39 C          -0.4202    2.7124    0.2686 C.3     1  LIG1       -0.0586
     40 C           1.8954    1.9613    0.8999 C.3     1  LIG1       -0.0282
     41 C           2.5039    2.5085   -0.3735 C.2     1  LIG1       -0.0806
     42 C           3.7770    2.5400   -0.8113 C.2     1  LIG1       -0.0549
     43 C           4.9493    2.0119   -0.1395 C.2     1  LIG1       -0.0662
     44 C           5.1887    2.0225    1.1771 C.2     1  LIG1       -0.0985
     45 C           4.0564    3.1450   -2.1713 C.3     1  LIG1       -0.0400
     46 H           1.4777    0.0683    3.1292 H       1  LIG1        0.0234
     47 H           0.3023    0.6804    4.3029 H       1  LIG1        0.0234
     48 H           1.4435    1.7835    3.5689 H       1  LIG1        0.0234
     49 H          -4.4528    1.5346    0.4992 H       1  LIG1        0.0377
     50 H          -4.4227    2.9750    1.5195 H       1  LIG1        0.0377
     51 H          -5.7670    1.7315    3.2842 H       1  LIG1        0.0268
     52 H          -5.8038    0.3239    2.2341 H       1  LIG1        0.0268
     53 H          -7.0789    3.0574    1.7337 H       1  LIG1        0.0230
     54 H          -7.8967    1.4970    1.9264 H       1  LIG1        0.0230
     55 H          -6.9449    1.8236    0.4646 H       1  LIG1        0.0230
     56 H          -0.6917   -2.0836    3.5539 H       1  LIG1        0.2100
     57 H          -0.9144   -6.4015   -3.3295 H       1  LIG1        0.0342
     58 H           0.5404   -5.3777   -3.2518 H       1  LIG1        0.0342
     59 H          -0.9613   -4.6919   -3.8756 H       1  LIG1        0.0342
     60 H           4.7152   -2.0203   -2.0792 H       1  LIG1        0.0342
     61 H           3.5670   -3.3387   -1.7061 H       1  LIG1        0.0342
     62 H           5.1150   -3.2882   -0.8712 H       1  LIG1        0.0342
     63 H          -1.3904   -2.7425   -2.3295 H       1  LIG1        0.0599
     64 H          -0.9676    0.0698   -5.4018 H       1  LIG1        0.0524
     65 H           0.1554    0.9477   -4.3496 H       1  LIG1        0.0524
     66 H          -1.6119    1.0389   -4.0564 H       1  LIG1        0.0524
     67 H          -1.6112    1.0047   -1.0366 H       1  LIG1        0.0296
     68 H          -0.1942    1.2155   -2.0541 H       1  LIG1        0.0296
     69 H          -1.5000    2.5506    0.3038 H       1  LIG1        0.0235
     70 H          -0.1791    2.9664   -0.7667 H       1  LIG1        0.0235
     71 H          -0.2167    3.6059    0.8679 H       1  LIG1        0.0235
     72 H           1.9270    2.7857    1.6267 H       1  LIG1        0.0313
     73 H           2.5116    1.1473    1.2940 H       1  LIG1        0.0313
     74 H           1.7929    2.9851   -1.0390 H       1  LIG1        0.0575
     75 H           5.7242    1.6032   -0.7881 H       1  LIG1        0.0614
     76 H           4.4875    2.4276    1.8958 H       1  LIG1        0.0535
     77 H           6.1069    1.5957    1.5703 H       1  LIG1        0.0535
     78 H           3.1325    3.4049   -2.7031 H       1  LIG1        0.0277
     79 H           4.6005    2.4446   -2.8136 H       1  LIG1        0.0277
     80 H           4.6420    4.0651   -2.0726 H       1  LIG1        0.0277
@<TRIPOS>BOND
     1     2     4    1
     2     6     7    1
     3     7     8    1
     4     8     9    1
     5     9    10    1
     6     7    11    2
     7     4    12    1
     8    12    15    1
     9    15    16    1
    10    16    17    1
    11    19    20    1
    12    20    21    1
    13    20    22    2
    14    17    23    1
    15    23    24    1
    16    15    24    1
    17    26    27    1
    18    27    28    1
    19    27    29    2
    20    16    30    2
    21    30    31    1
    22    33    34    1
    23    31    35    1
    24    35    36    1
    25    15    36    1
    26    36    38    1
    27     2    38    1
    28    40    41    1
    29    41    42    2
    30    42    43    1
    31    43    44    2
    32    42    45    1
    33    12    13    1
    34    12    14    1
    35    17    18    1
    36    17    19    1
    37    24    25    1
    38    24    26    1
    39    36    37    1
    40    38    39    1
    41    38    40    1
    42     4     6    1
    43     4     5    1
    44     2     3    1
    45     2     1    1
    46    31    33    1
    47    31    32    1
    48     1    46    1
    49     1    47    1
    50     1    48    1
    51     8    49    1
    52     8    50    1
    53     9    51    1
    54     9    52    1
    55    10    53    1
    56    10    54    1
    57    10    55    1
    58    14    56    1
    59    21    57    1
    60    21    58    1
    61    21    59    1
    62    28    60    1
    63    28    61    1
    64    28    62    1
    65    30    63    1
    66    34    64    1
    67    34    65    1
    68    34    66    1
    69    35    67    1
    70    35    68    1
    71    39    69    1
    72    39    70    1
    73    39    71    1
    74    40    72    1
    75    40    73    1
    76    41    74    1
    77    43    75    1
    78    44    76    1
    79    44    77    1
    80    45    78    1
    81    45    79    1
    82    45    80    1
