REMARK  Name = NuBBE_2226
REMARK  7 active torsions:
REMARK  status: ('A' for Active; 'I' for Inactive)
REMARK    1  A    between atoms: C_1  and  C_3
REMARK    2  A    between atoms: C_4  and  O_5
REMARK    3  A    between atoms: O_5  and  C_6
REMARK    4  A    between atoms: C_8  and  O_13
REMARK    5  A    between atoms: C_9  and  O_11
REMARK    6  A    between atoms: O_11  and  C_12
REMARK    7  A    between atoms: O_13  and  C_14
REMARK                            x       y       z     vdW  Elec       q    Type
REMARK                         _______ _______ _______ _____ _____    ______ ____
ROOT
ATOM      1  C   LIG A   1      -1.385   0.299   0.383  0.00  0.00    +0.020 A 
ATOM      2  C   LIG A   1      -0.620   1.481   0.379  0.00  0.00    +0.131 A 
ATOM      3  C   LIG A   1       0.778   1.397   0.331  0.00  0.00    +0.095 A 
ATOM      4  C   LIG A   1       1.432   0.155   0.265  0.00  0.00    +0.165 A 
ATOM      5  C   LIG A   1       0.675  -1.023   0.270  0.00  0.00    +0.162 A 
ATOM      6  C   LIG A   1      -0.720  -0.937   0.347  0.00  0.00    +0.060 A 
ENDROOT
BRANCH   1   7
ATOM      7  C   LIG A   1      -2.856   0.343   0.494  0.00  0.00    +0.004 C 
ATOM      8  C   LIG A   1      -3.689  -0.583  -0.015  0.00  0.00    +0.009 C 
ENDBRANCH   1   7
BRANCH   2   9
ATOM      9  O   LIG A   1      -1.312   2.664   0.477  0.00  0.00    -0.494 OA
ATOM     10  C   LIG A   1      -0.669   3.829  -0.025  0.00  0.00    +0.277 C 
ENDBRANCH   2   9
BRANCH   5  11
ATOM     11  O   LIG A   1       1.312  -2.234   0.324  0.00  0.00    -0.491 OA
ATOM     12  C   LIG A   1       0.688  -3.289  -0.402  0.00  0.00    +0.277 C 
ENDBRANCH   5  11
BRANCH   4  13
ATOM     13  O   LIG A   1       2.801   0.252   0.274  0.00  0.00    -0.491 OA
ATOM     14  C   LIG A   1       3.525  -0.757  -0.422  0.00  0.00    +0.277 C 
ENDBRANCH   4  13
TORSDOF 4
