REMARK  Name = NuBBE_1774
REMARK  9 active torsions:
REMARK  status: ('A' for Active; 'I' for Inactive)
REMARK    1  A    between atoms: C_1  and  C_2
REMARK    2  A    between atoms: C_1  and  C_9
REMARK    3  A    between atoms: C_2  and  C_4
REMARK    4  A    between atoms: C_2  and  O_8
REMARK    5  A    between atoms: C_4  and  C_5
REMARK    6  A    between atoms: C_5  and  C_6
REMARK    7  A    between atoms: C_6  and  C_7
REMARK    8  A    between atoms: C_9  and  C_10
REMARK    9  A    between atoms: C_9  and  C_11
REMARK                            x       y       z     vdW  Elec       q    Type
REMARK                         _______ _______ _______ _____ _____    ______ ____
ROOT
ATOM      1  C   LIG A   1      -0.001   0.822   0.764  0.00  0.00    +0.115 C 
ENDROOT
BRANCH   1   2
ATOM      2  O   LIG A   1      -0.697   2.030   1.078  0.00  0.00    -0.392 OA
ATOM      3  H   LIG A   1      -0.128   2.544   1.682  0.00  0.00    +0.210 HD
ENDBRANCH   1   2
BRANCH   1   4
ATOM      4  C   LIG A   1      -0.147  -0.132   1.961  0.00  0.00    +0.034 C 
BRANCH   4   5
ATOM      5  C   LIG A   1       0.548  -1.500   1.823  0.00  0.00    -0.015 C 
ATOM      6  C   LIG A   1       2.059  -1.373   1.624  0.00  0.00    +0.007 C 
ATOM      7  C   LIG A   1       0.264  -2.358   3.060  0.00  0.00    +0.007 C 
ENDBRANCH   4   5
ENDBRANCH   1   4
BRANCH   1   8
ATOM      8  C   LIG A   1      -0.585   0.260  -0.538  0.00  0.00    +0.031 C 
BRANCH   8   9
ATOM      9  C   LIG A   1      -0.435   1.242  -1.706  0.00  0.00    +0.002 C 
BRANCH   9  10
ATOM     10  C   LIG A   1      -1.010   0.662  -2.999  0.00  0.00    -0.003 C 
ATOM     11  C   LIG A   1      -0.865   1.634  -4.160  0.00  0.00    +0.004 C 
ENDBRANCH   9  10
ENDBRANCH   8   9
ENDBRANCH   1   8
TORSDOF 6
