@<TRIPOS>MOLECULE
NuBBE_1620
 29 31 0 0 0
SMALL
GASTEIGER

@<TRIPOS>ATOM
      1 O          -2.7809   -2.0867   -0.0280 O.3     1  LIG1       -0.4895
      2 C          -3.6811   -0.9995   -0.1687 C.3     1  LIG1        0.0791
      3 C          -1.4198   -1.8548   -0.0543 C.ar    1  LIG1        0.1875
      4 C          -0.7724   -0.5995   -0.0451 C.ar    1  LIG1        0.1235
      5 C           0.6507   -0.5848   -0.0806 C.ar    1  LIG1        0.0467
      6 C           1.3404    0.6582   -0.0778 C.ar    1  LIG1        0.1417
      7 O           2.7247    0.5988   -0.1793 O.3     1  LIG1       -0.4937
      8 C           3.4413    1.6190    0.5039 C.3     1  LIG1        0.0788
      9 C           0.5842    1.8431   -0.0707 C.ar    1  LIG1        0.0820
     10 C          -0.7948    1.6834   -0.0241 C.ar    1  LIG1        0.2312
     11 N          -1.4810    0.5395   -0.0011 N.ar    1  LIG1       -0.2080
     12 O          -1.4110    2.8979   -0.0147 O.2     1  LIG1       -0.4449
     13 C          -0.4406    3.8409   -0.0727 C.ar    1  LIG1        0.0952
     14 C           0.7999    3.2495   -0.1181 C.ar    1  LIG1       -0.0109
     15 C           1.3646   -1.8032   -0.1089 C.ar    1  LIG1       -0.0453
     16 C           0.7145   -3.0290   -0.1054 C.ar    1  LIG1       -0.0157
     17 C          -0.6691   -3.0479   -0.0793 C.ar    1  LIG1        0.1606
     18 O          -1.3227   -4.2542   -0.0818 O.3     1  LIG1       -0.5032
     19 H          -4.6909   -1.4173   -0.2353 H       1  LIG1        0.0660
     20 H          -3.5042   -0.4446   -1.0955 H       1  LIG1        0.0660
     21 H          -3.6621   -0.3545    0.7148 H       1  LIG1        0.0660
     22 H           4.4415    1.2326    0.7235 H       1  LIG1        0.0660
     23 H           2.9759    1.8953    1.4559 H       1  LIG1        0.0660
     24 H           3.5665    2.4887   -0.1465 H       1  LIG1        0.0660
     25 H          -0.7850    4.8657   -0.0796 H       1  LIG1        0.1030
     26 H           1.7357    3.7837   -0.1784 H       1  LIG1        0.0657
     27 H           2.4537   -1.8006   -0.1306 H       1  LIG1        0.0626
     28 H           1.2971   -3.9444   -0.1244 H       1  LIG1        0.0655
     29 H          -0.6750   -4.9752   -0.0975 H       1  LIG1        0.2923
@<TRIPOS>BOND
     1     1     2    1
     2     1     3    1
     3     3     4   ar
     4     4     5   ar
     5     5     6   ar
     6     6     7    1
     7     7     8    1
     8     6     9   ar
     9     9    10   ar
    10    10    11   ar
    11     4    11   ar
    12    10    12   ar
    13    12    13   ar
    14    13    14   ar
    15     9    14   ar
    16     5    15   ar
    17    15    16   ar
    18    16    17   ar
    19     3    17   ar
    20    17    18    1
    21     2    19    1
    22     2    20    1
    23     2    21    1
    24     8    22    1
    25     8    23    1
    26     8    24    1
    27    13    25    1
    28    14    26    1
    29    15    27    1
    30    16    28    1
    31    18    29    1
