@<TRIPOS>MOLECULE
NuBBE_2483
 49 52 0 0 0
SMALL
GASTEIGER

@<TRIPOS>ATOM
      1 C          -1.6763    0.1413   -2.8017 C.3     1  LIG1       -0.0185
      2 C          -1.7554    1.0365   -4.0210 C.2     1  LIG1       -0.0899
      3 C          -2.8624    1.2503   -4.7478 C.2     1  LIG1       -0.1026
      4 C          -1.1906    0.7957   -1.4564 C.3     1  LIG1        0.0595
      5 C           0.2199    1.3319   -1.5151 C.2     1  LIG1        0.1130
      6 C           0.5391    2.6215   -1.6152 C.2     1  LIG1        0.0271
      7 C          -0.5277    3.6387   -1.6176 C.2     1  LIG1        0.2231
      8 O          -0.2478    4.7811   -1.9471 O.2     1  LIG1       -0.2839
      9 C          -1.8907    3.2038   -1.1289 C.2     1  LIG1        0.1637
     10 C          -2.1668    1.8925   -1.0786 C.2     1  LIG1       -0.0243
     11 O          -2.8782    4.1147   -0.7810 O.2     1  LIG1       -0.4916
     12 C          -2.4066    5.3179   -0.1774 C.3     1  LIG1        0.0790
     13 O           1.2002    0.4121   -1.1863 O.2     1  LIG1       -0.4872
     14 C           0.5008   -0.7362   -0.6804 C.3     1  LIG1        0.1287
     15 H           0.5011   -1.4480   -1.5171 H       1  LIG1        0.0787
     16 C          -0.9609   -0.3018   -0.3837 C.3     1  LIG1        0.0138
     17 H          -1.6259   -1.1626   -0.5365 H       1  LIG1        0.0350
     18 C          -1.1865    0.1776    1.0602 C.3     1  LIG1       -0.0575
     19 C           1.2626   -1.3910    0.4550 C.ar    1  LIG1        0.0001
     20 C           2.1061   -0.6809    1.3258 C.ar    1  LIG1       -0.0092
     21 C           2.7409   -1.3794    2.3388 C.ar    1  LIG1        0.1703
     22 C           2.5767   -2.7378    2.5174 C.ar    1  LIG1        0.2075
     23 C           1.7605   -3.4698    1.6757 C.ar    1  LIG1        0.1657
     24 C           1.1066   -2.7815    0.6461 C.ar    1  LIG1       -0.0094
     25 O           1.5448   -4.8159    1.6766 O.3     1  LIG1       -0.4913
     26 C           1.6217   -5.4645    2.9376 C.3     1  LIG1        0.0790
     27 O           3.3216   -3.1969    3.5615 O.3     1  LIG1       -0.4489
     28 C           3.9517   -1.9891    4.0244 C.3     1  LIG1        0.2334
     29 O           3.5922   -0.8297    3.2507 O.3     1  LIG1       -0.4525
     30 H          -1.0274   -0.7014   -3.0723 H       1  LIG1        0.0320
     31 H          -2.6693   -0.2995   -2.6281 H       1  LIG1        0.0320
     32 H          -0.8307    1.5046   -4.3542 H       1  LIG1        0.0567
     33 H          -3.8240    0.8125   -4.4974 H       1  LIG1        0.0532
     34 H          -2.8296    1.8779   -5.6360 H       1  LIG1        0.0532
     35 H           1.5598    2.9798   -1.6109 H       1  LIG1        0.0691
     36 H          -3.1618    1.5755   -0.7581 H       1  LIG1        0.0620
     37 H          -3.2760    5.9257    0.0885 H       1  LIG1        0.0660
     38 H          -1.8180    5.9249   -0.8669 H       1  LIG1        0.0660
     39 H          -1.8425    5.1039    0.7369 H       1  LIG1        0.0660
     40 H          -0.5280    1.0097    1.3280 H       1  LIG1        0.0234
     41 H          -1.0231   -0.6352    1.7754 H       1  LIG1        0.0234
     42 H          -2.2226    0.5019    1.2054 H       1  LIG1        0.0234
     43 H           2.2709    0.3872    1.2184 H       1  LIG1        0.0659
     44 H           0.4611   -3.3468   -0.0241 H       1  LIG1        0.0659
     45 H           1.3866   -6.5207    2.7739 H       1  LIG1        0.0660
     46 H           0.8764   -5.0565    3.6280 H       1  LIG1        0.0660
     47 H           2.6267   -5.4295    3.3626 H       1  LIG1        0.0660
     48 H           5.0394   -2.1222    3.9844 H       1  LIG1        0.1166
     49 H           3.6611   -1.8222    5.0685 H       1  LIG1        0.1166
@<TRIPOS>BOND
     1     1     2    1
     2     2     3    2
     3     1     4    1
     4     4     5    1
     5     5     6    2
     6     6     7    1
     7     7     8    2
     8     7     9    1
     9     9    10    2
    10     4    10    1
    11     9    11    1
    12    11    12    1
    13     5    13    1
    14    13    14    1
    15    14    16    1
    16     4    16    1
    17    19    20   ar
    18    20    21   ar
    19    21    22   ar
    20    22    23   ar
    21    23    24   ar
    22    19    24   ar
    23    23    25    1
    24    25    26    1
    25    22    27    1
    26    27    28    1
    27    28    29    1
    28    21    29    1
    29    14    19    1
    30    14    15    1
    31    16    18    1
    32    16    17    1
    33     1    30    1
    34     1    31    1
    35     2    32    1
    36     3    33    1
    37     3    34    1
    38     6    35    1
    39    10    36    1
    40    12    37    1
    41    12    38    1
    42    12    39    1
    43    18    40    1
    44    18    41    1
    45    18    42    1
    46    20    43    1
    47    24    44    1
    48    26    45    1
    49    26    46    1
    50    26    47    1
    51    28    48    1
    52    28    49    1
