@<TRIPOS>MOLECULE
NuBBE_1920
 26 27 0 0 0
SMALL
GASTEIGER

@<TRIPOS>ATOM
      1 C          -2.4830   -0.3445   -0.0666 C.3     1  LIG1       -0.0590
      2 C          -0.9477   -0.3695   -0.2227 C.3     1  LIG1       -0.0253
      3 C          -0.6538   -0.4798   -1.7235 C.3     1  LIG1       -0.0590
      4 C          -0.1931    0.7321    0.6617 C.3     1  LIG1       -0.0288
      5 C          -0.3428   -0.2946    1.8440 C.3     1  LIG1       -0.0424
      6 C          -0.1639   -1.3813    0.7266 C.3     1  LIG1       -0.0172
      7 C           1.2936   -1.5271    0.3827 C.2     1  LIG1       -0.0840
      8 C           1.9914   -0.3868    0.2309 C.2     1  LIG1       -0.0845
      9 C           1.3181    0.9654    0.4035 C.3     1  LIG1       -0.0224
     10 C           1.5385    1.8985   -0.7817 C.3     1  LIG1       -0.0587
     11 H          -2.9113    0.4794   -0.6491 H       1  LIG1        0.0235
     12 H          -2.8203   -0.2095    0.9635 H       1  LIG1        0.0235
     13 H          -2.9206   -1.2802   -0.4317 H       1  LIG1        0.0235
     14 H          -1.0104    0.4117   -2.2512 H       1  LIG1        0.0235
     15 H          -1.1653   -1.3488   -2.1531 H       1  LIG1        0.0235
     16 H           0.4054   -0.5987   -1.9593 H       1  LIG1        0.0235
     17 H          -0.7412    1.6688    0.8129 H       1  LIG1        0.0312
     18 H          -1.3089   -0.3038    2.3586 H       1  LIG1        0.0274
     19 H           0.4226   -0.2611    2.6279 H       1  LIG1        0.0274
     20 H          -0.6516   -2.3417    0.9143 H       1  LIG1        0.0348
     21 H           1.7395   -2.5100    0.2800 H       1  LIG1        0.0572
     22 H           3.0537   -0.4141    0.0035 H       1  LIG1        0.0572
     23 H           1.7540    1.4475    1.2884 H       1  LIG1        0.0343
     24 H           1.1644    1.4884   -1.7223 H       1  LIG1        0.0235
     25 H           2.6053    2.1061   -0.9182 H       1  LIG1        0.0235
     26 H           1.0274    2.8535   -0.6189 H       1  LIG1        0.0235
@<TRIPOS>BOND
     1     1     2    1
     2     2     3    1
     3     2     4    1
     4     4     5    1
     5     5     6    1
     6     2     6    1
     7     6     7    1
     8     7     8    2
     9     8     9    1
    10     4     9    1
    11     9    10    1
    12     1    11    1
    13     1    12    1
    14     1    13    1
    15     3    14    1
    16     3    15    1
    17     3    16    1
    18     4    17    1
    19     5    18    1
    20     5    19    1
    21     6    20    1
    22     7    21    1
    23     8    22    1
    24     9    23    1
    25    10    24    1
    26    10    25    1
    27    10    26    1
