REMARK  Name = NuBBE_1990
REMARK  11 active torsions:
REMARK  status: ('A' for Active; 'I' for Inactive)
REMARK    1  A    between atoms: C_1  and  C_2
REMARK    2  A    between atoms: C_11  and  C_12
REMARK    3  A    between atoms: C_17  and  O_21
REMARK    4  A    between atoms: C_24  and  C_26
REMARK    5  A    between atoms: C_26  and  C_28
REMARK    6  A    between atoms: C_26  and  C_35
REMARK    7  A    between atoms: C_28  and  C_29
REMARK    8  A    between atoms: C_29  and  C_30
REMARK    9  A    between atoms: C_30  and  C_32
REMARK   10  A    between atoms: C_32  and  C_33
REMARK   11  A    between atoms: C_32  and  C_34
REMARK                            x       y       z     vdW  Elec       q    Type
REMARK                         _______ _______ _______ _____ _____    ______ ____
ROOT
ATOM      1  C   LIG A   1      -1.611  -0.016   0.909  0.00  0.00    +0.012 C 
ATOM      2  C   LIG A   1      -0.220   0.068   0.205  0.00  0.00    -0.026 C 
ATOM      3  C   LIG A   1       0.750  -1.076   0.581  0.00  0.00    -0.001 C 
ATOM      4  C   LIG A   1       1.313  -1.074   2.008  0.00  0.00    +0.000 C 
ATOM      5  C   LIG A   1       1.913   0.317   2.373  0.00  0.00    +0.003 C 
ATOM      6  C   LIG A   1       1.758   1.364   1.232  0.00  0.00    +0.005 C 
ATOM      7  C   LIG A   1       0.353   1.437   0.629  0.00  0.00    +0.007 C 
ATOM      8  C   LIG A   1       1.691   0.859   3.846  0.00  0.00    -0.008 C 
ATOM      9  C   LIG A   1       3.045   1.508   4.262  0.00  0.00    +0.016 C 
ATOM     10  C   LIG A   1       1.302  -0.240   4.835  0.00  0.00    -0.065 C 
ATOM     11  C   LIG A   1       0.779  -1.412   4.465  0.00  0.00    -0.027 C 
ATOM     12  C   LIG A   1       0.444  -1.762   3.055  0.00  0.00    +0.031 C 
ATOM     13  C   LIG A   1       1.237   0.175   6.288  0.00  0.00    +0.062 C 
ATOM     14  C   LIG A   1       0.172   1.271   6.436  0.00  0.00    +0.119 C 
ATOM     15  C   LIG A   1       0.340   2.411   5.422  0.00  0.00    +0.032 C 
ATOM     16  C   LIG A   1       0.564   1.919   3.979  0.00  0.00    +0.013 C 
ATOM     17  C   LIG A   1       0.053  -2.325   0.069  0.00  0.00    +0.004 C 
ATOM     18  C   LIG A   1      -0.576  -1.861  -1.254  0.00  0.00    +0.004 C 
ATOM     19  C   LIG A   1      -0.470  -0.290  -1.319  0.00  0.00    -0.002 C 
ENDROOT
BRANCH  14  20
ATOM     20  O   LIG A   1       0.199   1.806   7.758  0.00  0.00    -0.392 OA
ATOM     21  H   LIG A   1       1.072   2.211   7.898  0.00  0.00    +0.210 HD
ENDBRANCH  14  20
BRANCH  19  22
ATOM     22  C   LIG A   1       0.556   0.106  -2.442  0.00  0.00    -0.010 C 
ATOM     23  C   LIG A   1       0.892   1.597  -2.526  0.00  0.00    +0.008 C 
BRANCH  22  24
ATOM     24  C   LIG A   1       0.124  -0.406  -3.864  0.00  0.00    +0.008 C 
BRANCH  24  25
ATOM     25  C   LIG A   1      -1.102   0.270  -4.504  0.00  0.00    +0.030 C 
BRANCH  25  26
ATOM     26  C   LIG A   1      -1.419  -0.300  -5.886  0.00  0.00    -0.074 C 
ATOM     27  C   LIG A   1      -0.854   0.234  -6.985  0.00  0.00    +0.008 C 
BRANCH  26  28
ATOM     28  C   LIG A   1      -2.427  -1.448  -5.947  0.00  0.00    +0.008 C 
ATOM     29  C   LIG A   1      -3.853  -0.893  -6.047  0.00  0.00    +0.012 C 
ATOM     30  C   LIG A   1      -2.193  -2.451  -7.088  0.00  0.00    +0.012 C 
ENDBRANCH  26  28
ENDBRANCH  25  26
ENDBRANCH  24  25
ENDBRANCH  22  24
ENDBRANCH  19  22
TORSDOF 6
