@<TRIPOS>MOLECULE
NuBBE_30
 26 27 0 0 0
SMALL
GASTEIGER

@<TRIPOS>ATOM
      1 O          -4.5115   -4.1967   -1.3531 O.3     1  LIG1       -0.4775
      2 C          -3.1845   -4.0705   -1.5574 C.2     1  LIG1        0.3295
      3 C          -2.6833   -2.7602   -1.1026 C.2     1  LIG1        0.0223
      4 C          -1.3659   -2.5859   -0.9222 C.2     1  LIG1       -0.0550
      5 C          -0.8072   -1.3291   -0.4698 C.2     1  LIG1       -0.0610
      6 C           0.5054   -1.1338   -0.2621 C.2     1  LIG1       -0.0545
      7 C           1.0668    0.1384    0.2247 C.ar    1  LIG1       -0.0213
      8 C           0.4851    1.3733   -0.1025 C.ar    1  LIG1       -0.0090
      9 C           1.0662    2.5231    0.3873 C.ar    1  LIG1        0.1668
     10 O           0.6145    3.7874    0.1723 O.3     1  LIG1       -0.4526
     11 C           1.5942    4.5507    0.9053 C.3     1  LIG1        0.2332
     12 O           2.5994    3.7338    1.5425 O.3     1  LIG1       -0.4526
     13 C           2.1956    2.4912    1.1673 C.ar    1  LIG1        0.1663
     14 C           2.8087    1.3035    1.4991 C.ar    1  LIG1       -0.0156
     15 C           2.2391    0.1176    1.0152 C.ar    1  LIG1       -0.0509
     16 O          -2.4963   -4.9455   -2.0483 O.2     1  LIG1       -0.2458
     17 H          -4.9399   -3.4470   -0.9014 H       1  LIG1        0.2954
     18 H          -3.3920   -1.9636   -0.9278 H       1  LIG1        0.0689
     19 H          -0.6755   -3.4066   -1.1080 H       1  LIG1        0.0620
     20 H          -1.5137   -0.5242   -0.2801 H       1  LIG1        0.0618
     21 H           1.2185   -1.9387   -0.4278 H       1  LIG1        0.0623
     22 H          -0.3981    1.4480   -0.7259 H       1  LIG1        0.0661
     23 H           1.0765    5.1353    1.6744 H       1  LIG1        0.1166
     24 H           2.0882    5.2403    0.2114 H       1  LIG1        0.1166
     25 H           3.6997    1.2889    2.1170 H       1  LIG1        0.0655
     26 H           2.7100   -0.8297    1.2726 H       1  LIG1        0.0625
@<TRIPOS>BOND
     1     1     2    1
     2     2     3    1
     3     3     4    2
     4     4     5    1
     5     5     6    2
     6     6     7    1
     7     7     8   ar
     8     8     9   ar
     9     9    10    1
    10    10    11    1
    11    11    12    1
    12     9    13   ar
    13    12    13    1
    14    13    14   ar
    15    14    15   ar
    16     7    15   ar
    17     2    16    2
    18     1    17    1
    19     3    18    1
    20     4    19    1
    21     5    20    1
    22     6    21    1
    23     8    22    1
    24    11    23    1
    25    11    24    1
    26    14    25    1
    27    15    26    1
