@<TRIPOS>MOLECULE
NuBBE_473
 32 33 0 0 0
SMALL
GASTEIGER

@<TRIPOS>ATOM
      1 O          -0.8370    2.4633    1.6706 O.2     1  LIG1       -0.2452
      2 C          -0.5393    2.3453    0.4911 C.2     1  LIG1        0.3382
      3 C           0.2896    1.2265   -0.0300 C.2     1  LIG1        0.0767
      4 C           0.8903    1.3308   -1.2265 C.2     1  LIG1        0.0982
      5 O           1.7160    0.3995   -1.7986 O.2     1  LIG1       -0.4705
      6 C           2.1684   -0.6455   -0.9360 C.3     1  LIG1        0.2022
      7 H           2.4873   -1.4654   -1.5866 H       1  LIG1        0.1056
      8 C           1.1037   -1.1530    0.0359 C.3     1  LIG1        0.0335
      9 C           0.4596   -0.0006    0.8363 C.3     1  LIG1        0.0285
     10 C          -0.8599   -0.6276    1.3434 C.3     1  LIG1        0.0631
     11 H          -1.7054    0.0663    1.3304 H       1  LIG1        0.0599
     12 C          -1.1464   -1.8568    0.4736 C.3     1  LIG1       -0.0232
     13 C          -0.1065   -1.8179   -0.6450 C.3     1  LIG1       -0.0324
     14 H          -0.4908   -1.1875   -1.4572 H       1  LIG1        0.0304
     15 C           0.1835   -3.1972   -1.2179 C.3     1  LIG1       -0.0619
     16 O          -0.6738   -1.0576    2.6915 O.3     1  LIG1       -0.3912
     17 H           1.1085    0.2705    1.6796 H       1  LIG1        0.0382
     18 H           1.5643   -1.8562    0.7444 H       1  LIG1        0.0370
     19 O           3.3400   -0.2310   -0.2413 O.3     1  LIG1       -0.3575
     20 O          -0.9527    3.1557   -0.5140 O.3     1  LIG1       -0.4646
     21 C          -1.7947    4.2377   -0.1119 C.3     1  LIG1        0.0820
     22 H           0.7844    2.1748   -1.8993 H       1  LIG1        0.1029
     23 H          -2.1584   -1.8154    0.0558 H       1  LIG1        0.0293
     24 H          -1.0725   -2.7820    1.0583 H       1  LIG1        0.0293
     25 H           0.6175   -3.8622   -0.4642 H       1  LIG1        0.0233
     26 H           0.8833   -3.1332   -2.0568 H       1  LIG1        0.0233
     27 H          -0.7374   -3.6603   -1.5880 H       1  LIG1        0.0233
     28 H          -1.5448   -1.3225    3.0352 H       1  LIG1        0.2098
     29 H           3.0637    0.4253    0.4172 H       1  LIG1        0.2135
     30 H          -1.7744    4.9906   -0.9049 H       1  LIG1        0.0661
     31 H          -1.4446    4.7071    0.8127 H       1  LIG1        0.0661
     32 H          -2.8215    3.8785    0.0020 H       1  LIG1        0.0661
@<TRIPOS>BOND
     1     1     2    2
     2     3     4    2
     3     4     5    1
     4     5     6    1
     5     6     8    1
     6     8     9    1
     7     9    10    1
     8    10    12    1
     9    12    13    1
    10     3     9    1
    11    13     8    1
    12     2    20    1
    13    20    21    1
    14     2     3    1
    15     6     7    1
    16     6    19    1
    17     8    18    1
    18     9    17    1
    19    10    16    1
    20    10    11    1
    21    13    15    1
    22    13    14    1
    23     4    22    1
    24    12    23    1
    25    12    24    1
    26    15    25    1
    27    15    26    1
    28    15    27    1
    29    16    28    1
    30    19    29    1
    31    21    30    1
    32    21    31    1
    33    21    32    1
