REMARK  Name = NuBBE_1064
REMARK  9 active torsions:
REMARK  status: ('A' for Active; 'I' for Inactive)
REMARK    1  A    between atoms: O_1  and  C_2
REMARK    2  A    between atoms: C_6  and  C_7
REMARK    3  A    between atoms: C_11  and  C_12
REMARK    4  A    between atoms: C_19  and  C_20
REMARK    5  A    between atoms: C_23  and  C_24
REMARK    6  A    between atoms: C_27  and  C_28
REMARK    7  A    between atoms: C_27  and  C_29
REMARK    8  A    between atoms: C_32  and  C_33
REMARK    9  A    between atoms: C_32  and  C_34
REMARK                            x       y       z     vdW  Elec       q    Type
REMARK                         _______ _______ _______ _____ _____    ______ ____
ROOT
ATOM      1  C   LIG A   1       2.922   0.149  -4.162  0.00  0.00    +0.120 C 
ATOM      2  C   LIG A   1       2.926   1.591  -3.654  0.00  0.00    +0.032 C 
ATOM      3  C   LIG A   1       2.087   1.748  -2.410  0.00  0.00    +0.010 C 
ATOM      4  C   LIG A   1       2.478   0.712  -1.292  0.00  0.00    -0.025 C 
ATOM      5  C   LIG A   1       3.685   1.339  -0.553  0.00  0.00    +0.012 C 
ATOM      6  C   LIG A   1       2.713  -0.673  -1.983  0.00  0.00    +0.003 C 
ATOM      7  C   LIG A   1       2.572  -1.871  -1.020  0.00  0.00    +0.005 C 
ATOM      8  C   LIG A   1       1.175  -1.920  -0.462  0.00  0.00    +0.008 C 
ATOM      9  C   LIG A   1       0.918  -0.761   0.569  0.00  0.00    -0.021 C 
ATOM     10  C   LIG A   1       1.731  -1.222   1.805  0.00  0.00    +0.012 C 
ATOM     11  C   LIG A   1       1.224   0.608  -0.298  0.00  0.00    +0.004 C 
ATOM     12  C   LIG A   1       1.092   1.984   0.367  0.00  0.00    +0.039 C 
ATOM     13  C   LIG A   1      -0.170   2.140   1.071  0.00  0.00    +0.152 C 
ATOM     14  O   LIG A   1       0.025   1.603   2.353  0.00  0.00    -0.364 OA
ATOM     15  C   LIG A   1      -1.016   1.017   1.529  0.00  0.00    +0.105 C 
ATOM     16  C   LIG A   1      -0.634  -0.734   1.067  0.00  0.00    +0.005 C 
ATOM     17  C   LIG A   1      -1.404  -1.554  -0.127  0.00  0.00    +0.014 C 
ATOM     18  C   LIG A   1      -1.110  -1.741   2.199  0.00  0.00    +0.010 C 
ATOM     19  C   LIG A   1      -2.505  -1.393   2.692  0.00  0.00    +0.007 C 
ATOM     20  C   LIG A   1      -2.847   0.101   2.516  0.00  0.00    -0.026 C 
ATOM     21  C   LIG A   1      -1.696   0.335   3.906  0.00  0.00    +0.011 C 
ATOM     22  C   LIG A   1      -2.531   1.459   2.322  0.00  0.00    +0.031 C 
ATOM     23  C   LIG A   1      -4.109   1.896   1.899  0.00  0.00    +0.013 C 
ATOM     24  C   LIG A   1      -5.271   0.621   1.244  0.00  0.00    -0.035 C 
ATOM     25  C   LIG A   1      -5.764   0.339   2.684  0.00  0.00    +0.011 C 
ATOM     26  C   LIG A   1      -5.273  -1.041   0.922  0.00  0.00    +0.011 C 
ATOM     27  C   LIG A   1      -4.361   0.668   0.049  0.00  0.00    +0.007 C 
ATOM     28  C   LIG A   1      -2.992   0.441   0.637  0.00  0.00    +0.007 C 
ATOM     29  C   LIG A   1       3.780  -0.917  -3.212  0.00  0.00    -0.006 C 
ATOM     30  C   LIG A   1       4.972  -1.201  -2.136  0.00  0.00    +0.014 C 
ATOM     31  C   LIG A   1       5.064  -0.453  -4.108  0.00  0.00    +0.014 C 
ENDROOT
BRANCH   1  32
ATOM     32  O   LIG A   1       1.590  -0.341  -4.459  0.00  0.00    -0.391 OA
ATOM     33  H   LIG A   1       0.923   0.190  -3.994  0.00  0.00    +0.210 HD
ENDBRANCH   1  32
TORSDOF 1
