REMARK  Name = NuBBE_2160
REMARK  9 active torsions:
REMARK  status: ('A' for Active; 'I' for Inactive)
REMARK    1  A    between atoms: O_1  and  C_2
REMARK    2  A    between atoms: C_7  and  C_8
REMARK    3  A    between atoms: C_18  and  C_19
REMARK    4  A    between atoms: C_24  and  C_26
REMARK    5  A    between atoms: C_26  and  C_28
REMARK    6  A    between atoms: C_26  and  C_29
REMARK    7  A    between atoms: C_30  and  C_31
REMARK    8  A    between atoms: C_31  and  C_32
REMARK    9  A    between atoms: C_31  and  C_33
REMARK                            x       y       z     vdW  Elec       q    Type
REMARK                         _______ _______ _______ _____ _____    ______ ____
ROOT
ATOM      1  C   LIG A   1       1.272  -5.739  -2.663  0.00  0.00    +0.119 C 
ATOM      2  C   LIG A   1      -0.034  -5.663  -1.854  0.00  0.00    +0.062 C 
ATOM      3  C   LIG A   1       2.419  -4.920  -2.057  0.00  0.00    +0.032 C 
ATOM      4  C   LIG A   1       1.995  -3.506  -1.615  0.00  0.00    +0.013 C 
ATOM      5  C   LIG A   1       0.722  -3.483  -0.715  0.00  0.00    -0.008 C 
ATOM      6  C   LIG A   1       1.038  -4.227   0.608  0.00  0.00    +0.016 C 
ATOM      7  C   LIG A   1      -0.348  -4.219  -1.515  0.00  0.00    -0.065 C 
ATOM      8  C   LIG A   1      -1.428  -3.609  -2.034  0.00  0.00    -0.027 C 
ATOM      9  C   LIG A   1      -1.692  -2.137  -1.944  0.00  0.00    +0.031 C 
ATOM     10  C   LIG A   1      -0.448  -1.312  -1.557  0.00  0.00    +0.000 C 
ATOM     11  C   LIG A   1       0.327  -1.985  -0.396  0.00  0.00    +0.003 C 
ATOM     12  C   LIG A   1      -0.464  -1.780   0.911  0.00  0.00    +0.005 C 
ATOM     13  C   LIG A   1      -0.621  -0.294   1.226  0.00  0.00    +0.007 C 
ATOM     14  C   LIG A   1      -1.362   0.515   0.142  0.00  0.00    -0.026 C 
ATOM     15  C   LIG A   1      -2.880   0.242   0.202  0.00  0.00    +0.012 C 
ATOM     16  C   LIG A   1      -0.803   0.176  -1.273  0.00  0.00    -0.001 C 
ATOM     17  C   LIG A   1       0.435   1.070  -1.393  0.00  0.00    +0.004 C 
ATOM     18  C   LIG A   1       0.115   2.348  -0.635  0.00  0.00    +0.005 C 
ATOM     19  C   LIG A   1      -1.104   2.065   0.272  0.00  0.00    +0.002 C 
ENDROOT
BRANCH   1  20
ATOM     20  O   LIG A   1       1.039  -5.290  -4.002  0.00  0.00    -0.392 OA
ATOM     21  H   LIG A   1       0.621  -4.413  -3.944  0.00  0.00    +0.210 HD
ENDBRANCH   1  20
BRANCH  19  22
ATOM     22  C   LIG A   1      -0.911   2.667   1.702  0.00  0.00    +0.012 C 
ATOM     23  C   LIG A   1      -2.124   2.473   2.621  0.00  0.00    +0.012 C 
BRANCH  22  24
ATOM     24  C   LIG A   1      -0.608   4.161   1.647  0.00  0.00    -0.027 C 
ATOM     25  C   LIG A   1       0.549   4.710   2.048  0.00  0.00    -0.028 C 
BRANCH  25  26
ATOM     26  C   LIG A   1       0.848   6.194   2.037  0.00  0.00    +0.005 C 
ATOM     27  C   LIG A   1       1.179   6.676   3.451  0.00  0.00    +0.011 C 
ATOM     28  C   LIG A   1       1.996   6.536   1.086  0.00  0.00    +0.011 C 
ENDBRANCH  25  26
ENDBRANCH  22  24
ENDBRANCH  19  22
TORSDOF 4
