REMARK  Name = NuBBE_1804
REMARK  12 active torsions:
REMARK  status: ('A' for Active; 'I' for Inactive)
REMARK    1  A    between atoms: C_1  and  C_2
REMARK    2  A    between atoms: C_2  and  C_3
REMARK    3  A    between atoms: C_3  and  C_4
REMARK    4  A    between atoms: C_4  and  C_5
REMARK    5  A    between atoms: C_5  and  C_6
REMARK    6  A    between atoms: C_6  and  C_7
REMARK    7  A    between atoms: C_7  and  C_8
REMARK    8  A    between atoms: C_8  and  C_9
REMARK    9  A    between atoms: C_9  and  C_10
REMARK   10  A    between atoms: C_10  and  C_11
REMARK   11  A    between atoms: C_13  and  C_14
REMARK   12  A    between atoms: C_14  and  C_15
REMARK                            x       y       z     vdW  Elec       q    Type
REMARK                         _______ _______ _______ _____ _____    ______ ____
ROOT
ATOM      1  C   LIG A   1       1.103   1.607   0.325  0.00  0.00    +0.045 C 
ENDROOT
BRANCH   1   2
ATOM      2  C   LIG A   1       1.812   2.552  -0.649  0.00  0.00    +0.177 C 
ATOM      3  C   LIG A   1       1.330   3.989  -0.539  0.00  0.00    +0.059 C 
ATOM      4  C   LIG A   1       2.530   4.798  -1.001  0.00  0.00    +0.108 C 
ATOM      5  C   LIG A   1       3.665   3.888  -0.598  0.00  0.00    +0.311 C 
ATOM      6  O   LIG A   1       3.209   2.623  -0.361  0.00  0.00    -0.461 OA
ATOM      7  O   LIG A   1       4.833   4.215  -0.547  0.00  0.00    -0.251 OA
BRANCH   4   8
ATOM      8  C   LIG A   1       2.550   5.046  -2.504  0.00  0.00    +0.085 C 
BRANCH   8   9
ATOM      9  C   LIG A   1       3.746   5.876  -2.909  0.00  0.00    +0.224 C 
ATOM     10  O   LIG A   1       3.640   6.960  -3.474  0.00  0.00    -0.301 OA
ENDBRANCH   8   9
ENDBRANCH   4   8
ENDBRANCH   1   2
BRANCH   1  11
ATOM     11  C   LIG A   1       1.591   0.152   0.222  0.00  0.00    +0.003 C 
BRANCH  11  12
ATOM     12  C   LIG A   1       0.889  -0.801   1.204  0.00  0.00    +0.000 C 
BRANCH  12  13
ATOM     13  C   LIG A   1      -0.620  -0.902   0.970  0.00  0.00    -0.000 C 
BRANCH  13  14
ATOM     14  C   LIG A   1      -1.283  -1.928   1.894  0.00  0.00    -0.000 C 
BRANCH  14  15
ATOM     15  C   LIG A   1      -2.800  -2.013   1.682  0.00  0.00    -0.000 C 
BRANCH  15  16
ATOM     16  C   LIG A   1      -3.215  -2.453   0.272  0.00  0.00    -0.000 C 
BRANCH  16  17
ATOM     17  C   LIG A   1      -2.694  -3.838  -0.136  0.00  0.00    -0.000 C 
BRANCH  17  19
ATOM     18  C   LIG A   1      -2.693  -6.321   0.375  0.00  0.00    +0.004 C 
ATOM     19  C   LIG A   1      -3.216  -4.952   0.774  0.00  0.00    -0.003 C 
ENDBRANCH  17  19
ENDBRANCH  16  17
ENDBRANCH  15  16
ENDBRANCH  14  15
ENDBRANCH  13  14
ENDBRANCH  12  13
ENDBRANCH  11  12
ENDBRANCH   1  11
TORSDOF 11
