@<TRIPOS>MOLECULE
NuBBE_274
 45 46 0 0 0
SMALL
GASTEIGER

@<TRIPOS>ATOM
      1 O          -0.7327   -0.0806    7.4383 O.3     1  LIG1       -0.5033
      2 C          -0.7401    0.2502    6.1121 C.ar    1  LIG1        0.1585
      3 C           0.2802   -0.2612    5.3100 C.ar    1  LIG1       -0.0160
      4 C           0.3177    0.0378    3.9503 C.ar    1  LIG1       -0.0509
      5 C          -0.6760    0.8307    3.3620 C.ar    1  LIG1       -0.0211
      6 C          -1.6786    1.3620    4.1834 C.ar    1  LIG1       -0.0092
      7 C          -1.7268    1.0758    5.5596 C.ar    1  LIG1        0.1618
      8 O          -2.7834    1.6712    6.1975 O.3     1  LIG1       -0.4914
      9 C          -2.9323    1.4400    7.5916 C.3     1  LIG1        0.0790
     10 C          -0.6513    1.1479    1.9244 C.2     1  LIG1       -0.0477
     11 C          -0.1366    0.3046    1.0199 C.2     1  LIG1        0.0231
     12 C          -0.0310    0.6557   -0.4085 C.2     1  LIG1        0.3342
     13 O           0.7970   -0.2575   -0.9612 O.3     1  LIG1       -0.4292
     14 C           1.0579   -0.0707   -2.3527 C.3     1  LIG1        0.2340
     15 H           1.3877    0.9640   -2.5200 H       1  LIG1        0.1085
     16 O          -0.1332   -0.3551   -3.0889 O.3     1  LIG1       -0.3312
     17 C           0.0370   -0.1736   -4.4917 C.3     1  LIG1        0.1140
     18 H           0.3923    0.8451   -4.7001 H       1  LIG1        0.0647
     19 C           1.0547   -1.1918   -5.0294 C.3     1  LIG1        0.1120
     20 H           0.6887   -2.2158   -4.8844 H       1  LIG1        0.0647
     21 C           2.3771   -1.0198   -4.2775 C.3     1  LIG1        0.1152
     22 H           2.8625   -0.0798   -4.5698 H       1  LIG1        0.0648
     23 C           2.1735   -1.0558   -2.7620 C.3     1  LIG1        0.1455
     24 H           1.9087   -2.0718   -2.4435 H       1  LIG1        0.0683
     25 O           3.4219   -0.7454   -2.1230 O.3     1  LIG1       -0.3829
     26 O           3.2977   -2.0578   -4.6546 O.3     1  LIG1       -0.3864
     27 O           1.3226   -1.0302   -6.4258 O.3     1  LIG1       -0.3865
     28 C          -1.3352   -0.3279   -5.1508 C.3     1  LIG1        0.0731
     29 O          -1.2292   -0.1460   -6.5600 O.3     1  LIG1       -0.3924
     30 O          -0.5659    1.6103   -0.9498 O.2     1  LIG1       -0.2455
     31 H           0.0244   -0.6611    7.6182 H       1  LIG1        0.2923
     32 H           1.0604   -0.8933    5.7230 H       1  LIG1        0.0655
     33 H           1.1406   -0.3582    3.3611 H       1  LIG1        0.0625
     34 H          -2.4503    2.0017    3.7581 H       1  LIG1        0.0661
     35 H          -3.8085    2.0003    7.9315 H       1  LIG1        0.0660
     36 H          -2.0724    1.8197    8.1529 H       1  LIG1        0.0660
     37 H          -3.1256    0.3822    7.7985 H       1  LIG1        0.0660
     38 H          -1.0599    2.1078    1.6212 H       1  LIG1        0.0626
     39 H           0.2605   -0.6685    1.2887 H       1  LIG1        0.0689
     40 H           4.0751   -1.3396   -2.5455 H       1  LIG1        0.2102
     41 H           3.2483   -2.0916   -5.6325 H       1  LIG1        0.2100
     42 H           0.4540   -0.8633   -6.8571 H       1  LIG1        0.2100
     43 H          -2.0335    0.4096   -4.7375 H       1  LIG1        0.0584
     44 H          -1.7587   -1.3184   -4.9502 H       1  LIG1        0.0584
     45 H          -1.9791    0.4183   -6.8257 H       1  LIG1        0.2095
@<TRIPOS>BOND
     1     1     2    1
     2     2     3   ar
     3     3     4   ar
     4     4     5   ar
     5     5     6   ar
     6     6     7   ar
     7     2     7   ar
     8     7     8    1
     9     8     9    1
    10     5    10    1
    11    10    11    2
    12    11    12    1
    13    12    13    1
    14    14    16    1
    15    16    17    1
    16    17    18    1
    17    17    19    1
    18    19    21    1
    19    21    22    1
    20    21    23    1
    21    14    23    1
    22    21    26    1
    23    17    28    1
    24    28    29    1
    25    12    30    2
    26    14    15    1
    27    14    13    1
    28    19    27    1
    29    19    20    1
    30    23    25    1
    31    23    24    1
    32     1    31    1
    33     3    32    1
    34     4    33    1
    35     6    34    1
    36     9    35    1
    37     9    36    1
    38     9    37    1
    39    10    38    1
    40    11    39    1
    41    25    40    1
    42    26    41    1
    43    27    42    1
    44    28    43    1
    45    28    44    1
    46    29    45    1
