@<TRIPOS>MOLECULE
NuBBE_80
 39 41 0 0 0
SMALL
GASTEIGER

@<TRIPOS>ATOM
      1 O          -3.1627   -0.5528    1.8659 O.2     1  LIG1       -0.2706
      2 C          -2.5681   -0.1933    0.8598 C.2     1  LIG1        0.2391
      3 N          -2.4070    1.1247    0.4937 N.am    1  LIG1       -0.2980
      4 C          -1.6683    1.6496   -0.6431 C.3     1  LIG1        0.0150
      5 C          -1.3691    3.0878   -0.2578 C.3     1  LIG1       -0.0357
      6 C          -2.5865    3.4791    0.5701 C.3     1  LIG1       -0.0357
      7 C          -2.9481    2.1961    1.3102 C.3     1  LIG1        0.0150
      8 C          -1.9530   -1.1807   -0.0634 C.2     1  LIG1       -0.0036
      9 C          -1.3725   -2.2979    0.3989 C.2     1  LIG1       -0.0788
     10 C          -0.7112   -3.2965   -0.5109 C.3     1  LIG1       -0.0303
     11 C           0.7878   -3.4639   -0.2268 C.3     1  LIG1       -0.0241
     12 C           1.5811   -2.1874   -0.4008 C.ar    1  LIG1       -0.0434
     13 C           2.2764   -1.6406    0.6895 C.ar    1  LIG1       -0.0130
     14 C           2.9759   -0.4694    0.4921 C.ar    1  LIG1        0.1665
     15 O           3.7015    0.1895    1.4347 O.3     1  LIG1       -0.4526
     16 C           4.1944    1.3048    0.6651 C.3     1  LIG1        0.2332
     17 O           3.7521    1.2973   -0.7085 O.3     1  LIG1       -0.4526
     18 C           3.0044    0.1620   -0.7284 C.ar    1  LIG1        0.1662
     19 C           2.3365   -0.3423   -1.8217 C.ar    1  LIG1       -0.0159
     20 C           1.6226   -1.5321   -1.6539 C.ar    1  LIG1       -0.0549
     21 H          -2.3355    1.6034   -1.5113 H       1  LIG1        0.0465
     22 H          -0.7623    1.0747   -0.8527 H       1  LIG1        0.0465
     23 H          -1.2167    3.7328   -1.1276 H       1  LIG1        0.0281
     24 H          -0.4668    3.1283    0.3642 H       1  LIG1        0.0281
     25 H          -3.4072    3.7738   -0.0943 H       1  LIG1        0.0281
     26 H          -2.3845    4.3119    1.2498 H       1  LIG1        0.0281
     27 H          -4.0306    2.0727    1.4182 H       1  LIG1        0.0465
     28 H          -2.4863    2.1529    2.3023 H       1  LIG1        0.0465
     29 H          -1.9823   -0.9586   -1.1208 H       1  LIG1        0.0666
     30 H          -1.3434   -2.4947    1.4699 H       1  LIG1        0.0574
     31 H          -0.8573   -3.0095   -1.5600 H       1  LIG1        0.0311
     32 H          -1.2123   -4.2631   -0.3864 H       1  LIG1        0.0311
     33 H           1.2057   -4.2208   -0.9031 H       1  LIG1        0.0316
     34 H           0.9240   -3.8574    0.7889 H       1  LIG1        0.0316
     35 H           2.2669   -2.1124    1.6665 H       1  LIG1        0.0658
     36 H           5.2903    1.2845    0.6811 H       1  LIG1        0.1166
     37 H           3.8526    2.2333    1.1362 H       1  LIG1        0.1166
     38 H           2.3687    0.1640   -2.7793 H       1  LIG1        0.0655
     39 H           1.0905   -1.9498   -2.5060 H       1  LIG1        0.0621
@<TRIPOS>BOND
     1     1     2    2
     2     2     3   am
     3     3     4    1
     4     4     5    1
     5     5     6    1
     6     6     7    1
     7     3     7    1
     8     2     8    1
     9     8     9    2
    10     9    10    1
    11    10    11    1
    12    11    12    1
    13    12    13   ar
    14    13    14   ar
    15    14    15    1
    16    15    16    1
    17    16    17    1
    18    14    18   ar
    19    17    18    1
    20    18    19   ar
    21    19    20   ar
    22    12    20   ar
    23     4    21    1
    24     4    22    1
    25     5    23    1
    26     5    24    1
    27     6    25    1
    28     6    26    1
    29     7    27    1
    30     7    28    1
    31     8    29    1
    32     9    30    1
    33    10    31    1
    34    10    32    1
    35    11    33    1
    36    11    34    1
    37    13    35    1
    38    16    36    1
    39    16    37    1
    40    19    38    1
    41    20    39    1
