REMARK  Name = NuBBE_2099
REMARK  5 active torsions:
REMARK  status: ('A' for Active; 'I' for Inactive)
REMARK    1  A    between atoms: C_1  and  C_2
REMARK    2  A    between atoms: C_1  and  C_4
REMARK    3  A    between atoms: C_5  and  O_6
REMARK    4  A    between atoms: C_8  and  C_13
REMARK    5  A    between atoms: C_10  and  C_12
REMARK                            x       y       z     vdW  Elec       q    Type
REMARK                         _______ _______ _______ _____ _____    ______ ____
ROOT
ATOM      1  C   LIG A   1      -0.444  -1.407  -1.214  0.00  0.00    +0.044 C 
ATOM      2  C   LIG A   1       0.833  -1.159  -2.053  0.00  0.00    +0.239 C 
ATOM      3  O   LIG A   1       1.544  -0.122  -1.372  0.00  0.00    -0.334 OA
ATOM      4  C   LIG A   1       1.306  -0.248   0.046  0.00  0.00    +0.156 C 
ATOM      5  C   LIG A   1       0.201  -1.323   0.198  0.00  0.00    +0.032 C 
ATOM      6  C   LIG A   1      -0.696  -1.229   1.421  0.00  0.00    +0.011 C 
ATOM      7  C   LIG A   1       1.765  -2.401  -2.190  0.00  0.00    +0.215 C 
ATOM      8  O   LIG A   1       2.963  -2.311  -2.458  0.00  0.00    -0.287 OA
ATOM      9  C   LIG A   1       1.175  -3.756  -2.043  0.00  0.00    +0.048 C 
ATOM     10  C   LIG A   1      -0.115  -3.909  -1.756  0.00  0.00    -0.022 C 
ATOM     11  C   LIG A   1      -1.073  -2.781  -1.546  0.00  0.00    +0.040 C 
ENDROOT
BRANCH   4  12
ATOM     12  C   LIG A   1       1.103   1.128   0.657  0.00  0.00    -0.015 A 
ATOM     13  C   LIG A   1       1.368   1.331   2.026  0.00  0.00    +0.055 A 
ATOM     14  C   LIG A   1       1.193   2.596   2.555  0.00  0.00    +0.167 A 
ATOM     15  C   LIG A   1       0.767   3.652   1.786  0.00  0.00    +0.166 A 
ATOM     16  C   LIG A   1       0.515   3.508   0.443  0.00  0.00    +0.050 A 
ATOM     17  C   LIG A   1       0.702   2.241  -0.122  0.00  0.00    +0.010 A 
ATOM     18  O   LIG A   1       0.652   4.805   2.497  0.00  0.00    -0.453 OA
ATOM     19  C   LIG A   1       1.097   4.365   3.796  0.00  0.00    +0.466 C 
ATOM     20  O   LIG A   1       1.416   2.958   3.848  0.00  0.00    -0.453 OA
ENDBRANCH   4  12
BRANCH   2  21
ATOM     21  O   LIG A   1       0.537  -0.698  -3.359  0.00  0.00    -0.358 OA
ATOM     22  H   LIG A   1       1.415  -0.529  -3.750  0.00  0.00    +0.213 HD
ENDBRANCH   2  21
BRANCH   1  23
ATOM     23  C   LIG A   1      -1.525  -0.309  -1.502  0.00  0.00    +0.040 C 
BRANCH  23  24
ATOM     24  C   LIG A   1      -2.835  -0.429  -0.761  0.00  0.00    -0.034 C 
ATOM     25  C   LIG A   1      -3.333   0.520   0.043  0.00  0.00    +0.004 C 
ENDBRANCH  23  24
ENDBRANCH   1  23
TORSDOF 4
