@<TRIPOS>MOLECULE
NuBBE_386
 82 86 0 0 0
SMALL
GASTEIGER

@<TRIPOS>ATOM
      1 C           2.0455   -2.2365    1.2878 C.3     1  LIG1       -0.0553
      2 C           1.0560   -1.1695    0.7098 C.3     1  LIG1       -0.0051
      3 C           1.1868    0.1999    1.5902 C.3     1  LIG1       -0.0194
      4 C           0.4240    0.1179    2.9435 C.3     1  LIG1       -0.0463
      5 C          -1.0269    0.5995    2.9408 C.3     1  LIG1       -0.0486
      6 C          -1.1313    2.0320    2.3923 C.3     1  LIG1       -0.0277
      7 H          -0.3651    2.5994    2.9467 H       1  LIG1        0.0312
      8 C          -2.4760    2.7770    2.7420 C.3     1  LIG1       -0.0032
      9 C          -3.7340    2.0980    2.1651 C.3     1  LIG1       -0.0571
     10 C          -2.3909    4.2430    2.2282 C.3     1  LIG1        0.0864
     11 H          -3.3472    4.7638    2.3647 H       1  LIG1        0.0624
     12 C          -1.9795    4.3391    0.7519 C.3     1  LIG1        0.0821
     13 H          -2.7845    3.9769    0.1078 H       1  LIG1        0.0619
     14 C          -0.6698    3.5958    0.4612 C.3     1  LIG1       -0.0184
     15 C          -0.6719    2.0887    0.8874 C.3     1  LIG1       -0.0226
     16 C           0.8218    1.5361    0.8225 C.3     1  LIG1       -0.0257
     17 H           1.3568    2.3242    1.3780 H       1  LIG1        0.0315
     18 C           1.4894    1.5795   -0.5677 C.3     1  LIG1       -0.0306
     19 C           1.5518    0.2828   -1.3026 C.2     1  LIG1       -0.0836
     20 C           1.3611   -0.9430   -0.7846 C.2     1  LIG1       -0.0626
     21 C           1.2922   -2.2040   -1.6727 C.3     1  LIG1       -0.0008
     22 H           1.8812   -2.9737   -1.1561 H       1  LIG1        0.0359
     23 C          -0.1800   -2.7112   -1.6709 C.3     1  LIG1        0.0743
     24 C          -1.2110   -1.7244   -2.2365 C.2     1  LIG1        0.3115
     25 O          -0.7766   -0.9543   -3.2474 O.3     1  LIG1       -0.4802
     26 O          -2.3847   -1.6436   -1.9015 O.2     1  LIG1       -0.2504
     27 C          -0.5848   -3.0077   -0.1954 C.3     1  LIG1       -0.0359
     28 C          -0.3562   -1.8209    0.7641 C.3     1  LIG1       -0.0424
     29 C          -0.3124   -4.0176   -2.4779 C.3     1  LIG1       -0.0364
     30 C           0.2747   -3.9127   -3.8798 C.3     1  LIG1       -0.0492
     31 C           1.7518   -3.5055   -3.8511 C.3     1  LIG1       -0.0407
     32 H           2.3043   -4.3010   -3.3317 H       1  LIG1        0.0301
     33 C           1.9759   -2.1709   -3.0826 C.3     1  LIG1       -0.0337
     34 H           1.5556   -1.3594   -3.6855 H       1  LIG1        0.0307
     35 C           3.4890   -1.9030   -2.9405 C.3     1  LIG1       -0.0616
     36 C           2.2769   -3.4474   -5.2911 C.3     1  LIG1       -0.0622
     37 C          -1.6061    1.3417   -0.0875 C.3     1  LIG1       -0.0589
     38 O          -1.7869    5.7214    0.4210 O.3     1  LIG1       -0.3892
     39 O          -1.4170    5.0010    2.9742 O.3     1  LIG1       -0.3887
     40 C          -2.6750    2.8083    4.2820 C.3     1  LIG1       -0.0571
     41 C           2.7028    0.3864    1.9934 C.3     1  LIG1       -0.0585
     42 H           3.0872   -2.0018    1.0419 H       1  LIG1        0.0238
     43 H           1.8715   -3.2478    0.9113 H       1  LIG1        0.0238
     44 H           1.9530   -2.3177    2.3761 H       1  LIG1        0.0238
     45 H           0.9492    0.7372    3.6854 H       1  LIG1        0.0271
     46 H           0.4660   -0.8967    3.3549 H       1  LIG1        0.0271
     47 H          -1.3670    0.5597    3.9805 H       1  LIG1        0.0268
     48 H          -1.6756   -0.0886    2.3978 H       1  LIG1        0.0268
     49 H          -3.8019    2.1686    1.0792 H       1  LIG1        0.0236
     50 H          -4.6417    2.5741    2.5563 H       1  LIG1        0.0236
     51 H          -3.7829    1.0397    2.4407 H       1  LIG1        0.0236
     52 H           0.1526    4.1257    0.9615 H       1  LIG1        0.0296
     53 H          -0.4586    3.7012   -0.6099 H       1  LIG1        0.0296
     54 H           2.5201    1.9432   -0.4622 H       1  LIG1        0.0310
     55 H           0.9950    2.3074   -1.2165 H       1  LIG1        0.0310
     56 H           1.7271    0.4013   -2.3692 H       1  LIG1        0.0572
     57 H          -1.5600   -0.4150   -3.4825 H       1  LIG1        0.2951
     58 H          -0.0310   -3.8799    0.1726 H       1  LIG1        0.0276
     59 H          -1.6424   -3.2981   -0.1377 H       1  LIG1        0.0276
     60 H          -0.5757   -2.1742    1.7785 H       1  LIG1        0.0274
     61 H          -1.1131   -1.0831    0.5258 H       1  LIG1        0.0274
     62 H          -1.3664   -4.3140   -2.5578 H       1  LIG1        0.0276
     63 H           0.1986   -4.8340   -1.9505 H       1  LIG1        0.0276
     64 H          -0.3043   -3.2046   -4.4838 H       1  LIG1        0.0268
     65 H           0.1723   -4.8882   -4.3721 H       1  LIG1        0.0268
     66 H           3.9547   -1.7367   -3.9164 H       1  LIG1        0.0233
     67 H           3.9946   -2.7493   -2.4627 H       1  LIG1        0.0233
     68 H           3.7021   -1.0134   -2.3429 H       1  LIG1        0.0233
     69 H           1.8330   -2.6107   -5.8409 H       1  LIG1        0.0233
     70 H           2.0365   -4.3703   -5.8303 H       1  LIG1        0.0233
     71 H           3.3647   -3.3383   -5.3194 H       1  LIG1        0.0233
     72 H          -1.0605    0.8667   -0.9027 H       1  LIG1        0.0235
     73 H          -2.3183    2.0063   -0.5846 H       1  LIG1        0.0235
     74 H          -2.2101    0.5789    0.4027 H       1  LIG1        0.0235
     75 H          -1.2697    6.0823    1.1700 H       1  LIG1        0.2099
     76 H          -1.7999    5.1805    3.8508 H       1  LIG1        0.2099
     77 H          -2.9735    1.8306    4.6747 H       1  LIG1        0.0236
     78 H          -3.4675    3.5135    4.5596 H       1  LIG1        0.0236
     79 H          -1.7613    3.1112    4.8047 H       1  LIG1        0.0236
     80 H           3.0300   -0.3626    2.7224 H       1  LIG1        0.0235
     81 H           2.8747    1.3560    2.4771 H       1  LIG1        0.0235
     82 H           3.3684    0.3348    1.1259 H       1  LIG1        0.0235
@<TRIPOS>BOND
     1     1     2    1
     2     2     3    1
     3     3     4    1
     4     4     5    1
     5     5     6    1
     6     6     7    1
     7     6     8    1
     8     8     9    1
     9     8    10    1
    10    10    11    1
    11    10    12    1
    12    12    13    1
    13    12    14    1
    14    14    15    1
    15    15    16    1
    16    16    17    1
    17    16    18    1
    18    18    19    1
    19    19    20    2
    20     2    20    1
    21    20    21    1
    22    21    22    1
    23    21    23    1
    24    23    24    1
    25    24    25    1
    26    24    26    2
    27    23    27    1
    28    27    28    1
    29     2    28    1
    30    23    29    1
    31    29    30    1
    32    30    31    1
    33    31    33    1
    34    33    34    1
    35    21    33    1
    36    33    35    1
    37     6    15    1
    38    15    37    1
    39    12    38    1
    40    10    39    1
    41     8    40    1
    42    16     3    1
    43     3    41    1
    44    31    36    1
    45    31    32    1
    46     1    42    1
    47     1    43    1
    48     1    44    1
    49     4    45    1
    50     4    46    1
    51     5    47    1
    52     5    48    1
    53     9    49    1
    54     9    50    1
    55     9    51    1
    56    14    52    1
    57    14    53    1
    58    18    54    1
    59    18    55    1
    60    19    56    1
    61    25    57    1
    62    27    58    1
    63    27    59    1
    64    28    60    1
    65    28    61    1
    66    29    62    1
    67    29    63    1
    68    30    64    1
    69    30    65    1
    70    35    66    1
    71    35    67    1
    72    35    68    1
    73    36    69    1
    74    36    70    1
    75    36    71    1
    76    37    72    1
    77    37    73    1
    78    37    74    1
    79    38    75    1
    80    39    76    1
    81    40    77    1
    82    40    78    1
    83    40    79    1
    84    41    80    1
    85    41    81    1
    86    41    82    1
