@<TRIPOS>MOLECULE
NuBBE_1236
 33 35 0 0 0
SMALL
GASTEIGER

@<TRIPOS>ATOM
      1 H          -2.4278    1.3141    0.2674 H       1  LIG1        0.1659
      2 N          -1.4471    1.3070    0.0147 N.ar    1  LIG1       -0.3538
      3 C          -0.7772    0.0734    0.0914 C.ar    1  LIG1        0.0578
      4 C           0.6258    0.0181    0.0698 C.ar    1  LIG1        0.0908
      5 C           1.3041   -1.2170    0.0991 C.ar    1  LIG1        0.1752
      6 O           2.6776   -1.2450    0.0901 O.3     1  LIG1       -0.5027
      7 C           0.5732   -2.4153    0.1351 C.ar    1  LIG1        0.2041
      8 O           1.0730   -3.6941    0.1706 O.3     1  LIG1       -0.4885
      9 C           2.4767   -3.8947    0.1771 C.3     1  LIG1        0.0791
     10 C          -0.8395   -2.3533    0.1180 C.ar    1  LIG1        0.1672
     11 O          -1.5099   -3.5542    0.1734 O.3     1  LIG1       -0.4913
     12 C          -2.7750   -3.5987   -0.4743 C.3     1  LIG1        0.0790
     13 C          -1.5022   -1.1196    0.0991 C.ar    1  LIG1        0.0080
     14 C          -0.7807    2.5407    0.0543 C.ar    1  LIG1        0.0506
     15 C          -1.4924    3.7432    0.0180 C.ar    1  LIG1       -0.0377
     16 C          -0.8141    4.9660    0.0043 C.ar    1  LIG1       -0.0598
     17 C           0.5807    4.9975    0.0099 C.ar    1  LIG1       -0.0610
     18 C           1.3030    3.8053    0.0210 C.ar    1  LIG1       -0.0489
     19 C           0.6203    2.5846    0.0337 C.ar    1  LIG1        0.0457
     20 C           1.3696    1.3064    0.0352 C.ar    1  LIG1        0.2007
     21 O           2.5987    1.3001    0.0153 O.2     1  LIG1       -0.2864
     22 H           3.0118   -0.3197    0.0574 H       1  LIG1        0.2923
     23 H           2.9391   -3.4602    1.0687 H       1  LIG1        0.0660
     24 H           2.9343   -3.5312   -0.7483 H       1  LIG1        0.0660
     25 H           2.6538   -4.9742    0.2193 H       1  LIG1        0.0660
     26 H          -3.0517   -4.6506   -0.5945 H       1  LIG1        0.0660
     27 H          -2.7357   -3.1470   -1.4716 H       1  LIG1        0.0660
     28 H          -3.5434   -3.1226    0.1426 H       1  LIG1        0.0660
     29 H          -2.5858   -1.0762    0.1100 H       1  LIG1        0.0676
     30 H          -2.5789    3.7421   -0.0025 H       1  LIG1        0.0638
     31 H          -1.3757    5.8973   -0.0173 H       1  LIG1        0.0618
     32 H           1.1053    5.9500   -0.0023 H       1  LIG1        0.0618
     33 H           2.3903    3.8278    0.0156 H       1  LIG1        0.0625
@<TRIPOS>BOND
     1     1     2    1
     2     2     3   ar
     3     3     4   ar
     4     4     5   ar
     5     5     6    1
     6     5     7   ar
     7     7     8    1
     8     8     9    1
     9     7    10   ar
    10    10    11    1
    11    11    12    1
    12    10    13   ar
    13     3    13   ar
    14     2    14   ar
    15    14    15   ar
    16    15    16   ar
    17    16    17   ar
    18    17    18   ar
    19    18    19   ar
    20    14    19   ar
    21    19    20   ar
    22     4    20   ar
    23    20    21    2
    24     6    22    1
    25     9    23    1
    26     9    24    1
    27     9    25    1
    28    12    26    1
    29    12    27    1
    30    12    28    1
    31    13    29    1
    32    15    30    1
    33    16    31    1
    34    17    32    1
    35    18    33    1
