REMARK  Name = NuBBE_836
REMARK  10 active torsions:
REMARK  status: ('A' for Active; 'I' for Inactive)
REMARK    1  A    between atoms: C_5  and  C_35
REMARK    2  A    between atoms: C_14  and  C_16
REMARK    3  A    between atoms: C_16  and  C_18
REMARK    4  A    between atoms: C_16  and  C_26
REMARK    5  A    between atoms: C_19  and  C_20
REMARK    6  A    between atoms: C_20  and  C_22
REMARK    7  A    between atoms: C_20  and  C_25
REMARK    8  A    between atoms: C_22  and  C_23
REMARK    9  A    between atoms: C_22  and  C_24
REMARK   10  A    between atoms: C_27  and  C_28
REMARK                            x       y       z     vdW  Elec       q    Type
REMARK                         _______ _______ _______ _____ _____    ______ ____
ROOT
ATOM      1  O   LIG A   1       6.397   4.986   0.865  0.00  0.00    -0.293 OA
ATOM      2  C   LIG A   1       5.306   4.429   0.899  0.00  0.00    +0.157 C 
ATOM      3  C   LIG A   1       4.226   4.719  -0.114  0.00  0.00    +0.080 C 
ATOM      4  C   LIG A   1       3.320   3.508  -0.301  0.00  0.00    +0.019 C 
ATOM      5  C   LIG A   1       2.699   2.982   1.030  0.00  0.00    +0.002 C 
ATOM      6  C   LIG A   1       3.797   2.892   2.075  0.00  0.00    +0.005 C 
ATOM      7  C   LIG A   1       3.523   2.092   3.306  0.00  0.00    +0.163 C 
ATOM      8  C   LIG A   1       2.244   1.300   3.345  0.00  0.00    +0.117 C 
ATOM      9  C   LIG A   1       1.838   0.738   2.009  0.00  0.00    +0.110 C 
ATOM     10  O   LIG A   1       2.199  -0.658   1.925  0.00  0.00    -0.360 OA
ATOM     11  C   LIG A   1       0.806  -0.394   1.894  0.00  0.00    +0.105 C 
ATOM     12  C   LIG A   1      -0.063  -0.709   3.059  0.00  0.00    +0.039 C 
ATOM     13  C   LIG A   1      -1.413  -0.247   2.520  0.00  0.00    +0.007 C 
ATOM     14  C   LIG A   1      -1.447  -0.735   1.045  0.00  0.00    +0.005 C 
ATOM     15  C   LIG A   1       0.085  -0.781   0.601  0.00  0.00    +0.003 C 
ATOM     16  C   LIG A   1       0.588  -2.156   0.125  0.00  0.00    +0.014 C 
ATOM     17  C   LIG A   1       0.367   0.228  -0.542  0.00  0.00    +0.010 C 
ATOM     18  C   LIG A   1       0.772   1.621  -0.064  0.00  0.00    +0.008 C 
ATOM     19  C   LIG A   1       2.084   1.558   0.755  0.00  0.00    +0.035 C 
ATOM     20  O   LIG A   1       4.266   2.156   4.285  0.00  0.00    -0.292 OA
ATOM     21  C   LIG A   1       4.988   3.510   2.014  0.00  0.00    +0.053 C 
ATOM     22  C   LIG A   1       1.638   3.998   1.516  0.00  0.00    +0.016 C 
ENDROOT
BRANCH  14  23
ATOM     23  C   LIG A   1      -2.412  -1.954   0.894  0.00  0.00    +0.012 C 
ATOM     24  C   LIG A   1      -2.223  -3.112   1.886  0.00  0.00    +0.012 C 
BRANCH  23  25
ATOM     25  C   LIG A   1      -2.526  -2.515  -0.505  0.00  0.00    -0.027 C 
ATOM     26  C   LIG A   1      -3.426  -2.109  -1.417  0.00  0.00    -0.027 C 
BRANCH  26  27
ATOM     27  C   LIG A   1      -3.665  -2.748  -2.776  0.00  0.00    +0.011 C 
ATOM     28  C   LIG A   1      -3.549  -4.280  -2.714  0.00  0.00    +0.012 C 
BRANCH  27  29
ATOM     29  C   LIG A   1      -2.768  -2.127  -3.884  0.00  0.00    -0.011 C 
ATOM     30  C   LIG A   1      -3.009  -2.776  -5.254  0.00  0.00    +0.008 C 
ATOM     31  C   LIG A   1      -2.982  -0.613  -4.012  0.00  0.00    +0.008 C 
ENDBRANCH  27  29
ENDBRANCH  26  27
ENDBRANCH  23  25
ENDBRANCH  14  23
TORSDOF 4
