@<TRIPOS>MOLECULE
NuBBE_1307
 51 53 0 0 0
SMALL
GASTEIGER

@<TRIPOS>ATOM
      1 O          -3.7996    0.6328    0.4662 O.2     1  LIG1       -0.2869
      2 C          -2.5866    0.6260    0.3679 C.ar    1  LIG1        0.1967
      3 C          -1.8897   -0.6796    0.3763 C.ar    1  LIG1        0.0288
      4 C          -0.5559   -0.7444    0.2835 C.ar    1  LIG1        0.1395
      5 C           0.2148   -2.0199    0.2854 C.ar    1  LIG1        0.0245
      6 C           1.6152   -2.0110    0.1665 C.ar    1  LIG1       -0.0054
      7 C           2.3586   -3.1982    0.2001 C.ar    1  LIG1        0.1658
      8 O           3.7321   -3.2276    0.1247 O.3     1  LIG1       -0.4913
      9 C           4.3495   -2.2156   -0.6616 C.3     1  LIG1        0.0790
     10 C           1.7071   -4.4358    0.3740 C.ar    1  LIG1        0.2035
     11 O           2.5440   -5.5212    0.4765 O.3     1  LIG1       -0.4885
     12 C           2.0550   -6.7653   -0.0012 C.3     1  LIG1        0.0791
     13 C           0.3066   -4.4677    0.4708 C.ar    1  LIG1        0.1658
     14 O          -0.3252   -5.6643    0.6992 O.3     1  LIG1       -0.4913
     15 C          -1.6367   -5.7972    0.1559 C.3     1  LIG1        0.0790
     16 C          -0.4143   -3.2650    0.4301 C.ar    1  LIG1       -0.0054
     17 O           0.2362    0.3837    0.1817 O.2     1  LIG1       -0.4543
     18 C          -1.7299    1.8315    0.2180 C.ar    1  LIG1        0.1093
     19 C          -0.3578    1.6181    0.1352 C.ar    1  LIG1        0.1465
     20 C           0.5262    2.6854   -0.0028 C.ar    1  LIG1        0.0270
     21 C           0.0582    3.9981   -0.0376 C.ar    1  LIG1        0.1687
     22 O           0.8976    5.0741   -0.0999 O.3     1  LIG1       -0.4912
     23 C           2.3064    4.9046   -0.1377 C.3     1  LIG1        0.0790
     24 C          -1.3364    4.2376    0.0233 C.ar    1  LIG1        0.2045
     25 O          -1.9273    5.4759    0.0029 O.3     1  LIG1       -0.4885
     26 C          -1.1551    6.6591   -0.1083 C.3     1  LIG1        0.0791
     27 C          -2.2371    3.1408    0.1470 C.ar    1  LIG1        0.1795
     28 O          -3.5983    3.2631    0.2888 O.3     1  LIG1       -0.4905
     29 C          -4.2647    4.3135   -0.3985 C.3     1  LIG1        0.0790
     30 H          -2.5536   -1.5285    0.4581 H       1  LIG1        0.0693
     31 H           2.1341   -1.0613    0.0855 H       1  LIG1        0.0662
     32 H           4.2763   -1.2351   -0.1822 H       1  LIG1        0.0660
     33 H           3.9377   -2.1905   -1.6764 H       1  LIG1        0.0660
     34 H           5.4144   -2.4578   -0.7388 H       1  LIG1        0.0660
     35 H           2.9204   -7.4073   -0.1917 H       1  LIG1        0.0660
     36 H           1.5095   -6.6591   -0.9452 H       1  LIG1        0.0660
     37 H           1.4498   -7.2640    0.7614 H       1  LIG1        0.0660
     38 H          -1.9161   -6.8531    0.2134 H       1  LIG1        0.0660
     39 H          -1.6648   -5.4973   -0.8977 H       1  LIG1        0.0660
     40 H          -2.3696   -5.2357    0.7440 H       1  LIG1        0.0660
     41 H          -1.4879   -3.3043    0.5600 H       1  LIG1        0.0662
     42 H           1.5816    2.4462   -0.0675 H       1  LIG1        0.0692
     43 H           2.6352    4.7841   -1.1739 H       1  LIG1        0.0660
     44 H           2.6731    4.0888    0.4900 H       1  LIG1        0.0660
     45 H           2.7522    5.8231    0.2564 H       1  LIG1        0.0660
     46 H          -1.8501    7.5032   -0.1488 H       1  LIG1        0.0660
     47 H          -0.5786    6.6798   -1.0387 H       1  LIG1        0.0660
     48 H          -0.5288    6.8009    0.7775 H       1  LIG1        0.0660
     49 H          -5.3211    4.0405   -0.4849 H       1  LIG1        0.0660
     50 H          -3.8754    4.4574   -1.4121 H       1  LIG1        0.0660
     51 H          -4.2310    5.2382    0.1850 H       1  LIG1        0.0660
@<TRIPOS>BOND
     1     1     2    2
     2     2     3   ar
     3     3     4   ar
     4     4     5    1
     5     5     6   ar
     6     6     7   ar
     7     7     8    1
     8     8     9    1
     9     7    10   ar
    10    10    11    1
    11    11    12    1
    12    10    13   ar
    13    13    14    1
    14    14    15    1
    15    13    16   ar
    16     5    16   ar
    17     4    17   ar
    18     2    18   ar
    19    18    19   ar
    20    17    19   ar
    21    19    20   ar
    22    20    21   ar
    23    21    22    1
    24    22    23    1
    25    21    24   ar
    26    24    25    1
    27    25    26    1
    28    24    27   ar
    29    18    27   ar
    30    27    28    1
    31    28    29    1
    32     3    30    1
    33     6    31    1
    34     9    32    1
    35     9    33    1
    36     9    34    1
    37    12    35    1
    38    12    36    1
    39    12    37    1
    40    15    38    1
    41    15    39    1
    42    15    40    1
    43    16    41    1
    44    20    42    1
    45    23    43    1
    46    23    44    1
    47    23    45    1
    48    26    46    1
    49    26    47    1
    50    26    48    1
    51    29    49    1
    52    29    50    1
    53    29    51    1
