REMARK  Name = NuBBE_1086
REMARK  5 active torsions:
REMARK  status: ('A' for Active; 'I' for Inactive)
REMARK    1  A    between atoms: C_6  and  C_7
REMARK    2  A    between atoms: C_9  and  C_11
REMARK    3  A    between atoms: C_11  and  C_12
REMARK    4  A    between atoms: C_13  and  C_14
REMARK    5  A    between atoms: C_13  and  C_15
REMARK                            x       y       z     vdW  Elec       q    Type
REMARK                         _______ _______ _______ _____ _____    ______ ____
ROOT
ATOM      1  C   LIG A   1      -0.623  -0.916  -0.396  0.00  0.00    +0.156 C 
ATOM      2  C   LIG A   1       0.397  -1.322   0.686  0.00  0.00    +0.054 C 
ATOM      3  C   LIG A   1       0.424  -2.821   0.521  0.00  0.00    -0.045 C 
ATOM      4  C   LIG A   1      -0.748  -3.228  -0.309  0.00  0.00    +0.191 C 
ATOM      5  O   LIG A   1      -1.508  -2.042  -0.548  0.00  0.00    -0.367 OA
ATOM      6  C   LIG A   1       1.321  -3.689   1.022  0.00  0.00    +0.010 C 
ENDROOT
BRANCH   1  12
ATOM      7  H   LIG A   1      -4.132   4.318   0.664  0.00  0.00    +0.165 HD
ATOM      8  N   LIG A   1      -3.966   3.405   1.063  0.00  0.00    -0.361 N 
ATOM      9  C   LIG A   1      -3.079   2.482   0.554  0.00  0.00    +0.046 A 
ATOM     10  C   LIG A   1      -2.238   2.551  -0.561  0.00  0.00    +0.026 A 
ATOM     11  C   LIG A   1      -1.435   1.438  -0.841  0.00  0.00    +0.008 A 
ATOM     12  C   LIG A   1      -1.472   0.286  -0.043  0.00  0.00    -0.018 A 
ATOM     13  C   LIG A   1      -2.339   0.247   1.067  0.00  0.00    +0.016 A 
ATOM     14  C   LIG A   1      -3.147   1.357   1.374  0.00  0.00    -0.000 A 
ATOM     15  C   LIG A   1      -4.099   1.634   2.393  0.00  0.00    +0.027 A 
ATOM     16  C   LIG A   1      -4.582   2.905   2.179  0.00  0.00    +0.083 A 
ENDBRANCH   1  12
BRANCH   2  17
ATOM     17  C   LIG A   1       1.734  -0.554   0.587  0.00  0.00    +0.038 C 
BRANCH  17  18
ATOM     18  C   LIG A   1       2.482  -0.758  -0.708  0.00  0.00    -0.027 C 
ATOM     19  C   LIG A   1       3.290   0.109  -1.348  0.00  0.00    -0.080 C 
ATOM     20  C   LIG A   1       3.647   1.491  -0.874  0.00  0.00    +0.038 C 
ATOM     21  C   LIG A   1       3.943  -0.293  -2.647  0.00  0.00    +0.038 C 
ENDBRANCH  17  18
ENDBRANCH   2  17
TORSDOF 3
