REMARK  Name = NuBBE_155
REMARK  15 active torsions:
REMARK  status: ('A' for Active; 'I' for Inactive)
REMARK    1  A    between atoms: C_2  and  O_3
REMARK    2  A    between atoms: C_2  and  C_5
REMARK    3  A    between atoms: O_3  and  C_4
REMARK    4  A    between atoms: C_7  and  C_8
REMARK    5  A    between atoms: C_8  and  C_9
REMARK    6  A    between atoms: C_9  and  C_10
REMARK    7  A    between atoms: C_10  and  C_11
REMARK    8  A    between atoms: C_10  and  C_12
REMARK    9  A    between atoms: C_15  and  C_16
REMARK   10  A    between atoms: C_15  and  C_22
REMARK   11  A    between atoms: C_16  and  C_17
REMARK   12  A    between atoms: C_17  and  C_18
REMARK   13  A    between atoms: C_18  and  C_19
REMARK   14  A    between atoms: C_19  and  C_20
REMARK   15  A    between atoms: C_19  and  C_21
REMARK                            x       y       z     vdW  Elec       q    Type
REMARK                         _______ _______ _______ _____ _____    ______ ____
ROOT
ATOM      1  C   LIG A   1      -3.093  -1.028  -1.878  0.00  0.00    +0.060 A 
ATOM      2  C   LIG A   1      -2.456  -2.075  -1.196  0.00  0.00    +0.022 A 
ATOM      3  C   LIG A   1      -1.699  -1.834  -0.043  0.00  0.00    -0.005 A 
ATOM      4  C   LIG A   1      -1.580  -0.515   0.423  0.00  0.00    +0.128 A 
ATOM      5  O   LIG A   1      -0.783  -0.321   1.521  0.00  0.00    -0.485 OA
ATOM      6  C   LIG A   1      -0.351   1.033   1.787  0.00  0.00    +0.108 C 
ATOM      7  C   LIG A   1       0.147   0.997   3.241  0.00  0.00    +0.056 C 
ATOM      8  C   LIG A   1      -1.553   1.986   1.694  0.00  0.00    +0.052 C 
ATOM      9  C   LIG A   1      -2.175   1.945   0.305  0.00  0.00    +0.043 C 
ATOM     10  C   LIG A   1      -2.258   0.537  -0.215  0.00  0.00    -0.004 A 
ATOM     11  C   LIG A   1      -2.997   0.276  -1.380  0.00  0.00    +0.022 A 
ENDROOT
BRANCH   1  13
ATOM     12  O   LIG A   1      -4.427  -0.416  -3.782  0.00  0.00    -0.245 OA
ATOM     13  C   LIG A   1      -3.873  -1.285  -3.117  0.00  0.00    +0.339 C 
BRANCH  13  14
ATOM     14  O   LIG A   1      -3.870  -2.612  -3.376  0.00  0.00    -0.465 OA
ATOM     15  C   LIG A   1      -4.621  -3.019  -4.516  0.00  0.00    +0.280 C 
ENDBRANCH  13  14
ENDBRANCH   1  13
BRANCH   3  16
ATOM     16  C   LIG A   1      -1.027  -3.005   0.641  0.00  0.00    +0.039 C 
BRANCH  16  17
ATOM     17  C   LIG A   1       0.375  -3.297   0.086  0.00  0.00    +0.008 C 
BRANCH  17  18
ATOM     18  C   LIG A   1       1.062  -4.505   0.759  0.00  0.00    -0.017 C 
ATOM     19  C   LIG A   1       2.441  -4.754   0.140  0.00  0.00    +0.007 C 
ATOM     20  C   LIG A   1       1.215  -4.323   2.270  0.00  0.00    +0.007 C 
ENDBRANCH  17  18
ENDBRANCH  16  17
ENDBRANCH   3  16
BRANCH   6  21
ATOM     21  C   LIG A   1       0.817   1.375   0.817  0.00  0.00    +0.048 C 
BRANCH  21  22
ATOM     22  C   LIG A   1       1.456   2.764   0.977  0.00  0.00    +0.004 C 
BRANCH  22  23
ATOM     23  C   LIG A   1       2.566   2.987  -0.064  0.00  0.00    +0.003 C 
BRANCH  23  24
ATOM     24  C   LIG A   1       3.232   4.379   0.002  0.00  0.00    -0.017 C 
ATOM     25  C   LIG A   1       4.324   4.496  -1.067  0.00  0.00    +0.007 C 
ATOM     26  C   LIG A   1       2.241   5.532  -0.176  0.00  0.00    +0.007 C 
ENDBRANCH  23  24
ENDBRANCH  22  23
ENDBRANCH  21  22
ENDBRANCH   6  21
TORSDOF 9
