@<TRIPOS>MOLECULE
NuBBE_1412
 50 54 0 0 0
SMALL
GASTEIGER

@<TRIPOS>ATOM
      1 O          -1.7150    0.3882   -1.5939 O.2     1  LIG1       -0.2870
      2 C          -0.5031    0.5638   -1.5251 C.2     1  LIG1        0.2212
      3 C           0.3123    0.6070   -2.7468 C.ar    1  LIG1        0.0674
      4 C          -0.2087    0.0974   -3.9366 C.ar    1  LIG1       -0.0021
      5 C           0.5997    0.0183   -5.0709 C.ar    1  LIG1        0.1624
      6 O           0.1877   -0.5159   -6.2664 O.3     1  LIG1       -0.4914
      7 C          -1.1546   -0.9851   -6.3349 C.3     1  LIG1        0.0790
      8 C           1.9333    0.4711   -5.0009 C.ar    1  LIG1        0.1650
      9 O           2.6821    0.3726   -6.1482 O.3     1  LIG1       -0.4913
     10 C           4.0828    0.2005   -5.9599 C.3     1  LIG1        0.0790
     11 C           2.4251    1.0244   -3.8099 C.ar    1  LIG1        0.0261
     12 C           1.6157    1.0874   -2.6771 C.ar    1  LIG1        0.1350
     13 O           2.1944    1.5904   -1.5438 O.3     1  LIG1       -0.4862
     14 C           1.3116    1.7844   -0.4309 C.3     1  LIG1        0.1440
     15 C           0.2739    0.6845   -0.2398 C.3     1  LIG1        0.2670
     16 O          -0.6227    1.0510    0.8423 O.3     1  LIG1       -0.4653
     17 C           0.9045   -0.6588    0.1490 C.2     1  LIG1        0.2211
     18 C           0.2292   -1.0860    1.3295 C.ar    1  LIG1        0.0642
     19 C          -0.6380   -0.0546    1.6573 C.ar    1  LIG1        0.1401
     20 C          -1.4366   -0.2475    2.7655 C.ar    1  LIG1        0.0404
     21 C          -2.4819    0.5396    3.4283 C.3     1  LIG1        0.0204
     22 C          -2.5199   -0.1864    4.7954 C.3     1  LIG1        0.1249
     23 C          -1.7387    0.4290    5.9570 C.2     1  LIG1       -0.0395
     24 C          -1.8315   -0.3394    7.2508 C.3     1  LIG1       -0.0406
     25 C          -1.0048    1.5551    5.8993 C.2     1  LIG1       -0.0962
     26 O          -1.9957   -1.5403    4.5800 O.3     1  LIG1       -0.4838
     27 C          -1.2055   -1.4497    3.4388 C.ar    1  LIG1        0.1282
     28 C          -0.3505   -2.4866    3.1064 C.ar    1  LIG1       -0.0187
     29 C           0.4149   -2.2964    1.9800 C.ar    1  LIG1       -0.0441
     30 O           1.7871   -1.2254   -0.4933 O.2     1  LIG1       -0.2870
     31 H          -1.2330   -0.2612   -3.9362 H       1  LIG1        0.0663
     32 H          -1.8588   -0.1497   -6.2574 H       1  LIG1        0.0660
     33 H          -1.3562   -1.7431   -5.5697 H       1  LIG1        0.0660
     34 H          -1.2998   -1.4615   -7.3083 H       1  LIG1        0.0660
     35 H           4.5153   -0.0985   -6.9196 H       1  LIG1        0.0660
     36 H           4.2973   -0.5928   -5.2350 H       1  LIG1        0.0660
     37 H           4.5566    1.1415   -5.6636 H       1  LIG1        0.0660
     38 H           3.4366    1.4110   -3.7422 H       1  LIG1        0.0692
     39 H           0.8261    2.7627   -0.5472 H       1  LIG1        0.0747
     40 H           1.9395    1.8691    0.4644 H       1  LIG1        0.0747
     41 H          -3.4224    0.3796    2.8878 H       1  LIG1        0.0355
     42 H          -2.2776    1.6097    3.4622 H       1  LIG1        0.0355
     43 H          -3.5667   -0.2845    5.1103 H       1  LIG1        0.0784
     44 H          -2.8773   -0.4471    7.5552 H       1  LIG1        0.0275
     45 H          -1.2990    0.1614    8.0665 H       1  LIG1        0.0275
     46 H          -1.3943   -1.3368    7.1385 H       1  LIG1        0.0275
     47 H          -0.8850    2.1406    4.9952 H       1  LIG1        0.0535
     48 H          -0.4729    1.9255    6.7714 H       1  LIG1        0.0535
     49 H          -0.2959   -3.3830    3.7111 H       1  LIG1        0.0654
     50 H           1.1203   -3.0353    1.6156 H       1  LIG1        0.0627
@<TRIPOS>BOND
     1     1     2    2
     2     2     3    1
     3     3     4   ar
     4     4     5   ar
     5     5     6    1
     6     6     7    1
     7     5     8   ar
     8     8     9    1
     9     9    10    1
    10     8    11   ar
    11    11    12   ar
    12     3    12   ar
    13    12    13    1
    14    13    14    1
    15     2    15    1
    16    15    16    1
    17    14    15    1
    18    15    17    1
    19    17    18    1
    20    18    19   ar
    21    16    19    1
    22    19    20   ar
    23    20    21    1
    24    21    22    1
    25    22    23    1
    26    23    24    1
    27    23    25    2
    28    22    26    1
    29    20    27   ar
    30    26    27    1
    31    27    28   ar
    32    28    29   ar
    33    18    29   ar
    34    17    30    2
    35     4    31    1
    36     7    32    1
    37     7    33    1
    38     7    34    1
    39    10    35    1
    40    10    36    1
    41    10    37    1
    42    11    38    1
    43    14    39    1
    44    14    40    1
    45    21    41    1
    46    21    42    1
    47    22    43    1
    48    24    44    1
    49    24    45    1
    50    24    46    1
    51    25    47    1
    52    25    48    1
    53    28    49    1
    54    29    50    1
