@<TRIPOS>MOLECULE
NuBBE_594
 24 25 0 0 0
SMALL
GASTEIGER

@<TRIPOS>ATOM
      1 C          -1.9996   -0.7358   -2.0067 C.3     1  LIG1       -0.0274
      2 C          -2.3138   -0.6347   -0.5159 C.3     1  LIG1        0.1046
      3 H          -3.4036   -0.6891   -0.4054 H       1  LIG1        0.0734
      4 O          -1.7789   -1.7797    0.1664 O.3     1  LIG1       -0.4577
      5 C          -1.8389    0.6504    0.1455 C.3     1  LIG1        0.0102
      6 C          -0.3513    0.6238    0.3481 C.ar    1  LIG1       -0.0261
      7 C           0.3472    1.8352    0.5003 C.ar    1  LIG1       -0.0540
      8 C           1.7249    1.8368    0.7086 C.ar    1  LIG1       -0.0162
      9 C           2.3968    0.6240    0.7648 C.ar    1  LIG1        0.1591
     10 O           3.7514    0.5668    0.9616 O.3     1  LIG1       -0.5033
     11 C           1.7136   -0.5898    0.6306 C.ar    1  LIG1        0.1727
     12 O           2.4601   -1.7340    0.6984 O.3     1  LIG1       -0.5028
     13 C           0.3285   -0.6082    0.4363 C.ar    1  LIG1        0.1072
     14 C          -0.4339   -1.8979    0.3615 C.2     1  LIG1        0.3434
     15 O           0.0645   -3.0002    0.5144 O.2     1  LIG1       -0.2448
     16 H          -0.9228   -0.7245   -2.2029 H       1  LIG1        0.0265
     17 H          -2.4633    0.0815   -2.5659 H       1  LIG1        0.0265
     18 H          -2.3745   -1.6869   -2.4016 H       1  LIG1        0.0265
     19 H          -2.3034    0.7504    1.1342 H       1  LIG1        0.0349
     20 H          -2.1363    1.5158   -0.4585 H       1  LIG1        0.0349
     21 H          -0.1849    2.7842    0.4598 H       1  LIG1        0.0622
     22 H           2.2479    2.7811    0.8242 H       1  LIG1        0.0655
     23 H           4.0898    1.4744    1.0519 H       1  LIG1        0.2923
     24 H           3.3804   -1.4439    0.8502 H       1  LIG1        0.2923
@<TRIPOS>BOND
     1     2     4    1
     2     2     5    1
     3     5     6    1
     4     6     7   ar
     5     7     8   ar
     6     8     9   ar
     7     9    10    1
     8     9    11   ar
     9    11    12    1
    10    11    13   ar
    11     6    13   ar
    12    13    14    1
    13     4    14    1
    14    14    15    2
    15     2     3    1
    16     2     1    1
    17     1    16    1
    18     1    17    1
    19     1    18    1
    20     5    19    1
    21     5    20    1
    22     7    21    1
    23     8    22    1
    24    10    23    1
    25    12    24    1
