@<TRIPOS>MOLECULE
NuBBE_105
 27 29 0 0 0
SMALL
GASTEIGER

@<TRIPOS>ATOM
      1 O          -3.7078   -2.9176    1.0459 O.3     1  LIG1       -0.4761
      2 C          -2.4458   -3.1271    0.5942 C.2     1  LIG1        0.3553
      3 CA         -1.7316   -1.8246    0.4441 C.ar    1  LIG1        0.1484
      4 C          -0.4221   -1.8067   -0.0042 C.ar    1  LIG1       -0.0195
      5 C           0.1710   -0.5418   -0.1069 C.ar    1  LIG1        0.0114
      6 C          -0.5810    0.5831    0.2362 C.ar    1  LIG1        0.0688
      7 C          -1.9105    0.5085    0.6730 C.ar    1  LIG1        0.0630
      8 C          -2.7465    1.6835    1.0740 C.3     1  LIG1       -0.0203
      9 N          -2.4719   -0.7264    0.7809 N.ar    1  LIG1       -0.2432
     10 N           0.2383    1.6760    0.0525 N.ar    1  LIG1       -0.3527
     11 C           1.4786    1.2979   -0.4028 C.ar    1  LIG1        0.0475
     12 C           2.5982    2.0751   -0.7222 C.ar    1  LIG1       -0.0378
     13 C           3.7428    1.4075   -1.1677 C.ar    1  LIG1       -0.0598
     14 C           3.7639    0.0201   -1.2870 C.ar    1  LIG1       -0.0611
     15 C           2.6349   -0.7407   -0.9626 C.ar    1  LIG1       -0.0520
     16 C           1.4674   -0.0907   -0.5120 C.ar    1  LIG1        0.0075
     17 OXT        -1.9733   -4.2221    0.3500 O.2     1  LIG1       -0.2434
     18 H          -3.8338   -1.9450    1.1616 H       1  LIG1        0.2955
     19 H           0.1077   -2.7186   -0.2545 H       1  LIG1        0.0648
     20 H          -2.4030    2.6029    0.5912 H       1  LIG1        0.0293
     21 H          -2.6998    1.8159    2.1589 H       1  LIG1        0.0293
     22 H          -3.7898    1.5213    0.7852 H       1  LIG1        0.0293
     23 H          -0.0318    2.6336    0.2235 H       1  LIG1        0.1660
     24 H           2.5875    3.1564   -0.6310 H       1  LIG1        0.0638
     25 H           4.6307    1.9811   -1.4251 H       1  LIG1        0.0618
     26 H           4.6651   -0.4791   -1.6355 H       1  LIG1        0.0618
     27 H           2.6625   -1.8223   -1.0597 H       1  LIG1        0.0624
@<TRIPOS>BOND
     1     1     2    1
     2     2     3    1
     3     3     4   ar
     4     4     5   ar
     5     5     6   ar
     6     6     7   ar
     7     7     8    1
     8     7     9   ar
     9     3     9   ar
    10     6    10   ar
    11    10    11   ar
    12    11    12   ar
    13    12    13   ar
    14    13    14   ar
    15    14    15   ar
    16    15    16   ar
    17    11    16   ar
    18     5    16   ar
    19     2    17    2
    20     1    18    1
    21     4    19    1
    22     8    20    1
    23     8    21    1
    24     8    22    1
    25    10    23    1
    26    12    24    1
    27    13    25    1
    28    14    26    1
    29    15    27    1
