@<TRIPOS>MOLECULE
NuBBE_624
 21 21 0 0 0
SMALL
GASTEIGER

@<TRIPOS>ATOM
      1 O          -2.1142   -1.7985   -0.6150 O.2     1  LIG1       -0.2450
      2 C          -0.9410   -1.6273   -0.3378 C.2     1  LIG1        0.3392
      3 O           0.0134   -2.5840   -0.2330 O.3     1  LIG1       -0.4644
      4 C          -0.4057   -3.9209   -0.4976 C.3     1  LIG1        0.0820
      5 C          -0.3363   -0.2929   -0.0706 C.ar    1  LIG1        0.0661
      6 C          -1.1490    0.8511   -0.1833 C.ar    1  LIG1       -0.0023
      7 C          -0.5920    2.1067    0.0449 C.ar    1  LIG1        0.1628
      8 O          -1.3236    3.2575   -0.0543 O.3     1  LIG1       -0.5032
      9 C           0.7521    2.2266    0.3836 C.ar    1  LIG1        0.2006
     10 O           1.3109    3.4557    0.6043 O.3     1  LIG1       -0.5009
     11 C           1.5487    1.0974    0.5011 C.ar    1  LIG1        0.1628
     12 O           2.8661    1.2131    0.8344 O.3     1  LIG1       -0.5032
     13 C           1.0177   -0.1628    0.2783 C.ar    1  LIG1       -0.0023
     14 H           0.4859   -4.4977   -0.7609 H       1  LIG1        0.0661
     15 H          -1.1070   -3.9727   -1.3351 H       1  LIG1        0.0661
     16 H          -0.8442   -4.3506    0.4068 H       1  LIG1        0.0661
     17 H          -2.1973    0.7441   -0.4503 H       1  LIG1        0.0663
     18 H          -2.2384    3.0237   -0.2924 H       1  LIG1        0.2923
     19 H           0.5743    4.0852    0.4628 H       1  LIG1        0.2924
     20 H           3.0135    2.1747    0.9379 H       1  LIG1        0.2923
     21 H           1.6664   -1.0286    0.3759 H       1  LIG1        0.0663
@<TRIPOS>BOND
     1     1     2    2
     2     2     3    1
     3     3     4    1
     4     2     5    1
     5     5     6   ar
     6     6     7   ar
     7     7     8    1
     8     7     9   ar
     9     9    10    1
    10     9    11   ar
    11    11    12    1
    12    11    13   ar
    13     5    13   ar
    14     4    14    1
    15     4    15    1
    16     4    16    1
    17     6    17    1
    18     8    18    1
    19    10    19    1
    20    12    20    1
    21    13    21    1
