REMARK  Name = NuBBE_1561
REMARK  15 active torsions:
REMARK  status: ('A' for Active; 'I' for Inactive)
REMARK    1  A    between atoms: C_1  and  C_2
REMARK    2  A    between atoms: C_6  and  C_8
REMARK    3  A    between atoms: C_8  and  C_10
REMARK    4  A    between atoms: C_8  and  C_11
REMARK    5  A    between atoms: C_11  and  C_12
REMARK    6  A    between atoms: C_12  and  C_13
REMARK    7  A    between atoms: C_13  and  C_15
REMARK    8  A    between atoms: C_13  and  C_17
REMARK    9  A    between atoms: C_15  and  C_16
REMARK   10  A    between atoms: C_17  and  C_18
REMARK   11  A    between atoms: C_17  and  C_19
REMARK   12  A    between atoms: C_24  and  C_42
REMARK   13  A    between atoms: C_27  and  O_29
REMARK   14  A    between atoms: O_29  and  C_30
REMARK   15  A    between atoms: C_30  and  C_31
REMARK                            x       y       z     vdW  Elec       q    Type
REMARK                         _______ _______ _______ _____ _____    ______ ____
ROOT
ATOM      1  C   LIG A   1       0.256  -0.796   0.593  0.00  0.00    +0.012 C 
ATOM      2  C   LIG A   1       1.091  -0.326  -0.607  0.00  0.00    -0.026 C 
ATOM      3  C   LIG A   1       2.480  -1.001  -0.531  0.00  0.00    -0.001 C 
ATOM      4  C   LIG A   1       2.920  -1.018  -2.001  0.00  0.00    +0.004 C 
ATOM      5  C   LIG A   1       1.653  -1.224  -2.830  0.00  0.00    +0.004 C 
ATOM      6  C   LIG A   1       0.444  -0.954  -1.910  0.00  0.00    -0.002 C 
ATOM      7  C   LIG A   1       3.570  -0.354   0.387  0.00  0.00    +0.000 C 
ATOM      8  C   LIG A   1       3.239   1.034   0.996  0.00  0.00    +0.003 C 
ATOM      9  C   LIG A   1       2.743   1.089   2.518  0.00  0.00    -0.008 C 
ATOM     10  C   LIG A   1       2.613  -0.295   3.175  0.00  0.00    -0.064 C 
ATOM     11  C   LIG A   1       1.824  -0.407   4.473  0.00  0.00    +0.075 C 
ATOM     12  C   LIG A   1       0.557   0.455   4.477  0.00  0.00    +0.181 C 
ATOM     13  C   LIG A   1       0.807   1.884   4.034  0.00  0.00    +0.046 C 
ATOM     14  C   LIG A   1       1.429   1.916   2.652  0.00  0.00    +0.015 C 
ATOM     15  C   LIG A   1       3.221  -1.380   2.664  0.00  0.00    -0.027 C 
ATOM     16  C   LIG A   1       4.089  -1.325   1.452  0.00  0.00    +0.031 C 
ATOM     17  C   LIG A   1       3.845   1.829   3.348  0.00  0.00    +0.016 C 
ATOM     18  C   LIG A   1       2.463   1.860  -0.040  0.00  0.00    +0.005 C 
ATOM     19  C   LIG A   1       1.232   1.211  -0.692  0.00  0.00    +0.007 C 
ENDROOT
BRANCH   6  20
ATOM     20  C   LIG A   1      -0.725  -0.214  -2.663  0.00  0.00    -0.010 C 
ATOM     21  C   LIG A   1      -1.836   0.306  -1.749  0.00  0.00    +0.008 C 
BRANCH  20  22
ATOM     22  C   LIG A   1      -1.356  -1.136  -3.764  0.00  0.00    +0.004 C 
BRANCH  22  23
ATOM     23  C   LIG A   1      -2.601  -0.535  -4.468  0.00  0.00    +0.004 C 
BRANCH  23  24
ATOM     24  C   LIG A   1      -3.169  -1.328  -5.697  0.00  0.00    -0.009 C 
BRANCH  24  25
ATOM     25  C   LIG A   1      -2.057  -1.667  -6.740  0.00  0.00    -0.014 C 
ATOM     26  C   LIG A   1      -2.525  -2.446  -7.973  0.00  0.00    +0.007 C 
ATOM     27  C   LIG A   1      -1.281  -0.426  -7.191  0.00  0.00    +0.007 C 
ENDBRANCH  24  25
BRANCH  24  28
ATOM     28  C   LIG A   1      -4.406  -0.541  -6.239  0.00  0.00    +0.000 C 
ATOM     29  C   LIG A   1      -5.246  -1.233  -7.316  0.00  0.00    +0.004 C 
ENDBRANCH  24  28
ENDBRANCH  23  24
ENDBRANCH  22  23
ENDBRANCH  20  22
ENDBRANCH   6  20
BRANCH  12  30
ATOM     30  O   LIG A   1      -0.181   0.421   5.710  0.00  0.00    -0.458 OA
BRANCH  30  31
ATOM     31  C   LIG A   1       0.310   1.070   6.807  0.00  0.00    +0.340 C 
ATOM     32  O   LIG A   1       1.437   1.524   6.948  0.00  0.00    -0.245 OA
BRANCH  31  33
ATOM     33  C   LIG A   1      -0.781   1.232   7.816  0.00  0.00    +0.059 A 
ATOM     34  C   LIG A   1      -0.521   2.045   8.923  0.00  0.00    +0.015 A 
ATOM     35  C   LIG A   1      -1.520   2.222   9.908  0.00  0.00    +0.001 A 
ATOM     36  C   LIG A   1      -2.760   1.620   9.744  0.00  0.00    +0.000 A 
ATOM     37  C   LIG A   1      -3.032   0.850   8.616  0.00  0.00    +0.001 A 
ATOM     38  C   LIG A   1      -2.045   0.669   7.647  0.00  0.00    +0.015 A 
ENDBRANCH  31  33
ENDBRANCH  30  31
ENDBRANCH  12  30
TORSDOF 9
