REMARK  Name = NuBBE_1011
REMARK  2 active torsions:
REMARK  status: ('A' for Active; 'I' for Inactive)
REMARK    1  A    between atoms: O_1  and  C_2
REMARK    2  A    between atoms: C_8  and  O_9
REMARK                            x       y       z     vdW  Elec       q    Type
REMARK                         _______ _______ _______ _____ _____    ______ ____
ROOT
ATOM      1  C   LIG A   1      -1.069   1.325  -0.131  0.00  0.00    +0.128 A 
ATOM      2  C   LIG A   1      -0.399   0.078  -0.040  0.00  0.00    +0.065 A 
ATOM      3  C   LIG A   1       1.001   0.101   0.163  0.00  0.00    -0.011 A 
ATOM      4  C   LIG A   1       1.711  -1.108   0.272  0.00  0.00    +0.009 A 
ATOM      5  C   LIG A   1       1.059  -2.338   0.162  0.00  0.00    +0.004 A 
ATOM      6  C   LIG A   1      -0.313  -2.381  -0.055  0.00  0.00    +0.046 A 
ATOM      7  C   LIG A   1      -1.030  -1.187  -0.149  0.00  0.00    +0.128 A 
ATOM      8  C   LIG A   1       1.678   1.331   0.245  0.00  0.00    +0.009 A 
ATOM      9  C   LIG A   1       0.991   2.540   0.122  0.00  0.00    +0.004 A 
ATOM     10  C   LIG A   1      -0.386   2.537  -0.061  0.00  0.00    +0.046 A 
ENDROOT
BRANCH   1  11
ATOM     11  O   LIG A   1      -2.428   1.410  -0.291  0.00  0.00    -0.506 OA
ATOM     12  H   LIG A   1      -2.756   0.486  -0.298  0.00  0.00    +0.292 HD
ENDBRANCH   1  11
BRANCH   7  13
ATOM     13  O   LIG A   1      -2.388  -1.237  -0.365  0.00  0.00    -0.506 OA
ATOM     14  H   LIG A   1      -2.636  -2.164  -0.525  0.00  0.00    +0.292 HD
ENDBRANCH   7  13
TORSDOF 2
