REMARK  Name = NuBBE_2236
REMARK  4 active torsions:
REMARK  status: ('A' for Active; 'I' for Inactive)
REMARK    1  A    between atoms: C_1  and  C_2
REMARK    2  A    between atoms: C_14  and  O_15
REMARK    3  A    between atoms: C_19  and  C_20
REMARK    4  A    between atoms: C_19  and  C_21
REMARK                            x       y       z     vdW  Elec       q    Type
REMARK                         _______ _______ _______ _____ _____    ______ ____
ROOT
ATOM      1  C   LIG A   1      -1.719   1.507  -0.948  0.00  0.00    +0.015 C 
ATOM      2  C   LIG A   1      -0.237   1.124  -0.629  0.00  0.00    +0.007 C 
ATOM      3  C   LIG A   1       0.284   0.115  -1.743  0.00  0.00    +0.004 C 
ATOM      4  C   LIG A   1      -0.433  -1.243  -1.628  0.00  0.00    +0.005 C 
ATOM      5  C   LIG A   1      -0.276  -1.899  -0.266  0.00  0.00    +0.011 C 
ATOM      6  C   LIG A   1      -0.729  -1.004   0.888  0.00  0.00    +0.011 C 
ATOM      7  C   LIG A   1      -2.290  -1.077   1.004  0.00  0.00    +0.040 C 
ATOM      8  C   LIG A   1      -2.537  -1.234   2.475  0.00  0.00    -0.072 C 
ATOM      9  C   LIG A   1      -1.252  -0.969   3.204  0.00  0.00    +0.022 C 
ATOM     10  C   LIG A   1      -0.278  -1.625   2.234  0.00  0.00    +0.018 C 
ATOM     11  C   LIG A   1      -1.055   0.541   3.321  0.00  0.00    +0.085 C 
ATOM     12  C   LIG A   1      -3.679  -1.651   3.028  0.00  0.00    +0.008 C 
ATOM     13  C   LIG A   1      -0.157   0.474   0.817  0.00  0.00    +0.135 C 
ATOM     14  C   LIG A   1      -0.759   1.282   2.005  0.00  0.00    +0.166 C 
ATOM     15  O   LIG A   1      -0.827   2.508   1.989  0.00  0.00    -0.294 OA
ATOM     16  C   LIG A   1       1.850  -0.015  -1.979  0.00  0.00    -0.032 C 
ATOM     17  C   LIG A   1       2.657  -0.950  -1.046  0.00  0.00    +0.011 C 
ATOM     18  C   LIG A   1       2.081  -0.654  -3.386  0.00  0.00    +0.011 C 
ATOM     19  C   LIG A   1       2.526   1.374  -2.024  0.00  0.00    +0.007 C 
ATOM     20  C   LIG A   1       2.026   2.443  -1.068  0.00  0.00    +0.001 C 
ATOM     21  C   LIG A   1       0.531   2.472  -0.802  0.00  0.00    +0.010 C 
ENDROOT
BRANCH  13  22
ATOM     22  O   LIG A   1       1.222   0.458   1.212  0.00  0.00    -0.380 OA
ATOM     23  H   LIG A   1       1.517   1.385   1.290  0.00  0.00    +0.211 HD
ENDBRANCH  13  22
TORSDOF 1
