@<TRIPOS>MOLECULE
NuBBE_1831
 45 48 0 0 0
SMALL
GASTEIGER

@<TRIPOS>ATOM
      1 C           3.3515    1.0511   -1.8759 C.3     1  LIG1       -0.0546
      2 C           2.2202    0.9811   -0.8544 C.3     1  LIG1        0.0261
      3 H           1.6957    1.9433   -0.8332 H       1  LIG1        0.0387
      4 C           2.6871    0.5375    0.5565 C.3     1  LIG1        0.1319
      5 H           3.7559    0.7594    0.6744 H       1  LIG1        0.0790
      6 O           2.5094   -0.9008    0.6539 O.3     1  LIG1       -0.4832
      7 C           1.5274   -1.1821   -0.2592 C.ar    1  LIG1        0.1287
      8 C           0.7644   -2.3226   -0.2673 C.ar    1  LIG1        0.0258
      9 C          -0.2713   -2.4188   -1.2027 C.ar    1  LIG1        0.1658
     10 O          -1.0952   -3.4958   -0.9916 O.3     1  LIG1       -0.4842
     11 C          -2.4883   -3.3996   -1.3281 C.3     1  LIG1        0.1077
     12 C          -3.1738   -2.1407   -0.8502 C.2     1  LIG1       -0.0542
     13 C          -4.1945   -1.5614   -1.4953 C.2     1  LIG1       -0.0995
     14 C          -0.4429   -1.4221   -2.1852 C.ar    1  LIG1        0.1620
     15 O          -1.3340   -1.6348   -3.2023 O.3     1  LIG1       -0.4914
     16 C          -2.0296   -0.4683   -3.6446 C.3     1  LIG1        0.0790
     17 C           0.3588   -0.2645   -2.1524 C.ar    1  LIG1       -0.0093
     18 C           1.3179   -0.1574   -1.1610 C.ar    1  LIG1        0.0046
     19 C           1.9407    1.1562    1.7394 C.ar    1  LIG1       -0.0031
     20 C           0.5737    1.4907    1.6726 C.ar    1  LIG1       -0.0095
     21 C          -0.0425    1.9858    2.7998 C.ar    1  LIG1        0.1666
     22 O          -1.3492    2.3516    2.8897 O.3     1  LIG1       -0.4526
     23 C          -1.4135    2.7806    4.2646 C.3     1  LIG1        0.2332
     24 O          -0.1600    2.6473    4.9677 O.3     1  LIG1       -0.4526
     25 C           0.6348    2.1546    3.9813 C.ar    1  LIG1        0.1662
     26 C           1.9672    1.8271    4.1015 C.ar    1  LIG1       -0.0158
     27 C           2.6208    1.3219    2.9715 C.ar    1  LIG1       -0.0514
     28 H           4.0605    1.8407   -1.6174 H       1  LIG1        0.0237
     29 H           2.9526    1.2719   -2.8756 H       1  LIG1        0.0237
     30 H           3.8999    0.1037   -1.9486 H       1  LIG1        0.0237
     31 H           0.9188   -3.0989    0.4755 H       1  LIG1        0.0692
     32 H          -2.9689   -4.2397   -0.8124 H       1  LIG1        0.0742
     33 H          -2.6196   -3.5784   -2.3996 H       1  LIG1        0.0742
     34 H          -2.7614   -1.6563    0.0317 H       1  LIG1        0.0600
     35 H          -4.6171   -1.9983   -2.3974 H       1  LIG1        0.0533
     36 H          -4.5958   -0.6073   -1.1666 H       1  LIG1        0.0533
     37 H          -1.4191    0.1127   -4.3376 H       1  LIG1        0.0660
     38 H          -2.3557    0.1543   -2.8023 H       1  LIG1        0.0660
     39 H          -2.9225   -0.8032   -4.1804 H       1  LIG1        0.0660
     40 H           0.2482    0.5334   -2.8817 H       1  LIG1        0.0659
     41 H          -0.0160    1.3463    0.7738 H       1  LIG1        0.0659
     42 H          -2.1739    2.1853    4.7822 H       1  LIG1        0.1166
     43 H          -1.7166    3.8338    4.2861 H       1  LIG1        0.1166
     44 H           2.4885    1.9477    5.0446 H       1  LIG1        0.0655
     45 H           3.6672    1.0330    3.0563 H       1  LIG1        0.0623
@<TRIPOS>BOND
     1     1     2    1
     2     2     3    1
     3     2     4    1
     4     4     6    1
     5     6     7    1
     6     7     8   ar
     7     8     9   ar
     8     9    10    1
     9    10    11    1
    10    11    12    1
    11    12    13    2
    12     9    14   ar
    13    14    15    1
    14    15    16    1
    15    14    17   ar
    16    17    18   ar
    17     7    18   ar
    18     2    18    1
    19    19    20   ar
    20    20    21   ar
    21    21    22    1
    22    22    23    1
    23    23    24    1
    24    21    25   ar
    25    24    25    1
    26    25    26   ar
    27    26    27   ar
    28    19    27   ar
    29     4    19    1
    30     4     5    1
    31     1    28    1
    32     1    29    1
    33     1    30    1
    34     8    31    1
    35    11    32    1
    36    11    33    1
    37    12    34    1
    38    13    35    1
    39    13    36    1
    40    16    37    1
    41    16    38    1
    42    16    39    1
    43    17    40    1
    44    20    41    1
    45    23    42    1
    46    23    43    1
    47    26    44    1
    48    27    45    1
