@<TRIPOS>MOLECULE
NuBBE_1057
 74 79 0 0 0
SMALL
GASTEIGER

@<TRIPOS>ATOM
      1 O           4.0960   -0.4261   -4.2040 O.2     1  LIG1       -0.2478
      2 C           3.2108   -0.8983   -3.4948 C.2     1  LIG1        0.3398
      3 C           2.2362    0.0084   -2.8196 C.3     1  LIG1        0.1857
      4 H           2.4931    1.0470   -2.8911 H       1  LIG1        0.0743
      5 C           1.4523   -0.4783   -1.5997 C.3     1  LIG1        0.1240
      6 C           1.8072   -1.9158   -1.1652 C.3     1  LIG1        0.0419
      7 C           3.1153   -1.9435   -0.3390 C.3     1  LIG1       -0.0531
      8 C           2.0091   -2.7650   -2.4818 C.3     1  LIG1        0.1391
      9 H           1.1194   -2.6887   -3.1250 H       1  LIG1        0.0793
     10 O           3.1131   -2.2379   -3.2568 O.3     1  LIG1       -0.4539
     11 C           2.2032   -4.2419   -2.2594 C.ar    1  LIG1        0.0310
     12 C           1.2141   -5.2074   -2.2100 C.ar    1  LIG1        0.0984
     13 O           1.7429   -6.4359   -1.9900 O.2     1  LIG1       -0.4706
     14 C           3.0878   -6.2782   -1.9190 C.ar    1  LIG1        0.0921
     15 C           3.4249   -4.9565   -2.0898 C.ar    1  LIG1       -0.0172
     16 C           0.6578   -2.4883   -0.3311 C.3     1  LIG1       -0.0409
     17 C           0.2303   -1.5734    0.8141 C.3     1  LIG1       -0.0481
     18 C          -0.3080   -0.2341    0.2749 C.3     1  LIG1       -0.0180
     19 C           0.7902    0.5329   -0.5753 C.3     1  LIG1        0.0301
     20 C           0.0283    1.6828   -1.3229 C.3     1  LIG1        0.0640
     21 H          -0.5949    1.2527   -2.1095 H       1  LIG1        0.0600
     22 C          -0.8486    2.5530   -0.4185 C.3     1  LIG1       -0.0201
     23 C          -1.8825    1.8109    0.4619 C.3     1  LIG1        0.0021
     24 H          -2.1870    2.5320    1.2221 H       1  LIG1        0.0337
     25 C          -1.1940    0.6343    1.3076 C.3     1  LIG1        0.0513
     26 C          -0.3401    1.1682    2.5496 C.3     1  LIG1        0.1224
     27 H           0.6433    0.6945    2.4730 H       1  LIG1        0.0746
     28 O          -0.0200    2.5904    2.5616 O.3     1  LIG1       -0.4603
     29 C          -0.8832    3.4995    3.0977 C.2     1  LIG1        0.3042
     30 C          -0.2391    4.8406    3.2548 C.3     1  LIG1        0.0332
     31 O          -2.0301    3.2706    3.4547 O.2     1  LIG1       -0.2512
     32 C          -0.8360    0.7392    3.9393 C.3     1  LIG1        0.0826
     33 C          -1.0392   -0.7330    3.9780 C.2     1  LIG1        0.3107
     34 O          -1.7454   -1.2164    2.9333 O.3     1  LIG1       -0.4638
     35 C          -2.2725   -0.2866    1.9638 C.3     1  LIG1        0.1021
     36 O          -0.6374   -1.4436    4.8894 O.2     1  LIG1       -0.2507
     37 C          -3.2705    1.5832   -0.2872 C.3     1  LIG1        0.0642
     38 O          -4.1721    0.8952    0.5829 O.3     1  LIG1       -0.3888
     39 C          -3.9549    2.9411   -0.5623 C.3     1  LIG1       -0.0361
     40 C          -3.2289    0.7896   -1.5931 C.3     1  LIG1       -0.0361
     41 O           0.9485    2.5672   -1.9707 O.3     1  LIG1       -0.3911
     42 C           1.9405    1.1534    0.2501 C.3     1  LIG1       -0.0542
     43 O           0.8679   -0.3928   -2.9159 O.3     1  LIG1       -0.3516
     44 H           3.9635   -1.5263   -0.8900 H       1  LIG1        0.0237
     45 H           3.3772   -2.9653   -0.0454 H       1  LIG1        0.0237
     46 H           3.0407   -1.3810    0.5908 H       1  LIG1        0.0237
     47 H           0.1363   -5.1779   -2.2985 H       1  LIG1        0.1033
     48 H           3.6563   -7.1824   -1.7525 H       1  LIG1        0.1029
     49 H           4.4277   -4.5515   -2.0918 H       1  LIG1        0.0653
     50 H           0.9315   -3.4615    0.0936 H       1  LIG1        0.0273
     51 H          -0.2145   -2.6655   -0.9762 H       1  LIG1        0.0273
     52 H           1.0347   -1.4256    1.5388 H       1  LIG1        0.0269
     53 H          -0.5517   -2.1387    1.3193 H       1  LIG1        0.0269
     54 H          -1.0408   -0.5574   -0.4749 H       1  LIG1        0.0315
     55 H          -1.3386    3.3064   -1.0444 H       1  LIG1        0.0294
     56 H          -0.1954    3.1630    0.2142 H       1  LIG1        0.0294
     57 H           0.0852    4.9646    4.2915 H       1  LIG1        0.0342
     58 H          -0.9706    5.6124    2.9993 H       1  LIG1        0.0342
     59 H           0.6158    4.9481    2.5837 H       1  LIG1        0.0342
     60 H          -1.7794    1.1940    4.2475 H       1  LIG1        0.0414
     61 H          -0.0921    1.0246    4.6932 H       1  LIG1        0.0414
     62 H          -3.0374    0.2990    2.4853 H       1  LIG1        0.0704
     63 H          -2.7625   -0.9056    1.2058 H       1  LIG1        0.0704
     64 H          -5.0547    0.8690    0.1719 H       1  LIG1        0.2101
     65 H          -4.9772    2.7963   -0.9323 H       1  LIG1        0.0257
     66 H          -3.4204    3.5463   -1.2979 H       1  LIG1        0.0257
     67 H          -4.0521    3.5191    0.3646 H       1  LIG1        0.0257
     68 H          -4.2464    0.6219   -1.9697 H       1  LIG1        0.0257
     69 H          -2.8117   -0.2093   -1.4543 H       1  LIG1        0.0257
     70 H          -2.6830    1.3120   -2.3815 H       1  LIG1        0.0257
     71 H           0.4527    3.0586   -2.6503 H       1  LIG1        0.2098
     72 H           1.6470    2.0730    0.7582 H       1  LIG1        0.0237
     73 H           2.7906    1.4181   -0.3902 H       1  LIG1        0.0237
     74 H           2.3215    0.4768    1.0147 H       1  LIG1        0.0237
@<TRIPOS>BOND
     1     1     2    2
     2     2     3    1
     3     3     4    1
     4     3     5    1
     5     5     6    1
     6     6     7    1
     7     6     8    1
     8     8     9    1
     9     8    10    1
    10     2    10    1
    11     8    11    1
    12    11    12   ar
    13    12    13   ar
    14    13    14   ar
    15    14    15   ar
    16    11    15   ar
    17     6    16    1
    18    16    17    1
    19    17    18    1
    20    18    19    1
    21    19    20    1
    22    20    21    1
    23    20    22    1
    24    22    23    1
    25    23    25    1
    26    18    25    1
    27    25    26    1
    28    26    27    1
    29    26    28    1
    30    28    29    1
    31    29    30    1
    32    29    31    2
    33    26    32    1
    34    32    33    1
    35    33    34    1
    36    34    35    1
    37    25    35    1
    38    33    36    2
    39    37    38    1
    40    37    39    1
    41    37    40    1
    42    20    41    1
    43     5    19    1
    44    19    42    1
    45     5    43    1
    46     3    43    1
    47    23    37    1
    48    23    24    1
    49     7    44    1
    50     7    45    1
    51     7    46    1
    52    12    47    1
    53    14    48    1
    54    15    49    1
    55    16    50    1
    56    16    51    1
    57    17    52    1
    58    17    53    1
    59    18    54    1
    60    22    55    1
    61    22    56    1
    62    30    57    1
    63    30    58    1
    64    30    59    1
    65    32    60    1
    66    32    61    1
    67    35    62    1
    68    35    63    1
    69    38    64    1
    70    39    65    1
    71    39    66    1
    72    39    67    1
    73    40    68    1
    74    40    69    1
    75    40    70    1
    76    41    71    1
    77    42    72    1
    78    42    73    1
    79    42    74    1
