REMARK  Name = NuBBE_258
REMARK  10 active torsions:
REMARK  status: ('A' for Active; 'I' for Inactive)
REMARK    1  A    between atoms: C_3  and  O_4
REMARK    2  A    between atoms: C_5  and  C_6
REMARK    3  A    between atoms: C_12  and  C_13
REMARK    4  A    between atoms: C_15  and  C_26
REMARK    5  A    between atoms: C_18  and  C_19
REMARK    6  A    between atoms: C_18  and  C_20
REMARK    7  A    between atoms: C_20  and  O_21
REMARK    8  A    between atoms: O_21  and  C_22
REMARK    9  A    between atoms: C_29  and  C_30
REMARK   10  A    between atoms: C_33  and  C_34
REMARK                            x       y       z     vdW  Elec       q    Type
REMARK                         _______ _______ _______ _____ _____    ______ ____
ROOT
ATOM      1  O   LIG A   1      -6.837  -1.943  -0.003  0.00  0.00    -0.284 OA
ATOM      2  C   LIG A   1      -5.762  -2.234   0.515  0.00  0.00    +0.221 C 
ATOM      3  C   LIG A   1      -5.641  -3.486   1.319  0.00  0.00    +0.167 C 
ATOM      4  C   LIG A   1      -4.447  -3.877   1.807  0.00  0.00    +0.002 C 
ATOM      5  C   LIG A   1      -4.305  -5.121   2.643  0.00  0.00    +0.048 C 
ATOM      6  C   LIG A   1      -3.255  -3.083   1.467  0.00  0.00    -0.014 C 
ATOM      7  C   LIG A   1      -2.004  -3.563   1.629  0.00  0.00    +0.009 C 
ATOM      8  C   LIG A   1      -0.838  -2.901   1.071  0.00  0.00    +0.005 C 
ATOM      9  C   LIG A   1      -0.879  -1.656   0.545  0.00  0.00    -0.034 C 
ATOM     10  C   LIG A   1       0.228  -1.064  -0.272  0.00  0.00    -0.038 C 
ATOM     11  C   LIG A   1       1.305  -1.747  -0.768  0.00  0.00    -0.068 C 
ATOM     12  C   LIG A   1       1.463  -3.251  -0.867  0.00  0.00    +0.039 C 
ATOM     13  C   LIG A   1       2.538  -1.073  -1.377  0.00  0.00    +0.038 C 
ATOM     14  C   LIG A   1       2.673   0.470  -1.295  0.00  0.00    -0.018 C 
ATOM     15  C   LIG A   1       4.018   0.837  -0.623  0.00  0.00    +0.082 C 
ATOM     16  C   LIG A   1       4.183   2.341  -0.508  0.00  0.00    +0.150 C 
ATOM     17  C   LIG A   1       3.032   3.130   0.119  0.00  0.00    +0.123 C 
ATOM     18  C   LIG A   1       3.185   2.978   1.644  0.00  0.00    +0.031 C 
ATOM     19  C   LIG A   1       1.644   2.605  -0.355  0.00  0.00    +0.030 C 
ATOM     20  O   LIG A   1       5.265   2.853  -0.797  0.00  0.00    -0.296 OA
ATOM     21  C   LIG A   1       2.759   1.033  -2.744  0.00  0.00    +0.012 C 
ATOM     22  C   LIG A   1       1.548   1.065  -0.400  0.00  0.00    +0.007 C 
ATOM     23  C   LIG A   1       0.131   0.439  -0.675  0.00  0.00    -0.003 C 
ATOM     24  C   LIG A   1      -0.278   0.508  -2.174  0.00  0.00    +0.016 C 
ATOM     25  C   LIG A   1      -0.951   1.226   0.097  0.00  0.00    +0.013 C 
ATOM     26  C   LIG A   1      -2.272   0.472   0.174  0.00  0.00    +0.017 C 
ATOM     27  C   LIG A   1      -2.124  -0.832   0.976  0.00  0.00    +0.019 C 
ATOM     28  C   LIG A   1      -1.948  -0.411   2.476  0.00  0.00    +0.021 C 
ATOM     29  C   LIG A   1      -3.395  -1.718   0.915  0.00  0.00    -0.026 C 
ATOM     30  C   LIG A   1      -4.590  -1.338   0.430  0.00  0.00    +0.059 C 
ENDROOT
BRANCH   3  31
ATOM     31  O   LIG A   1      -6.802  -4.212   1.517  0.00  0.00    -0.503 OA
ATOM     32  H   LIG A   1      -7.489  -3.728   1.010  0.00  0.00    +0.292 HD
ENDBRANCH   3  31
BRANCH  17  33
ATOM     33  C   LIG A   1       3.053   4.610  -0.240  0.00  0.00    +0.320 C 
ATOM     34  O   LIG A   1       2.577   5.500   0.474  0.00  0.00    -0.250 OA
BRANCH  33  35
ATOM     35  O   LIG A   1       3.486   4.798  -1.513  0.00  0.00    -0.467 OA
ATOM     36  C   LIG A   1       3.237   6.089  -2.067  0.00  0.00    +0.280 C 
ENDBRANCH  33  35
ENDBRANCH  17  33
TORSDOF 3
