@<TRIPOS>MOLECULE
NuBBE_580
 56 58 0 0 0
SMALL
GASTEIGER

@<TRIPOS>ATOM
      1 O          -1.2953   -3.9643    5.4328 O.2     1  LIG1       -0.2456
      2 C          -0.5891   -3.9030    4.4426 C.2     1  LIG1        0.3319
      3 C           0.1598   -5.0815    3.9777 C.2     1  LIG1        0.0187
      4 C           1.0869   -4.9989    3.0153 C.2     1  LIG1       -0.0738
      5 C           1.3516   -3.7065    2.3147 C.3     1  LIG1        0.0032
      6 O          -0.4123   -2.7539    3.7485 O.3     1  LIG1       -0.4579
      7 C           0.1173   -2.8030    2.4066 C.3     1  LIG1        0.1091
      8 H          -0.6679   -3.2020    1.7526 H       1  LIG1        0.0738
      9 C           0.4560   -1.3693    1.9925 C.3     1  LIG1        0.0111
     10 C          -0.7436   -0.3927    1.9889 C.3     1  LIG1        0.0665
     11 H          -1.0751   -0.2727    3.0262 H       1  LIG1        0.0598
     12 O          -0.3264    0.9109    1.5619 O.3     1  LIG1       -0.3653
     13 C           0.0889    1.0209    0.1919 C.3     1  LIG1        0.1178
     14 H           1.0742    0.5566    0.0929 H       1  LIG1        0.0679
     15 C          -0.9146    0.3941   -0.8115 C.3     1  LIG1        0.1692
     16 H          -1.7222    1.1138   -1.0044 H       1  LIG1        0.0801
     17 O          -0.3089    0.1602   -2.1230 O.3     1  LIG1       -0.4548
     18 C           0.5956   -0.8534   -2.2453 C.2     1  LIG1        0.3044
     19 C           1.0860   -0.9876   -3.6368 C.3     1  LIG1        0.0332
     20 O           1.0053   -1.5660   -1.3337 O.2     1  LIG1       -0.2512
     21 C          -1.5674   -0.9033   -0.2919 C.3     1  LIG1        0.1448
     22 H          -0.8718   -1.7358   -0.3250 H       1  LIG1        0.0773
     23 O          -2.7006   -1.2145   -1.1295 O.3     1  LIG1       -0.4576
     24 C          -2.6466   -2.4249   -1.7618 C.2     1  LIG1        0.3043
     25 C          -3.6605   -2.4816   -2.8679 C.3     1  LIG1        0.0332
     26 O          -1.8745   -3.3394   -1.5103 O.2     1  LIG1       -0.2512
     27 C          -1.9695   -0.7850    1.1620 C.3     1  LIG1        0.0145
     28 C           0.2818    2.5075   -0.0163 C.2     1  LIG1       -0.0514
     29 C           1.1625    3.0535   -0.8721 C.2     1  LIG1       -0.0560
     30 C           1.4113    4.4997   -0.9889 C.ar    1  LIG1       -0.0252
     31 C           1.7711    5.0318   -2.2338 C.ar    1  LIG1       -0.0546
     32 C           2.0220    6.3996   -2.3796 C.ar    1  LIG1       -0.0612
     33 C           1.9301    7.2486   -1.2787 C.ar    1  LIG1       -0.0617
     34 C           1.6084    6.7279   -0.0280 C.ar    1  LIG1       -0.0612
     35 C           1.3612    5.3599    0.1177 C.ar    1  LIG1       -0.0546
     36 H          -0.0317   -6.0050    4.5134 H       1  LIG1        0.0686
     37 H           1.6711   -5.8717    2.7382 H       1  LIG1        0.0575
     38 H           1.5890   -3.8975    1.2613 H       1  LIG1        0.0343
     39 H           2.2299   -3.2378    2.7732 H       1  LIG1        0.0343
     40 H           0.9595   -1.3896    1.0252 H       1  LIG1        0.0326
     41 H           1.2048   -0.9560    2.6828 H       1  LIG1        0.0326
     42 H           1.8744   -0.2497   -3.7937 H       1  LIG1        0.0342
     43 H           0.2706   -0.8620   -4.3528 H       1  LIG1        0.0342
     44 H           1.4952   -1.9960   -3.7632 H       1  LIG1        0.0342
     45 H          -4.0282   -1.4779   -3.0934 H       1  LIG1        0.0342
     46 H          -4.4894   -3.1226   -2.5672 H       1  LIG1        0.0342
     47 H          -3.1743   -2.8663   -3.7625 H       1  LIG1        0.0342
     48 H          -2.4120   -1.7244    1.5075 H       1  LIG1        0.0327
     49 H          -2.7505   -0.0199    1.2558 H       1  LIG1        0.0327
     50 H          -0.3083    3.1516    0.6349 H       1  LIG1        0.0599
     51 H           1.7375    2.4164   -1.5387 H       1  LIG1        0.0621
     52 H           1.8491    4.3881   -3.1066 H       1  LIG1        0.0623
     53 H           2.2867    6.8019   -3.3539 H       1  LIG1        0.0618
     54 H           2.1152    8.3134   -1.3935 H       1  LIG1        0.0618
     55 H           1.5511    7.3836    0.8372 H       1  LIG1        0.0618
     56 H           1.1367    4.9755    1.1099 H       1  LIG1        0.0623
@<TRIPOS>BOND
     1     1     2    2
     2     2     3    1
     3     3     4    2
     4     4     5    1
     5     2     6    1
     6     6     7    1
     7     7     8    1
     8     5     7    1
     9     7     9    1
    10     9    10    1
    11    10    11    1
    12    10    12    1
    13    12    13    1
    14    13    14    1
    15    13    15    1
    16    17    18    1
    17    18    19    1
    18    18    20    2
    19    15    21    1
    20    21    22    1
    21    21    23    1
    22    23    24    1
    23    24    25    1
    24    24    26    2
    25    21    27    1
    26    10    27    1
    27    13    28    1
    28    28    29    2
    29    29    30    1
    30    30    31   ar
    31    31    32   ar
    32    32    33   ar
    33    33    34   ar
    34    34    35   ar
    35    30    35   ar
    36    15    17    1
    37    15    16    1
    38     3    36    1
    39     4    37    1
    40     5    38    1
    41     5    39    1
    42     9    40    1
    43     9    41    1
    44    19    42    1
    45    19    43    1
    46    19    44    1
    47    25    45    1
    48    25    46    1
    49    25    47    1
    50    27    48    1
    51    27    49    1
    52    28    50    1
    53    29    51    1
    54    31    52    1
    55    32    53    1
    56    33    54    1
    57    34    55    1
    58    35    56    1
