@<TRIPOS>MOLECULE
NuBBE_170
 83 83 0 0 0
SMALL
GASTEIGER

@<TRIPOS>ATOM
      1 C           0.2231    2.7171    6.6025 C.3     1  LIG1        0.0000
      2 C          -0.2696    2.2631    5.2249 C.3     1  LIG1        0.0000
      3 H          -1.1459    1.6448    5.4567 H       1  LIG1        0.0000
      4 C           0.8205    1.4548    4.4653 C.3     1  LIG1        0.0000
      5 H           1.3336    0.7549    5.1376 H       1  LIG1        0.0000
      6 O           1.7663    2.4302    3.9721 O.3     1  LIG1        0.0000
      7 SI          3.2035    2.1236    3.1851 Si      1  LIG1        0.0000
      8 C           3.0228    1.3465    1.4840 C.3     1  LIG1        0.0000
      9 C           4.1437    4.0202    2.9232 C.3     1  LIG1        0.0000
     10 C           5.4561    3.8146    2.1258 C.3     1  LIG1        0.0000
     11 C           3.1937    4.9793    2.1640 C.3     1  LIG1        0.0000
     12 C           4.3898    4.5987    4.3417 C.3     1  LIG1        0.0000
     13 C           4.4446    1.0331    4.0877 C.3     1  LIG1        0.0000
     14 C           0.0896    0.7120    3.3352 C.3     1  LIG1        0.0000
     15 C          -1.2995    1.2812    3.0053 C.3     1  LIG1        0.0000
     16 C          -1.4021    2.8094    3.0861 C.3     1  LIG1        0.0000
     17 H          -2.4517    3.0867    3.2520 H       1  LIG1        0.0000
     18 C          -0.9618    3.4420    1.7299 C.3     1  LIG1        0.0000
     19 C          -1.8780    3.2711    0.4622 C.3     1  LIG1        0.0000
     20 C          -2.3207    1.8759   -0.1836 C.3     1  LIG1        0.0000
     21 C          -1.2617    0.8675   -0.8769 C.3     1  LIG1        0.0000
     22 C          -1.8534   -0.6052   -1.4428 C.3     1  LIG1        0.0000
     23 C          -0.9255   -1.7748   -2.1155 C.3     1  LIG1        0.0000
     24 C          -1.4603   -3.0915   -2.9675 C.3     1  LIG1        0.0000
     25 C          -2.2063   -4.3921   -2.4770 C.3     1  LIG1        0.0000
     26 C          -2.4739   -5.5101   -3.6374 C.3     1  LIG1        0.0000
     27 C          -3.2160   -4.9844   -4.9048 C.3     1  LIG1        0.0000
     28 C          -3.6631   -5.8977   -6.1176 C.3     1  LIG1        0.0000
     29 C          -2.7915   -6.4894   -7.3309 C.3     1  LIG1        0.0000
     30 C          -2.3145   -5.7283   -8.4523 C.2     1  LIG1        0.0000
     31 C          -1.4284   -6.3348   -9.6440 C.3     1  LIG1        0.0000
     32 O          -2.6597   -4.5848   -8.4156 O.2     1  LIG1        0.0000
     33 N          -0.6788    3.3567    4.2901 N.3     1  LIG1        0.0000
     34 H           0.2166    3.7489    3.9600 H       1  LIG1        0.0000
     35 H           0.2670    1.8380    7.2646 H       1  LIG1        0.0000
     36 H          -0.4751    3.4183    7.0713 H       1  LIG1        0.0000
     37 H           1.2222    3.1598    6.5893 H       1  LIG1        0.0000
     38 H           2.2555    1.8419    0.8860 H       1  LIG1        0.0000
     39 H           2.7562    0.2902    1.5985 H       1  LIG1        0.0000
     40 H           3.9703    1.3777    0.9401 H       1  LIG1        0.0000
     41 H           5.4896    4.4672    1.2446 H       1  LIG1        0.0000
     42 H           5.5914    2.7943    1.7578 H       1  LIG1        0.0000
     43 H           6.3379    4.0543    2.7287 H       1  LIG1        0.0000
     44 H           2.8422    4.5645    1.2144 H       1  LIG1        0.0000
     45 H           3.7119    5.9239    1.9471 H       1  LIG1        0.0000
     46 H           2.3108    5.2350    2.7626 H       1  LIG1        0.0000
     47 H           4.4265    3.8301    5.1197 H       1  LIG1        0.0000
     48 H           3.5868    5.2897    4.6257 H       1  LIG1        0.0000
     49 H           5.3239    5.1678    4.3911 H       1  LIG1        0.0000
     50 H           4.0971   -0.0049    4.0777 H       1  LIG1        0.0000
     51 H           4.6074    1.3401    5.1225 H       1  LIG1        0.0000
     52 H           5.4076    1.0568    3.5647 H       1  LIG1        0.0000
     53 H          -0.0598   -0.3284    3.6452 H       1  LIG1        0.0000
     54 H           0.6780    0.6881    2.4209 H       1  LIG1        0.0000
     55 H          -2.0461    0.8474    3.6826 H       1  LIG1        0.0000
     56 H          -1.5747    0.9163    2.0211 H       1  LIG1        0.0000
     57 H           0.0459    3.1081    1.4709 H       1  LIG1        0.0000
     58 H          -0.8794    4.5293    1.9034 H       1  LIG1        0.0000
     59 H          -2.8058    3.8255    0.7008 H       1  LIG1        0.0000
     60 H          -1.4153    3.8744   -0.3332 H       1  LIG1        0.0000
     61 H          -3.0445    2.1565   -0.9660 H       1  LIG1        0.0000
     62 H          -2.9191    1.3432    0.5610 H       1  LIG1        0.0000
     63 H          -0.4682    0.6867   -0.1451 H       1  LIG1        0.0000
     64 H          -0.8165    1.4235   -1.7156 H       1  LIG1        0.0000
     65 H          -2.6191   -0.3460   -2.1805 H       1  LIG1        0.0000
     66 H          -2.3309   -1.0727   -0.5785 H       1  LIG1        0.0000
     67 H          -0.2151   -2.1435   -1.3645 H       1  LIG1        0.0000
     68 H          -0.3188   -1.2608   -2.8782 H       1  LIG1        0.0000
     69 H          -0.5389   -3.5220   -3.3988 H       1  LIG1        0.0000
     70 H          -2.0253   -2.7035   -3.8180 H       1  LIG1        0.0000
     71 H          -3.1694   -4.1375   -2.0201 H       1  LIG1        0.0000
     72 H          -1.6170   -4.8991   -1.6957 H       1  LIG1        0.0000
     73 H          -3.0722   -6.3176   -3.1783 H       1  LIG1        0.0000
     74 H          -1.5253   -5.9736   -3.9301 H       1  LIG1        0.0000
     75 H          -2.7055   -4.1047   -5.2922 H       1  LIG1        0.0000
     76 H          -4.1678   -4.6181   -4.4774 H       1  LIG1        0.0000
     77 H          -4.4485   -5.3000   -6.6128 H       1  LIG1        0.0000
     78 H          -4.1950   -6.7421   -5.6681 H       1  LIG1        0.0000
     79 H          -3.5587   -7.1692   -7.8240 H       1  LIG1        0.0000
     80 H          -2.0323   -7.1985   -6.9512 H       1  LIG1        0.0000
     81 H          -1.3529   -5.6514  -10.5346 H       1  LIG1        0.0000
     82 H          -1.8097   -7.2814  -10.0973 H       1  LIG1        0.0000
     83 H          -0.3626   -6.5126   -9.3776 H       1  LIG1        0.0000
@<TRIPOS>BOND
     1     2     4    1
     2     6     7    1
     3     7     8    1
     4     7     9    1
     5     9    10    1
     6     9    11    1
     7     9    12    1
     8     7    13    1
     9     4    14    1
    10    14    15    1
    11    15    16    1
    12    16    17    1
    13    16    18    1
    14    18    19    1
    15    19    20    1
    16    20    21    1
    17    21    22    1
    18    22    23    1
    19    23    24    1
    20    24    25    1
    21    25    26    1
    22    26    27    1
    23    27    28    1
    24    28    29    1
    25    29    30    1
    26    30    31    1
    27    30    32    2
    28    16    33    1
    29     2    33    1
    30    33    34    1
    31     2     3    1
    32     2     1    1
    33     4     6    1
    34     4     5    1
    35     1    35    1
    36     1    36    1
    37     1    37    1
    38     8    38    1
    39     8    39    1
    40     8    40    1
    41    10    41    1
    42    10    42    1
    43    10    43    1
    44    11    44    1
    45    11    45    1
    46    11    46    1
    47    12    47    1
    48    12    48    1
    49    12    49    1
    50    13    50    1
    51    13    51    1
    52    13    52    1
    53    14    53    1
    54    14    54    1
    55    15    55    1
    56    15    56    1
    57    18    57    1
    58    18    58    1
    59    19    59    1
    60    19    60    1
    61    20    61    1
    62    20    62    1
    63    21    63    1
    64    21    64    1
    65    22    65    1
    66    22    66    1
    67    23    67    1
    68    23    68    1
    69    24    69    1
    70    24    70    1
    71    25    71    1
    72    25    72    1
    73    26    73    1
    74    26    74    1
    75    27    75    1
    76    27    76    1
    77    28    77    1
    78    28    78    1
    79    29    79    1
    80    29    80    1
    81    31    81    1
    82    31    82    1
    83    31    83    1
