REMARK  Name = NuBBE_1184
REMARK  14 active torsions:
REMARK  status: ('A' for Active; 'I' for Inactive)
REMARK    1  A    between atoms: O_1  and  C_2
REMARK    2  A    between atoms: C_3  and  O_42
REMARK    3  A    between atoms: C_17  and  O_18
REMARK    4  A    between atoms: O_18  and  C_19
REMARK    5  A    between atoms: C_22  and  C_33
REMARK    6  A    between atoms: C_24  and  O_32
REMARK    7  A    between atoms: C_26  and  O_31
REMARK    8  A    between atoms: C_28  and  O_30
REMARK    9  A    between atoms: C_33  and  O_34
REMARK   10  A    between atoms: O_34  and  C_35
REMARK   11  A    between atoms: C_35  and  C_36
REMARK   12  A    between atoms: C_38  and  O_39
REMARK   13  A    between atoms: O_39  and  C_40
REMARK   14  A    between atoms: O_42  and  C_43
REMARK                            x       y       z     vdW  Elec       q    Type
REMARK                         _______ _______ _______ _____ _____    ______ ____
ROOT
ATOM      1  C   LIG A   1      -4.355  -3.833  -2.216  0.00  0.00    +0.202 A 
ATOM      2  C   LIG A   1      -4.137  -5.213  -2.154  0.00  0.00    +0.166 A 
ATOM      3  C   LIG A   1      -2.853  -5.691  -1.869  0.00  0.00    +0.065 A 
ATOM      4  C   LIG A   1      -1.805  -4.790  -1.613  0.00  0.00    +0.074 A 
ATOM      5  C   LIG A   1      -2.041  -3.421  -1.647  0.00  0.00    +0.047 A 
ATOM      6  C   LIG A   1      -3.311  -2.953  -1.967  0.00  0.00    +0.185 A 
ATOM      7  O   LIG A   1      -3.567  -1.567  -2.028  0.00  0.00    -0.418 OA
ATOM      8  C   LIG A   1      -2.600  -0.615  -1.746  0.00  0.00    +0.345 A 
ATOM      9  O   LIG A   1      -2.829   0.589  -1.796  0.00  0.00    -0.244 OA
ATOM     10  C   LIG A   1      -0.441  -5.287  -1.295  0.00  0.00    +0.345 A 
ATOM     11  O   LIG A   1       0.499  -4.327  -0.901  0.00  0.00    -0.418 OA
ATOM     12  C   LIG A   1       0.244  -2.925  -0.894  0.00  0.00    +0.186 A 
ATOM     13  C   LIG A   1      -1.010  -2.486  -1.311  0.00  0.00    +0.047 A 
ATOM     14  C   LIG A   1      -1.268  -1.129  -1.356  0.00  0.00    +0.074 A 
ATOM     15  C   LIG A   1      -0.276  -0.223  -0.998  0.00  0.00    +0.065 A 
ATOM     16  C   LIG A   1       0.961  -0.649  -0.502  0.00  0.00    +0.170 A 
ATOM     17  C   LIG A   1       1.248  -2.031  -0.464  0.00  0.00    +0.205 A 
ATOM     18  O   LIG A   1      -0.174  -6.479  -1.368  0.00  0.00    -0.244 OA
ENDROOT
BRANCH   1  19
ATOM     19  O   LIG A   1      -5.598  -3.342  -2.505  0.00  0.00    -0.501 OA
ATOM     20  H   LIG A   1      -6.170  -4.121  -2.639  0.00  0.00    +0.292 HD
ENDBRANCH   1  19
BRANCH  17  21
ATOM     21  O   LIG A   1       2.400  -2.634  -0.027  0.00  0.00    -0.488 OA
ATOM     22  C   LIG A   1       3.459  -1.815   0.452  0.00  0.00    +0.277 C 
ENDBRANCH  17  21
BRANCH   2  23
ATOM     23  O   LIG A   1      -5.250  -5.978  -2.385  0.00  0.00    -0.491 OA
ATOM     24  C   LIG A   1      -5.085  -7.386  -2.265  0.00  0.00    +0.277 C 
ENDBRANCH   2  23
BRANCH  16  25
ATOM     25  O   LIG A   1       1.898   0.264  -0.096  0.00  0.00    -0.457 OA
BRANCH  25  26
ATOM     26  C   LIG A   1       1.451   1.520   0.452  0.00  0.00    +0.339 C 
ATOM     27  O   LIG A   1       2.536   2.451   0.303  0.00  0.00    -0.330 OA
ATOM     28  C   LIG A   1       2.249   3.748   0.847  0.00  0.00    +0.191 C 
ATOM     29  C   LIG A   1       2.053   3.615   2.364  0.00  0.00    +0.178 C 
ATOM     30  C   LIG A   1       0.833   2.720   2.584  0.00  0.00    +0.180 C 
ATOM     31  C   LIG A   1       1.044   1.352   1.937  0.00  0.00    +0.214 C 
BRANCH  31  32
ATOM     32  O   LIG A   1      -0.174   0.600   2.074  0.00  0.00    -0.383 OA
ATOM     33  H   LIG A   1      -0.419   0.676   3.018  0.00  0.00    +0.210 HD
ENDBRANCH  31  32
BRANCH  30  34
ATOM     34  O   LIG A   1       0.597   2.555   3.990  0.00  0.00    -0.386 OA
ATOM     35  H   LIG A   1       0.599   3.467   4.348  0.00  0.00    +0.210 HD
ENDBRANCH  30  34
BRANCH  29  36
ATOM     36  O   LIG A   1       1.812   4.848   3.045  0.00  0.00    -0.386 OA
ATOM     37  H   LIG A   1       2.684   5.250   3.219  0.00  0.00    +0.210 HD
ENDBRANCH  29  36
BRANCH  28  38
ATOM     38  C   LIG A   1       3.410   4.678   0.467  0.00  0.00    +0.266 C 
BRANCH  38  39
ATOM     39  O   LIG A   1       3.314   6.002   1.015  0.00  0.00    -0.462 OA
BRANCH  39  40
ATOM     40  C   LIG A   1       2.247   6.741   0.587  0.00  0.00    +0.304 C 
ATOM     41  C   LIG A   1       2.262   8.088   1.239  0.00  0.00    +0.136 C 
ATOM     42  O   LIG A   1       1.381   6.363  -0.172  0.00  0.00    -0.251 OA
ENDBRANCH  39  40
ENDBRANCH  38  39
ENDBRANCH  28  38
ENDBRANCH  25  26
ENDBRANCH  16  25
TORSDOF 11
