REMARK  Name = NuBBE_2065
REMARK  7 active torsions:
REMARK  status: ('A' for Active; 'I' for Inactive)
REMARK    1  A    between atoms: C_1  and  O_2
REMARK    2  A    between atoms: O_2  and  C_3
REMARK    3  A    between atoms: C_12  and  O_14
REMARK    4  A    between atoms: C_17  and  O_18
REMARK    5  A    between atoms: O_18  and  C_19
REMARK    6  A    between atoms: C_20  and  O_21
REMARK    7  A    between atoms: O_21  and  C_22
REMARK                            x       y       z     vdW  Elec       q    Type
REMARK                         _______ _______ _______ _____ _____    ______ ____
ROOT
ATOM      1  C   LIG A   1       2.699   1.531   0.900  0.00  0.00    +0.143 C 
ATOM      2  C   LIG A   1       3.316   0.418   0.087  0.00  0.00    +0.004 C 
ATOM      3  C   LIG A   1       2.784  -0.813   0.055  0.00  0.00    +0.004 C 
ATOM      4  C   LIG A   1       1.590  -1.038   0.815  0.00  0.00    -0.026 C 
ATOM      5  C   LIG A   1       1.390  -2.053   1.659  0.00  0.00    -0.006 C 
ATOM      6  C   LIG A   1       0.247  -1.728   2.558  0.00  0.00    +0.113 C 
ATOM      7  N   LIG A   1       0.062  -0.277   2.367  0.00  0.00    -0.282 NA
ATOM      8  C   LIG A   1      -1.283   0.207   2.678  0.00  0.00    +0.122 C 
ATOM      9  C   LIG A   1      -2.391  -0.216   1.696  0.00  0.00    +0.159 C 
ATOM     10  C   LIG A   1      -1.931  -0.202   0.259  0.00  0.00    -0.009 A 
ATOM     11  C   LIG A   1      -2.891  -0.330  -0.760  0.00  0.00    +0.056 A 
ATOM     12  C   LIG A   1      -2.533  -0.344  -2.114  0.00  0.00    +0.162 A 
ATOM     13  C   LIG A   1      -1.190  -0.174  -2.474  0.00  0.00    +0.162 A 
ATOM     14  C   LIG A   1      -0.233  -0.057  -1.456  0.00  0.00    +0.055 A 
ATOM     15  C   LIG A   1      -0.573  -0.087  -0.082  0.00  0.00    -0.013 A 
ATOM     16  C   LIG A   1       0.540   0.047   0.992  0.00  0.00    +0.076 C 
ATOM     17  C   LIG A   1       1.157   1.474   0.919  0.00  0.00    +0.068 C 
ENDROOT
BRANCH   1  19
ATOM     18  C   LIG A   1       2.982   2.510   3.068  0.00  0.00    +0.194 C 
ATOM     19  O   LIG A   1       3.314   1.450   2.187  0.00  0.00    -0.376 OA
ENDBRANCH   1  19
BRANCH   9  20
ATOM     20  O   LIG A   1      -2.898  -1.505   2.051  0.00  0.00    -0.386 OA
ATOM     21  H   LIG A   1      -2.816  -2.082   1.272  0.00  0.00    +0.210 HD
ENDBRANCH   9  20
BRANCH  12  22
ATOM     22  O   LIG A   1      -3.608  -0.483  -2.953  0.00  0.00    -0.491 OA
ATOM     23  C   LIG A   1      -3.367  -1.126  -4.199  0.00  0.00    +0.277 C 
ENDBRANCH  12  22
BRANCH  13  24
ATOM     24  O   LIG A   1      -0.884  -0.111  -3.807  0.00  0.00    -0.491 OA
ATOM     25  C   LIG A   1       0.462   0.162  -4.176  0.00  0.00    +0.277 C 
ENDBRANCH  13  24
TORSDOF 4
