@<TRIPOS>MOLECULE
NuBBE_1921
 26 25 0 0 0
SMALL
GASTEIGER

@<TRIPOS>ATOM
      1 C          -0.1084   -0.9147    1.8556 C.2     1  LIG1       -0.0546
      2 C           0.1376   -0.0098    0.8849 C.2     1  LIG1       -0.0774
      3 C           1.0124   -0.1496   -0.3314 C.3     1  LIG1       -0.0158
      4 C           0.2496    0.0055   -1.6193 C.2     1  LIG1       -0.0815
      5 C           0.1061    1.1239   -2.3604 C.2     1  LIG1       -0.0793
      6 C           0.5989    2.4851   -1.9526 C.3     1  LIG1       -0.0440
      7 C          -0.5929    1.0834   -3.6939 C.3     1  LIG1       -0.0440
      8 C          -0.9210   -0.5143    3.0082 C.2     1  LIG1       -0.0662
      9 C          -1.2251   -1.2798    4.0611 C.2     1  LIG1       -0.0985
     10 C           0.4116   -2.3304    1.8555 C.3     1  LIG1       -0.0400
     11 H          -0.2959    0.9866    0.9795 H       1  LIG1        0.0578
     12 H           1.5269   -1.1143   -0.3648 H       1  LIG1        0.0350
     13 H           1.8150    0.5946   -0.2688 H       1  LIG1        0.0350
     14 H          -0.1670   -0.9262   -2.0010 H       1  LIG1        0.0575
     15 H           0.7000    2.5849   -0.8682 H       1  LIG1        0.0274
     16 H          -0.1094    3.2585   -2.2716 H       1  LIG1        0.0274
     17 H           1.5659    2.6974   -2.4185 H       1  LIG1        0.0274
     18 H          -0.9428    0.0778   -3.9497 H       1  LIG1        0.0274
     19 H           0.0892    1.4092   -4.4867 H       1  LIG1        0.0274
     20 H          -1.4633    1.7473   -3.6898 H       1  LIG1        0.0274
     21 H          -1.2965    0.5102    3.0086 H       1  LIG1        0.0614
     22 H          -0.8922   -2.3088    4.1599 H       1  LIG1        0.0535
     23 H          -1.8266   -0.8879    4.8764 H       1  LIG1        0.0535
     24 H           0.9866   -2.5891    0.9648 H       1  LIG1        0.0277
     25 H          -0.4225   -3.0401    1.9026 H       1  LIG1        0.0277
     26 H           1.0639   -2.4994    2.7196 H       1  LIG1        0.0277
@<TRIPOS>BOND
     1     1     2    2
     2     2     3    1
     3     3     4    1
     4     4     5    2
     5     5     6    1
     6     5     7    1
     7     1     8    1
     8     8     9    2
     9     1    10    1
    10     2    11    1
    11     3    12    1
    12     3    13    1
    13     4    14    1
    14     6    15    1
    15     6    16    1
    16     6    17    1
    17     7    18    1
    18     7    19    1
    19     7    20    1
    20     8    21    1
    21     9    22    1
    22     9    23    1
    23    10    24    1
    24    10    25    1
    25    10    26    1
