REMARK  Name = NuBBE_2281
REMARK  9 active torsions:
REMARK  status: ('A' for Active; 'I' for Inactive)
REMARK    1  A    between atoms: O_1  and  C_2
REMARK    2  A    between atoms: C_7  and  C_8
REMARK    3  A    between atoms: C_11  and  O_12
REMARK    4  A    between atoms: O_12  and  C_13
REMARK    5  A    between atoms: C_13  and  C_14
REMARK    6  A    between atoms: C_15  and  C_16
REMARK    7  A    between atoms: C_15  and  C_17
REMARK    8  A    between atoms: C_27  and  C_28
REMARK    9  A    between atoms: C_27  and  C_29
REMARK                            x       y       z     vdW  Elec       q    Type
REMARK                         _______ _______ _______ _____ _____    ______ ____
ROOT
ATOM      1  C   LIG A   1      -0.435   3.716   0.590  0.00  0.00    +0.142 A 
ATOM      2  C   LIG A   1       0.347   2.552   0.530  0.00  0.00    +0.107 A 
ATOM      3  C   LIG A   1       1.734   2.649   0.469  0.00  0.00    +0.145 A 
ATOM      4  O   LIG A   1       2.558   1.554   0.390  0.00  0.00    -0.462 OA
ATOM      5  C   LIG A   1       1.970   0.310   0.353  0.00  0.00    +0.208 A 
ATOM      6  C   LIG A   1       0.658   0.043   0.421  0.00  0.00    +0.064 A 
ATOM      7  C   LIG A   1      -0.263   1.205   0.532  0.00  0.00    +0.204 A 
ATOM      8  O   LIG A   1      -1.477   1.087   0.616  0.00  0.00    -0.286 OA
ATOM      9  C   LIG A   1       2.349   3.901   0.481  0.00  0.00    +0.093 A 
ATOM     10  C   LIG A   1       1.573   5.061   0.542  0.00  0.00    +0.136 A 
ATOM     11  C   LIG A   1       0.177   4.982   0.596  0.00  0.00    +0.059 A 
ATOM     12  C   LIG A   1      -0.598   6.215   0.667  0.00  0.00    +0.015 C 
ATOM     13  C   LIG A   1       0.054   7.380   0.624  0.00  0.00    +0.020 C 
ATOM     14  C   LIG A   1       1.556   7.483   0.507  0.00  0.00    +0.123 C 
ATOM     15  C   LIG A   1       1.917   8.140  -0.830  0.00  0.00    +0.060 C 
ATOM     16  C   LIG A   1       2.094   8.328   1.668  0.00  0.00    +0.060 C 
ATOM     17  O   LIG A   1       2.275   6.234   0.557  0.00  0.00    -0.481 OA
ENDROOT
BRANCH   6  18
ATOM     18  C   LIG A   1       0.168  -1.341   0.362  0.00  0.00    -0.011 A 
ATOM     19  C   LIG A   1      -0.150  -1.925  -0.870  0.00  0.00    +0.012 A 
ATOM     20  C   LIG A   1      -0.649  -3.233  -0.937  0.00  0.00    +0.046 A 
ATOM     21  C   LIG A   1      -0.826  -3.982   0.227  0.00  0.00    +0.121 A 
ATOM     22  C   LIG A   1      -0.474  -3.416   1.454  0.00  0.00    +0.046 A 
ATOM     23  C   LIG A   1       0.016  -2.105   1.525  0.00  0.00    +0.012 A 
BRANCH  21  24
ATOM     24  O   LIG A   1      -1.327  -5.255   0.298  0.00  0.00    -0.488 OA
BRANCH  24  25
ATOM     25  C   LIG A   1      -1.773  -5.834  -0.929  0.00  0.00    +0.256 C 
BRANCH  25  26
ATOM     26  C   LIG A   1      -2.284  -7.217  -0.640  0.00  0.00    +0.012 C 
ATOM     27  C   LIG A   1      -1.841  -8.382  -1.155  0.00  0.00    -0.076 C 
ATOM     28  C   LIG A   1      -0.705  -8.517  -2.132  0.00  0.00    +0.038 C 
ATOM     29  C   LIG A   1      -2.475  -9.692  -0.760  0.00  0.00    +0.038 C 
ENDBRANCH  25  26
ENDBRANCH  24  25
ENDBRANCH  21  24
ENDBRANCH   6  18
BRANCH   1  30
ATOM     30  O   LIG A   1      -1.808   3.660   0.640  0.00  0.00    -0.505 OA
ATOM     31  H   LIG A   1      -2.082   2.714   0.648  0.00  0.00    +0.292 HD
ENDBRANCH   1  30
TORSDOF 5
