@<TRIPOS>MOLECULE
NuBBE_1908
 32 34 0 0 0
SMALL
GASTEIGER

@<TRIPOS>ATOM
      1 O          -1.3979   -1.4331    0.1508 O.2     1  LIG1       -0.2864
      2 C          -0.1732   -1.3492    0.1196 C.ar    1  LIG1        0.2001
      3 C           0.5610   -0.0440    0.0875 C.ar    1  LIG1        0.0643
      4 C          -0.1306    1.2721    0.0530 C.ar    1  LIG1       -0.0110
      5 C           0.4224    2.4162    0.6526 C.ar    1  LIG1       -0.0504
      6 C          -0.2484    3.6467    0.6233 C.ar    1  LIG1       -0.0194
      7 C          -1.4953    3.7654    0.0114 C.ar    1  LIG1        0.1201
      8 O          -2.0536    5.0122    0.0660 O.3     1  LIG1       -0.4951
      9 C          -3.3456    5.1571   -0.5132 C.3     1  LIG1        0.0788
     10 C          -2.0589    2.6424   -0.5851 C.ar    1  LIG1       -0.0194
     11 C          -1.3799    1.4158   -0.5690 C.ar    1  LIG1       -0.0504
     12 C           1.9035   -0.1281    0.0716 C.ar    1  LIG1        0.1038
     13 O           2.6721   -1.2677    0.0985 O.2     1  LIG1       -0.4620
     14 C           2.0253   -2.4749    0.1175 C.ar    1  LIG1        0.1419
     15 C           2.8178   -3.6248    0.1331 C.ar    1  LIG1        0.0228
     16 C           2.2025   -4.8740    0.1469 C.ar    1  LIG1        0.1204
     17 O           2.9309   -6.0262    0.1637 O.3     1  LIG1       -0.5066
     18 C           0.8157   -4.9895    0.1438 C.ar    1  LIG1       -0.0193
     19 C           0.0270   -3.8386    0.1307 C.ar    1  LIG1       -0.0439
     20 C           0.6379   -2.5791    0.1204 C.ar    1  LIG1        0.0648
     21 H           1.3791    2.3759    1.1676 H       1  LIG1        0.0625
     22 H           0.2036    4.5174    1.0930 H       1  LIG1        0.0654
     23 H          -3.6668    6.1925   -0.3651 H       1  LIG1        0.0660
     24 H          -4.0770    4.5088   -0.0188 H       1  LIG1        0.0660
     25 H          -3.3155    4.9684   -1.5916 H       1  LIG1        0.0660
     26 H          -3.0287    2.6746   -1.0703 H       1  LIG1        0.0654
     27 H          -1.8625    0.5685   -1.0524 H       1  LIG1        0.0625
     28 H           2.5669    0.7274    0.0280 H       1  LIG1        0.1037
     29 H           3.8987   -3.5299    0.1347 H       1  LIG1        0.0691
     30 H           3.8768   -5.8050    0.1671 H       1  LIG1        0.2921
     31 H           0.3501   -5.9716    0.1539 H       1  LIG1        0.0654
     32 H          -1.0574   -3.9257    0.1305 H       1  LIG1        0.0627
@<TRIPOS>BOND
     1     1     2    2
     2     2     3   ar
     3     3     4    1
     4     4     5   ar
     5     5     6   ar
     6     6     7   ar
     7     7     8    1
     8     8     9    1
     9     7    10   ar
    10    10    11   ar
    11     4    11   ar
    12     3    12   ar
    13    12    13   ar
    14    13    14   ar
    15    14    15   ar
    16    15    16   ar
    17    16    17    1
    18    16    18   ar
    19    18    19   ar
    20    19    20   ar
    21    14    20   ar
    22     2    20   ar
    23     5    21    1
    24     6    22    1
    25     9    23    1
    26     9    24    1
    27     9    25    1
    28    10    26    1
    29    11    27    1
    30    12    28    1
    31    15    29    1
    32    17    30    1
    33    18    31    1
    34    19    32    1
