@<TRIPOS>MOLECULE
NuBBE_424
 61 60 0 0 0
SMALL
GASTEIGER

@<TRIPOS>ATOM
      1 N           2.2989   -2.5090    0.9193 N.pl3   1  LIG1       -0.1296
      2 C           1.1425   -1.8761    0.6436 C.cat   1  LIG1        0.3790
      3 N          -0.0286   -2.5445    0.5504 N.pl3   1  LIG1       -0.2891
      4 N           0.9281   -0.5736    0.4924 N.pl3   1  LIG1       -0.2557
      5 C           1.4348    0.4129    1.5374 C.3     1  LIG1        0.0862
      6 C           0.5486    1.6650    1.7813 C.2     1  LIG1       -0.0516
      7 C          -0.7078    1.7332    2.3335 C.2     1  LIG1       -0.0733
      8 C          -1.7415    2.9564    2.4067 C.3     1  LIG1       -0.0285
      9 C          -1.8018    4.4267    3.1830 C.3     1  LIG1       -0.0308
     10 C          -2.1563    4.6721    4.6943 C.2     1  LIG1       -0.0850
     11 C          -2.9977    5.5678    5.3175 C.2     1  LIG1       -0.0796
     12 C          -3.7693    6.7233    4.7036 C.3     1  LIG1       -0.0440
     13 C          -3.3791    5.5176    6.8126 C.3     1  LIG1       -0.0440
     14 C          -1.3402    0.3829    2.6471 C.3     1  LIG1       -0.0437
     15 C           0.8287    0.0101   -0.9142 C.3     1  LIG1        0.0862
     16 C           2.0198   -0.3414   -1.7701 C.2     1  LIG1       -0.0516
     17 C           2.4169   -0.9214   -2.9501 C.2     1  LIG1       -0.0733
     18 C           1.8590   -1.6773   -4.2130 C.3     1  LIG1       -0.0285
     19 C           0.6700   -2.6425   -4.6657 C.3     1  LIG1       -0.0308
     20 C           0.3926   -4.1113   -4.2697 C.2     1  LIG1       -0.0850
     21 C           0.7679   -5.3124   -4.7988 C.2     1  LIG1       -0.0796
     22 C           1.8038   -5.5473   -5.8714 C.3     1  LIG1       -0.0440
     23 C           0.1294   -6.6338   -4.3549 C.3     1  LIG1       -0.0440
     24 C           3.9245   -0.5992   -3.1670 C.3     1  LIG1       -0.0437
     25 H           2.1099   -3.5802    0.9349 H       1  LIG1        0.3062
     26 H          -0.0727   -3.3716    1.1417 H       1  LIG1        0.2547
     27 H          -0.8157   -1.8921    0.8111 H       1  LIG1        0.2547
     28 H           2.4819    0.6876    1.3218 H       1  LIG1        0.0702
     29 H           1.5298   -0.1728    2.4934 H       1  LIG1        0.0702
     30 H           1.0246    2.5821    1.4343 H       1  LIG1        0.0603
     31 H          -2.7084    2.4902    2.6450 H       1  LIG1        0.0313
     32 H          -1.8571    3.2317    1.3411 H       1  LIG1        0.0313
     33 H          -2.6065    4.9540    2.6382 H       1  LIG1        0.0310
     34 H          -0.8835    4.9737    2.9325 H       1  LIG1        0.0310
     35 H          -1.5906    4.0206    5.3601 H       1  LIG1        0.0572
     36 H          -3.4415    7.0088    3.7050 H       1  LIG1        0.0274
     37 H          -3.6642    7.6273    5.3375 H       1  LIG1        0.0274
     38 H          -4.8420    6.4862    4.6876 H       1  LIG1        0.0274
     39 H          -2.5920    5.1915    7.5005 H       1  LIG1        0.0274
     40 H          -4.2535    4.8605    6.9159 H       1  LIG1        0.0274
     41 H          -3.7192    6.4973    7.2006 H       1  LIG1        0.0274
     42 H          -1.7762   -0.0574    1.7398 H       1  LIG1        0.0274
     43 H          -2.1296    0.4737    3.3955 H       1  LIG1        0.0274
     44 H          -0.6164   -0.3352    3.0482 H       1  LIG1        0.0274
     45 H           0.8128    1.0996   -0.8422 H       1  LIG1        0.0702
     46 H          -0.1201   -0.2876   -1.3617 H       1  LIG1        0.0702
     47 H           2.8406    0.1409   -1.2270 H       1  LIG1        0.0603
     48 H           2.7270   -2.2297   -4.6009 H       1  LIG1        0.0313
     49 H           1.7471   -0.8372   -4.9282 H       1  LIG1        0.0313
     50 H           0.7745   -2.7010   -5.7674 H       1  LIG1        0.0310
     51 H          -0.2767   -2.0981   -4.5422 H       1  LIG1        0.0310
     52 H          -0.4180   -4.1651   -3.5406 H       1  LIG1        0.0572
     53 H           2.1723   -4.6213   -6.3119 H       1  LIG1        0.0274
     54 H           1.4024   -6.1686   -6.6848 H       1  LIG1        0.0274
     55 H           2.6560   -6.0955   -5.4494 H       1  LIG1        0.0274
     56 H          -0.7564   -6.4918   -3.7281 H       1  LIG1        0.0274
     57 H           0.8455   -7.2497   -3.7977 H       1  LIG1        0.0274
     58 H          -0.1968   -7.2338   -5.2185 H       1  LIG1        0.0274
     59 H           4.4473   -0.4614   -2.2111 H       1  LIG1        0.0274
     60 H           4.0477    0.3345   -3.7326 H       1  LIG1        0.0274
     61 H           4.4746   -1.3881   -3.6885 H       1  LIG1        0.0274
@<TRIPOS>BOND
     1     1     2    2
     2     2     3    1
     3     2     4    1
     4     4     5    1
     5     5     6    1
     6     6     7    2
     7     7     8    1
     8     8     9    1
     9     9    10    1
    10    10    11    2
    11    11    12    1
    12    11    13    1
    13     7    14    1
    14     4    15    1
    15    15    16    1
    16    16    17    2
    17    17    18    1
    18    18    19    1
    19    19    20    1
    20    20    21    2
    21    21    22    1
    22    21    23    1
    23    17    24    1
    24     1    25    1
    25     3    26    1
    26     3    27    1
    27     5    28    1
    28     5    29    1
    29     6    30    1
    30     8    31    1
    31     8    32    1
    32     9    33    1
    33     9    34    1
    34    10    35    1
    35    12    36    1
    36    12    37    1
    37    12    38    1
    38    13    39    1
    39    13    40    1
    40    13    41    1
    41    14    42    1
    42    14    43    1
    43    14    44    1
    44    15    45    1
    45    15    46    1
    46    16    47    1
    47    18    48    1
    48    18    49    1
    49    19    50    1
    50    19    51    1
    51    20    52    1
    52    22    53    1
    53    22    54    1
    54    22    55    1
    55    23    56    1
    56    23    57    1
    57    23    58    1
    58    24    59    1
    59    24    60    1
    60    24    61    1
