@<TRIPOS>MOLECULE
NuBBE_1317
 41 44 0 0 0
SMALL
GASTEIGER

@<TRIPOS>ATOM
      1 O          -4.0979   -0.6647   -1.3612 O.2     1  LIG1       -0.2918
      2 C          -2.9014   -0.7487   -1.1037 C.2     1  LIG1        0.1705
      3 C          -2.1127   -2.0025   -1.3468 C.3     1  LIG1        0.0519
      4 C          -0.9904   -2.0567   -0.3223 C.3     1  LIG1        0.1322
      5 O          -0.1274   -0.9168   -0.4573 O.3     1  LIG1       -0.4824
      6 C          -0.7861    0.2815   -0.3132 C.ar    1  LIG1        0.1425
      7 C          -2.1496    0.4186   -0.5975 C.ar    1  LIG1        0.0600
      8 C          -2.7895    1.6503   -0.4432 C.ar    1  LIG1       -0.0442
      9 C          -2.0564    2.7541   -0.0124 C.ar    1  LIG1       -0.0184
     10 C          -0.6912    2.6296    0.2598 C.ar    1  LIG1        0.1324
     11 C          -0.0422    1.3988    0.1035 C.ar    1  LIG1        0.0589
     12 C           1.3878    1.3164    0.3783 C.2     1  LIG1       -0.0478
     13 C           2.0070    2.4024    0.8491 C.2     1  LIG1       -0.0408
     14 C           1.3012    3.7123    1.1069 C.3     1  LIG1        0.1235
     15 C           2.0418    4.8377    0.3749 C.3     1  LIG1       -0.0215
     16 O          -0.0676    3.7788    0.6577 O.3     1  LIG1       -0.4815
     17 C           1.2885    3.9974    2.6133 C.3     1  LIG1       -0.0215
     18 C          -0.1652   -3.3178   -0.5007 C.ar    1  LIG1       -0.0069
     19 C           0.8294   -3.4068   -1.4876 C.ar    1  LIG1       -0.0551
     20 C           1.5619   -4.5830   -1.6558 C.ar    1  LIG1       -0.0614
     21 C           1.3065   -5.6862   -0.8446 C.ar    1  LIG1       -0.0617
     22 C           0.3182   -5.6152    0.1348 C.ar    1  LIG1       -0.0614
     23 C          -0.4155   -4.4396    0.3052 C.ar    1  LIG1       -0.0551
     24 H          -1.7355   -1.9669   -2.3754 H       1  LIG1        0.0385
     25 H          -2.7769   -2.8673   -1.2400 H       1  LIG1        0.0385
     26 H          -1.3924   -2.0473    0.7017 H       1  LIG1        0.0789
     27 H          -3.8486    1.7568   -0.6680 H       1  LIG1        0.0627
     28 H          -2.5453    3.7183    0.1049 H       1  LIG1        0.0654
     29 H           1.9169    0.3849    0.2096 H       1  LIG1        0.0624
     30 H           3.0691    2.3488    1.0742 H       1  LIG1        0.0611
     31 H           2.0267    4.6742   -0.7095 H       1  LIG1        0.0271
     32 H           3.0861    4.9198    0.6959 H       1  LIG1        0.0271
     33 H           1.5525    5.8037    0.5471 H       1  LIG1        0.0271
     34 H           2.3001    4.0380    3.0319 H       1  LIG1        0.0271
     35 H           0.7243    3.2269    3.1526 H       1  LIG1        0.0271
     36 H           0.7886    4.9497    2.8261 H       1  LIG1        0.0271
     37 H           1.0427   -2.5553   -2.1312 H       1  LIG1        0.0621
     38 H           2.3322   -4.6376   -2.4208 H       1  LIG1        0.0618
     39 H           1.8772   -6.6017   -0.9763 H       1  LIG1        0.0618
     40 H           0.1179   -6.4771    0.7663 H       1  LIG1        0.0618
     41 H          -1.1851   -4.4079    1.0737 H       1  LIG1        0.0621
@<TRIPOS>BOND
     1     1     2    2
     2     2     3    1
     3     3     4    1
     4     4     5    1
     5     5     6    1
     6     6     7   ar
     7     2     7    1
     8     7     8   ar
     9     8     9   ar
    10     9    10   ar
    11    10    11   ar
    12     6    11   ar
    13    11    12    1
    14    12    13    2
    15    13    14    1
    16    14    15    1
    17    14    16    1
    18    10    16    1
    19    14    17    1
    20     4    18    1
    21    18    19   ar
    22    19    20   ar
    23    20    21   ar
    24    21    22   ar
    25    22    23   ar
    26    18    23   ar
    27     3    24    1
    28     3    25    1
    29     4    26    1
    30     8    27    1
    31     9    28    1
    32    12    29    1
    33    13    30    1
    34    15    31    1
    35    15    32    1
    36    15    33    1
    37    17    34    1
    38    17    35    1
    39    17    36    1
    40    19    37    1
    41    20    38    1
    42    21    39    1
    43    22    40    1
    44    23    41    1
