REMARK  Name = NuBBE_373
REMARK  3 active torsions:
REMARK  status: ('A' for Active; 'I' for Inactive)
REMARK    1  A    between atoms: C_2  and  C_8
REMARK    2  A    between atoms: C_9  and  C_10
REMARK    3  A    between atoms: C_11  and  C_12
REMARK                            x       y       z     vdW  Elec       q    Type
REMARK                         _______ _______ _______ _____ _____    ______ ____
ROOT
ATOM      1  C   LIG A   1       0.694   0.645  -2.111  0.00  0.00    +0.001 C 
ATOM      2  C   LIG A   1       1.763   1.456  -2.134  0.00  0.00    +0.008 C 
ENDROOT
BRANCH   2   3
ATOM      3  C   LIG A   1       2.507   1.915  -0.960  0.00  0.00    -0.021 A 
ATOM      4  C   LIG A   1       2.128   3.116  -0.322  0.00  0.00    +0.012 A 
ATOM      5  C   LIG A   1       2.802   3.561   0.820  0.00  0.00    +0.050 A 
ATOM      6  C   LIG A   1       3.835   2.784   1.295  0.00  0.00    +0.166 A 
ATOM      7  C   LIG A   1       4.212   1.617   0.672  0.00  0.00    +0.167 A 
ATOM      8  O   LIG A   1       5.248   1.003   1.303  0.00  0.00    -0.453 OA
ATOM      9  C   LIG A   1       5.451   1.894   2.419  0.00  0.00    +0.466 C 
ATOM     10  O   LIG A   1       4.585   3.047   2.399  0.00  0.00    -0.453 OA
ATOM     11  C   LIG A   1       3.572   1.156  -0.460  0.00  0.00    +0.057 A 
ENDBRANCH   2   3
BRANCH   1  13
ATOM     12  C   LIG A   1      -0.990  -0.743  -1.022  0.00  0.00    +0.067 C 
ATOM     13  C   LIG A   1       0.096   0.040  -0.939  0.00  0.00    +0.005 C 
BRANCH  12  15
ATOM     14  O   LIG A   1      -0.848  -1.563   1.198  0.00  0.00    -0.271 OA
ATOM     15  C   LIG A   1      -1.532  -1.422   0.184  0.00  0.00    +0.239 C 
ATOM     16  N   LIG A   1      -2.816  -1.898   0.075  0.00  0.00    -0.298 N 
ATOM     17  C   LIG A   1      -3.734  -1.733  -1.042  0.00  0.00    +0.108 C 
ATOM     18  C   LIG A   1      -5.073  -2.219  -0.512  0.00  0.00    +0.020 C 
ATOM     19  C   LIG A   1      -4.669  -3.275   0.508  0.00  0.00    +0.020 C 
ATOM     20  C   LIG A   1      -3.421  -2.676   1.142  0.00  0.00    +0.108 C 
ENDBRANCH  12  15
ENDBRANCH   1  13
TORSDOF 3
