REMARK  Name = NuBBE_112
REMARK  20 active torsions:
REMARK  status: ('A' for Active; 'I' for Inactive)
REMARK    1  A    between atoms: C_2  and  C_3
REMARK    2  A    between atoms: C_2  and  O_43
REMARK    3  A    between atoms: C_6  and  O_23
REMARK    4  A    between atoms: C_8  and  C_16
REMARK    5  A    between atoms: C_10  and  C_12
REMARK    6  A    between atoms: C_12  and  C_13
REMARK    7  A    between atoms: C_13  and  O_14
REMARK    8  A    between atoms: C_16  and  C_18
REMARK    9  A    between atoms: C_16  and  O_19
REMARK   10  A    between atoms: O_19  and  C_20
REMARK   11  A    between atoms: C_20  and  C_21
REMARK   12  A    between atoms: O_23  and  C_24
REMARK   13  A    between atoms: C_26  and  O_42
REMARK   14  A    between atoms: C_28  and  O_41
REMARK   15  A    between atoms: C_30  and  O_40
REMARK   16  A    between atoms: C_32  and  C_35
REMARK   17  A    between atoms: C_35  and  O_36
REMARK   18  A    between atoms: O_36  and  C_37
REMARK   19  A    between atoms: C_37  and  C_38
REMARK   20  A    between atoms: O_43  and  C_44
REMARK                            x       y       z     vdW  Elec       q    Type
REMARK                         _______ _______ _______ _____ _____    ______ ____
ROOT
ATOM      1  C   LIG A   1       2.621   0.041  -1.247  0.00  0.00    +0.075 C 
ATOM      2  C   LIG A   1       2.295   1.010  -0.361  0.00  0.00    +0.201 C 
ATOM      3  O   LIG A   1       1.145   1.108   0.369  0.00  0.00    -0.470 OA
ATOM      4  C   LIG A   1       0.111   0.161   0.085  0.00  0.00    +0.316 C 
ATOM      5  C   LIG A   1       0.691  -1.239  -0.287  0.00  0.00    +0.106 C 
ATOM      6  C   LIG A   1       1.592  -1.023  -1.579  0.00  0.00    +0.052 C 
ENDROOT
BRANCH   1   8
ATOM      7  O   LIG A   1       4.406  -0.437  -2.800  0.00  0.00    -0.245 OA
ATOM      8  C   LIG A   1       4.009   0.111  -1.801  0.00  0.00    +0.338 C 
BRANCH   8   9
ATOM      9  O   LIG A   1       4.796   0.779  -0.915  0.00  0.00    -0.465 OA
ATOM     10  C   LIG A   1       6.204   0.601  -1.046  0.00  0.00    +0.280 C 
ENDBRANCH   8   9
ENDBRANCH   1   8
BRANCH   5  11
ATOM     11  C   LIG A   1       1.401  -1.859   0.997  0.00  0.00    +0.183 C 
ATOM     12  C   LIG A   1       0.405  -2.079   2.158  0.00  0.00    +0.052 C 
BRANCH  11  13
ATOM     13  O   LIG A   1       2.031  -3.130   0.675  0.00  0.00    -0.461 OA
BRANCH  13  14
ATOM     14  C   LIG A   1       2.754  -3.763   1.651  0.00  0.00    +0.304 C 
ATOM     15  C   LIG A   1       3.422  -4.988   1.106  0.00  0.00    +0.136 C 
ATOM     16  O   LIG A   1       2.874  -3.402   2.814  0.00  0.00    -0.251 OA
ENDBRANCH  13  14
ENDBRANCH  11  13
ENDBRANCH   5  11
BRANCH   4  17
ATOM     17  O   LIG A   1      -0.797   0.665  -0.901  0.00  0.00    -0.309 OA
BRANCH  17  18
ATOM     18  C   LIG A   1      -1.404   1.906  -0.466  0.00  0.00    +0.286 C 
ATOM     19  C   LIG A   1      -2.385   2.401  -1.565  0.00  0.00    +0.201 C 
ATOM     20  C   LIG A   1      -3.780   2.720  -0.995  0.00  0.00    +0.179 C 
ATOM     21  C   LIG A   1      -3.628   3.581   0.271  0.00  0.00    +0.178 C 
ATOM     22  C   LIG A   1      -2.690   2.917   1.307  0.00  0.00    +0.190 C 
ATOM     23  O   LIG A   1      -2.061   1.729   0.792  0.00  0.00    -0.339 OA
BRANCH  19  24
ATOM     24  O   LIG A   1      -1.859   3.596  -2.188  0.00  0.00    -0.384 OA
ATOM     25  H   LIG A   1      -1.875   4.300  -1.504  0.00  0.00    +0.210 HD
ENDBRANCH  19  24
BRANCH  20  26
ATOM     26  O   LIG A   1      -4.513   1.525  -0.742  0.00  0.00    -0.386 OA
ATOM     27  H   LIG A   1      -5.455   1.705  -0.903  0.00  0.00    +0.210 HD
ENDBRANCH  20  26
BRANCH  21  28
ATOM     28  O   LIG A   1      -3.048   4.849  -0.108  0.00  0.00    -0.386 OA
ATOM     29  H   LIG A   1      -3.752   5.372  -0.538  0.00  0.00    +0.210 HD
ENDBRANCH  21  28
BRANCH  22  30
ATOM     30  C   LIG A   1      -3.452   2.508   2.584  0.00  0.00    +0.266 C 
BRANCH  30  31
ATOM     31  O   LIG A   1      -4.487   1.574   2.229  0.00  0.00    -0.462 OA
BRANCH  31  32
ATOM     32  C   LIG A   1      -4.484   0.399   2.911  0.00  0.00    +0.304 C 
ATOM     33  C   LIG A   1      -5.176  -0.673   2.126  0.00  0.00    +0.136 C 
ATOM     34  O   LIG A   1      -3.953   0.208   3.998  0.00  0.00    -0.251 OA
ENDBRANCH  31  32
ENDBRANCH  30  31
ENDBRANCH  22  30
ENDBRANCH  17  18
ENDBRANCH   4  17
BRANCH   6  35
ATOM     35  C   LIG A   1       1.939  -2.367  -2.266  0.00  0.00    +0.129 C 
BRANCH  35  36
ATOM     36  C   LIG A   1       2.667  -2.293  -3.595  0.00  0.00    +0.305 C 
ATOM     37  O   LIG A   1       2.513  -1.463  -4.473  0.00  0.00    -0.251 OA
BRANCH  36  38
ATOM     38  O   LIG A   1       3.515  -3.326  -3.744  0.00  0.00    -0.481 OA
ATOM     39  H   LIG A   1       4.035  -3.099  -4.544  0.00  0.00    +0.295 HD
ENDBRANCH  36  38
ENDBRANCH  35  36
ENDBRANCH   6  35
TORSDOF 16
