@<TRIPOS>MOLECULE
NuBBE_1287
 95 102 0 0 0
SMALL
GASTEIGER

@<TRIPOS>ATOM
      1 C           3.0469    0.2163    2.1639 C.3     1  LIG1       -0.0538
      2 C           1.7779    0.4723    1.3358 C.3     1  LIG1        0.0395
      3 C           0.7700    1.3245    2.2467 C.3     1  LIG1        0.1334
      4 C           0.8784    2.6824    3.0129 C.3     1  LIG1        0.1055
      5 O           1.2287    1.4420    3.6036 O.3     1  LIG1       -0.3578
      6 C           1.9323    3.7075    3.1754 C.3     1  LIG1       -0.0326
      7 C          -0.5529    3.1675    3.2953 C.3     1  LIG1        0.0316
      8 H          -0.6392    4.2583    3.2586 H       1  LIG1        0.0363
      9 C          -1.3149    2.5873    2.1230 C.3     1  LIG1       -0.0149
     10 C          -0.7183    1.2016    2.1468 C.3     1  LIG1        0.0955
     11 H          -0.9432    0.8528    1.1813 H       1  LIG1        0.0627
     12 O          -1.2745    0.4142    3.1878 O.3     1  LIG1       -0.3329
     13 C          -1.5471    1.0620    4.4380 C.3     1  LIG1        0.2342
     14 H          -2.6239    0.9244    4.6011 H       1  LIG1        0.1090
     15 C          -1.1886    2.5856    4.5676 C.3     1  LIG1        0.1545
     16 O          -2.3639    3.3616    4.8541 O.3     1  LIG1       -0.3778
     17 C          -0.3454    2.5972    5.7872 C.2     1  LIG1       -0.0121
     18 C          -0.2395    1.3549    6.2453 C.2     1  LIG1        0.0870
     19 O          -0.9068    0.3720    5.5462 O.2     1  LIG1       -0.4680
     20 C           1.2863   -0.9774    0.6267 C.3     1  LIG1        0.0462
     21 H           2.1808   -1.4481    0.1923 H       1  LIG1        0.0373
     22 C           0.2355   -0.8620   -0.5725 C.3     1  LIG1        0.0467
     23 C           0.4642    0.4752   -1.4478 C.3     1  LIG1        0.0207
     24 H          -0.5348    0.8866   -1.6467 H       1  LIG1        0.0347
     25 C           1.2684    1.6452   -0.8308 C.3     1  LIG1        0.0899
     26 H           0.6264    2.4052   -0.3811 H       1  LIG1        0.0625
     27 C           2.3416    1.2397    0.1451 C.3     1  LIG1        0.0902
     28 H           3.0701    0.5830   -0.3571 H       1  LIG1        0.0626
     29 O           3.1036    2.3907    0.5168 O.3     1  LIG1       -0.3886
     30 O           1.9897    2.3099   -1.8914 O.3     1  LIG1       -0.3724
     31 C           2.4010    1.2921   -2.8043 C.3     1  LIG1        0.0677
     32 C           1.1908    0.3209   -2.8454 C.3     1  LIG1        0.1334
     33 C           0.3091    0.9452   -3.9421 C.2     1  LIG1        0.3193
     34 O           0.6026    1.9704   -4.5834 O.2     1  LIG1       -0.2500
     35 O          -0.8292    0.2584   -4.1358 O.3     1  LIG1       -0.4674
     36 C          -1.7613    0.8232   -5.0730 C.3     1  LIG1        0.0817
     37 C           1.7202   -1.0975   -3.1524 C.3     1  LIG1        0.1246
     38 H           2.6646   -1.1703   -2.5861 H       1  LIG1        0.0747
     39 C           0.9582   -2.3085   -2.6479 C.3     1  LIG1        0.0234
     40 C          -0.0440   -2.0703   -1.5675 C.3     1  LIG1        0.1153
     41 H          -0.1347   -3.0229   -1.0499 H       1  LIG1        0.0742
     42 O          -1.3726   -1.8427   -2.1973 O.3     1  LIG1       -0.4573
     43 C          -2.3163   -2.8678   -2.1270 C.2     1  LIG1        0.3348
     44 O          -2.0702   -4.0322   -2.0895 O.2     1  LIG1       -0.2453
     45 C          -3.6868   -2.2554   -1.8757 C.2     1  LIG1        0.0293
     46 C          -4.8126   -2.9717   -2.0718 C.2     1  LIG1       -0.0774
     47 C          -6.1989   -2.4224   -1.8696 C.3     1  LIG1       -0.0461
     48 C          -3.7420   -0.8765   -1.2927 C.3     1  LIG1       -0.0333
     49 O           2.1483   -1.2134   -4.5269 O.3     1  LIG1       -0.4602
     50 C           1.2426   -1.6549   -5.4704 C.2     1  LIG1        0.3042
     51 O           0.5573   -2.6323   -5.4537 O.2     1  LIG1       -0.2512
     52 C           1.1516   -0.6349   -6.5680 C.3     1  LIG1        0.0332
     53 C          -1.0505   -1.0678    0.2817 C.3     1  LIG1        0.0613
     54 O          -0.7109   -1.5014    1.5960 O.3     1  LIG1       -0.3391
     55 C           0.6162   -1.9458    1.5798 C.3     1  LIG1        0.2720
     56 C           1.4050   -2.2880    2.8982 C.2     1  LIG1        0.3675
     57 O           1.0144   -2.1129    4.0551 O.2     1  LIG1       -0.2447
     58 O           2.5948   -2.8435    2.5631 O.3     1  LIG1       -0.4642
     59 C           3.7444   -2.4168    3.3054 C.3     1  LIG1        0.0818
     60 O           0.5579   -3.2729    0.9275 O.3     1  LIG1       -0.3560
     61 H           3.6833   -0.4937    1.6369 H       1  LIG1        0.0237
     62 H           2.7739   -0.1206    3.1546 H       1  LIG1        0.0237
     63 H           3.6707    1.0990    2.3396 H       1  LIG1        0.0237
     64 H           2.9478    3.3150    3.1514 H       1  LIG1        0.0258
     65 H           1.7880    4.1842    4.1559 H       1  LIG1        0.0258
     66 H           1.8155    4.4974    2.4276 H       1  LIG1        0.0258
     67 H          -1.0623    3.0863    1.1806 H       1  LIG1        0.0296
     68 H          -2.4045    2.5748    2.2360 H       1  LIG1        0.0296
     69 H          -2.6629    3.1053    5.7449 H       1  LIG1        0.2109
     70 H           0.1433    3.4672    6.1944 H       1  LIG1        0.0633
     71 H           0.3317    0.9950    7.0854 H       1  LIG1        0.1022
     72 H           3.3142    2.8524   -0.3202 H       1  LIG1        0.2099
     73 H           3.3270    0.8347   -2.4333 H       1  LIG1        0.0572
     74 H           2.6936    1.7665   -3.7499 H       1  LIG1        0.0572
     75 H          -1.5125    1.8399   -5.4004 H       1  LIG1        0.0661
     76 H          -2.7353    0.8435   -4.5860 H       1  LIG1        0.0661
     77 H          -1.8287    0.1783   -5.9543 H       1  LIG1        0.0661
     78 H           1.6992   -3.0396   -2.2969 H       1  LIG1        0.0337
     79 H           0.4175   -2.8405   -3.4169 H       1  LIG1        0.0337
     80 H          -4.7549   -4.0038   -2.4144 H       1  LIG1        0.0574
     81 H          -6.4848   -1.8455   -2.7557 H       1  LIG1        0.0272
     82 H          -6.2820   -1.7737   -0.9899 H       1  LIG1        0.0272
     83 H          -6.9275   -3.2258   -1.7340 H       1  LIG1        0.0272
     84 H          -3.5413   -0.9525   -0.2205 H       1  LIG1        0.0280
     85 H          -4.7143   -0.3894   -1.3516 H       1  LIG1        0.0280
     86 H          -3.0296   -0.2063   -1.7780 H       1  LIG1        0.0280
     87 H           1.0403   -1.1601   -7.5096 H       1  LIG1        0.0342
     88 H           2.0232    0.0149   -6.5707 H       1  LIG1        0.0342
     89 H           0.2638   -0.0330   -6.3969 H       1  LIG1        0.0342
     90 H          -1.6716   -1.9080   -0.0078 H       1  LIG1        0.0568
     91 H          -1.7521   -0.2380    0.2203 H       1  LIG1        0.0568
     92 H           4.2266   -3.2225    3.8445 H       1  LIG1        0.0661
     93 H           3.5135   -1.6136    4.0112 H       1  LIG1        0.0661
     94 H           4.4619   -2.0529    2.5615 H       1  LIG1        0.0661
     95 H           0.0726   -3.8547    1.5413 H       1  LIG1        0.2133
@<TRIPOS>BOND
     1     3     4    1
     2     4     5    1
     3     3     5    1
     4     4     7    1
     5     7     9    1
     6     9    10    1
     7     3    10    1
     8    10    12    1
     9    12    13    1
    10    13    15    1
    11     7    15    1
    12    15    17    1
    13    17    18    2
    14    18    19    1
    15    13    19    1
    16     2    20    1
    17    20    21    1
    18    20    22    1
    19    22    23    1
    20    23    24    1
    21    23    25    1
    22    25    26    1
    23    25    27    1
    24    27    28    1
    25     2    27    1
    26    27    29    1
    27    25    30    1
    28    30    31    1
    29    31    32    1
    30    23    32    1
    31    32    33    1
    32    33    34    2
    33    33    35    1
    34    35    36    1
    35    32    37    1
    36    37    38    1
    37    37    39    1
    38    39    40    1
    39    40    41    1
    40    22    40    1
    41    40    42    1
    42    42    43    1
    43    43    44    2
    44    43    45    1
    45    45    46    2
    46    46    47    1
    47    45    48    1
    48    37    49    1
    49    49    50    1
    50    50    51    2
    51    50    52    1
    52    22    53    1
    53    53    54    1
    54    54    55    1
    55    20    55    1
    56    56    57    2
    57    56    58    1
    58    58    59    1
    59     4     6    1
    60     7     8    1
    61    10    11    1
    62    13    14    1
    63    15    16    1
    64     2     3    1
    65     2     1    1
    66    55    60    1
    67    55    56    1
    68     1    61    1
    69     1    62    1
    70     1    63    1
    71     6    64    1
    72     6    65    1
    73     6    66    1
    74     9    67    1
    75     9    68    1
    76    16    69    1
    77    17    70    1
    78    18    71    1
    79    29    72    1
    80    31    73    1
    81    31    74    1
    82    36    75    1
    83    36    76    1
    84    36    77    1
    85    39    78    1
    86    39    79    1
    87    46    80    1
    88    47    81    1
    89    47    82    1
    90    47    83    1
    91    48    84    1
    92    48    85    1
    93    48    86    1
    94    52    87    1
    95    52    88    1
    96    52    89    1
    97    53    90    1
    98    53    91    1
    99    59    92    1
   100    59    93    1
   101    59    94    1
   102    60    95    1
