REMARK  Name = NuBBE_1375
REMARK  7 active torsions:
REMARK  status: ('A' for Active; 'I' for Inactive)
REMARK    1  A    between atoms: C_1  and  C_2
REMARK    2  A    between atoms: C_2  and  C_3
REMARK    3  A    between atoms: C_3  and  C_4
REMARK    4  A    between atoms: C_4  and  C_5
REMARK    5  A    between atoms: C_5  and  C_6
REMARK    6  A    between atoms: C_6  and  C_7
REMARK    7  A    between atoms: C_7  and  O_8
REMARK                            x       y       z     vdW  Elec       q    Type
REMARK                         _______ _______ _______ _____ _____    ______ ____
ROOT
ATOM      1  C   LIG A   1       1.377  -1.188   0.082  0.00  0.00    +0.002 C 
ENDROOT
BRANCH   1   2
ATOM      2  C   LIG A   1       0.375  -0.360   0.890  0.00  0.00    +0.000 C 
BRANCH   2   3
ATOM      3  C   LIG A   1      -1.084  -0.732   0.607  0.00  0.00    -0.000 C 
BRANCH   3   5
ATOM      4  C   LIG A   1      -1.996   1.590   1.095  0.00  0.00    +0.004 C 
ATOM      5  C   LIG A   1      -2.079   0.104   1.414  0.00  0.00    -0.003 C 
ENDBRANCH   3   5
ENDBRANCH   2   3
ENDBRANCH   1   2
BRANCH   1   6
ATOM      6  C   LIG A   1       1.229  -1.053  -1.440  0.00  0.00    +0.028 C 
BRANCH   6   7
ATOM      7  C   LIG A   1       1.394   0.376  -1.943  0.00  0.00    +0.156 C 
BRANCH   7   8
ATOM      8  O   LIG A   1       2.684   0.856  -1.586  0.00  0.00    -0.395 OA
ATOM      9  H   LIG A   1       2.601   1.796  -1.392  0.00  0.00    +0.209 HD
ENDBRANCH   7   8
ENDBRANCH   6   7
ENDBRANCH   1   6
TORSDOF 6
