REMARK  Name = NuBBE_668
REMARK  3 active torsions:
REMARK  status: ('A' for Active; 'I' for Inactive)
REMARK    1  A    between atoms: C_1  and  C_2
REMARK    2  A    between atoms: C_4  and  O_5
REMARK    3  A    between atoms: C_7  and  O_8
REMARK                            x       y       z     vdW  Elec       q    Type
REMARK                         _______ _______ _______ _____ _____    ______ ____
ROOT
ATOM      1  C   LIG A   1      -2.499  -0.090  -0.003  0.00  0.00    +0.044 C 
ATOM      2  C   LIG A   1      -1.000  -0.055  -0.002  0.00  0.00    -0.044 A 
ATOM      3  C   LIG A   1      -0.305   1.162  -0.002  0.00  0.00    +0.049 A 
ATOM      4  C   LIG A   1       1.089   1.164   0.000  0.00  0.00    +0.121 A 
ATOM      5  C   LIG A   1       1.810  -0.024   0.003  0.00  0.00    +0.090 A 
ATOM      6  C   LIG A   1       1.118  -1.230   0.002  0.00  0.00    +0.121 A 
ATOM      7  C   LIG A   1      -0.274  -1.255  -0.000  0.00  0.00    +0.049 A 
ENDROOT
BRANCH   4   8
ATOM      8  O   LIG A   1       1.795   2.332  -0.000  0.00  0.00    -0.507 OA
ATOM      9  H   LIG A   1       1.166   3.073  -0.006  0.00  0.00    +0.292 HD
ENDBRANCH   4   8
BRANCH   6  10
ATOM     10  O   LIG A   1       1.775  -2.425   0.005  0.00  0.00    -0.507 OA
ATOM     11  H   LIG A   1       2.731  -2.249   0.009  0.00  0.00    +0.292 HD
ENDBRANCH   6  10
TORSDOF 2
