@<TRIPOS>MOLECULE
NuBBE_1007
 24 25 0 0 0
SMALL
GASTEIGER

@<TRIPOS>ATOM
      1 O          -2.6269    0.8725    1.3233 O.2     1  LIG1       -0.2448
      2 C          -1.4803    0.9487    0.8999 C.2     1  LIG1        0.3434
      3 C          -0.7058   -0.2820    0.5974 C.ar    1  LIG1        0.1070
      4 C          -1.3132   -1.5397    0.7330 C.ar    1  LIG1        0.1313
      5 O          -2.6261   -1.7115    1.0825 O.3     1  LIG1       -0.5059
      6 C          -0.5829   -2.7055    0.5151 C.ar    1  LIG1       -0.0159
      7 C           0.7640   -2.6273    0.1655 C.ar    1  LIG1       -0.0164
      8 C           1.3653   -1.3786    0.0183 C.ar    1  LIG1        0.1211
      9 O           2.6864   -1.2883   -0.3158 O.3     1  LIG1       -0.5065
     10 C           0.6409   -0.1973    0.2121 C.ar    1  LIG1        0.0150
     11 C           1.2897    1.1499    0.0757 C.3     1  LIG1        0.0137
     12 H           2.0394    1.1527   -0.7239 H       1  LIG1        0.0350
     13 H           1.7997    1.3672    1.0222 H       1  LIG1        0.0350
     14 C           0.2470    2.2275   -0.2020 C.3     1  LIG1        0.1047
     15 H           0.7161    3.2041   -0.0323 H       1  LIG1        0.0734
     16 C          -0.2988    2.2211   -1.6290 C.3     1  LIG1       -0.0274
     17 O          -0.8514    2.1372    0.7240 O.3     1  LIG1       -0.4577
     18 H          -3.0228   -0.8276    1.2555 H       1  LIG1        0.2922
     19 H          -1.0641   -3.6734    0.6307 H       1  LIG1        0.0655
     20 H           1.3232   -3.5461    0.0154 H       1  LIG1        0.0655
     21 H           3.0562   -2.1843   -0.3917 H       1  LIG1        0.2921
     22 H          -0.8326    1.2939   -1.8614 H       1  LIG1        0.0265
     23 H           0.5020    2.3543   -2.3615 H       1  LIG1        0.0265
     24 H          -1.0250    3.0325   -1.7528 H       1  LIG1        0.0265
@<TRIPOS>BOND
     1     1     2    2
     2     2     3    1
     3     3     4   ar
     4     4     5    1
     5     4     6   ar
     6     6     7   ar
     7     7     8   ar
     8     8     9    1
     9     8    10   ar
    10     3    10   ar
    11    10    11    1
    12    11    12    1
    13    11    13    1
    14    11    14    1
    15    14    17    1
    16     2    17    1
    17    14    16    1
    18    14    15    1
    19     5    18    1
    20     6    19    1
    21     7    20    1
    22     9    21    1
    23    16    22    1
    24    16    23    1
    25    16    24    1
