@<TRIPOS>MOLECULE
NuBBE_2128
 27 27 0 0 0
SMALL
GASTEIGER

@<TRIPOS>ATOM
      1 C          -3.3690    0.4474   -0.8361 C.3     1  LIG1       -0.0653
      2 C          -2.1980    0.7574    0.0849 C.3     1  LIG1       -0.0557
      3 C          -1.1549   -0.3627    0.0531 C.3     1  LIG1       -0.0505
      4 C           0.0337   -0.1349    1.0134 C.3     1  LIG1       -0.0410
      5 C           0.9735   -1.3553    1.0169 C.3     1  LIG1       -0.0502
      6 C           1.7908   -1.4836   -0.2696 C.3     1  LIG1       -0.0528
      7 C           2.5492   -0.1998   -0.5940 C.3     1  LIG1       -0.0530
      8 C           1.6390    1.0250   -0.5945 C.3     1  LIG1       -0.0528
      9 C           0.8482    1.1336    0.7074 C.3     1  LIG1       -0.0502
     10 H          -4.0940    1.2670   -0.8161 H       1  LIG1        0.0230
     11 H          -3.8814   -0.4688   -0.5270 H       1  LIG1        0.0230
     12 H          -3.0301    0.3203   -1.8697 H       1  LIG1        0.0230
     13 H          -2.5678    0.8947    1.1073 H       1  LIG1        0.0263
     14 H          -1.7542    1.7053   -0.2348 H       1  LIG1        0.0263
     15 H          -0.8028   -0.4904   -0.9767 H       1  LIG1        0.0268
     16 H          -1.6481   -1.3044    0.3277 H       1  LIG1        0.0268
     17 H          -0.3798   -0.0317    2.0256 H       1  LIG1        0.0301
     18 H           0.4013   -2.2764    1.1821 H       1  LIG1        0.0268
     19 H           1.6657   -1.2652    1.8644 H       1  LIG1        0.0268
     20 H           1.1319   -1.7412   -1.1065 H       1  LIG1        0.0265
     21 H           2.5024   -2.3112   -0.1681 H       1  LIG1        0.0265
     22 H           3.0384   -0.2965   -1.5700 H       1  LIG1        0.0265
     23 H           3.3457   -0.0557    0.1467 H       1  LIG1        0.0265
     24 H           0.9529    0.9765   -1.4479 H       1  LIG1        0.0265
     25 H           2.2443    1.9285   -0.7307 H       1  LIG1        0.0265
     26 H           0.2077    2.0200    0.6807 H       1  LIG1        0.0268
     27 H           1.5553    1.3019    1.5315 H       1  LIG1        0.0268
@<TRIPOS>BOND
     1     1     2    1
     2     2     3    1
     3     3     4    1
     4     4     5    1
     5     5     6    1
     6     6     7    1
     7     7     8    1
     8     8     9    1
     9     4     9    1
    10     1    10    1
    11     1    11    1
    12     1    12    1
    13     2    13    1
    14     2    14    1
    15     3    15    1
    16     3    16    1
    17     4    17    1
    18     5    18    1
    19     5    19    1
    20     6    20    1
    21     6    21    1
    22     7    22    1
    23     7    23    1
    24     8    24    1
    25     8    25    1
    26     9    26    1
    27     9    27    1
