REMARK  Name = NuBBE_272
REMARK  16 active torsions:
REMARK  status: ('A' for Active; 'I' for Inactive)
REMARK    1  A    between atoms: O_1  and  C_2
REMARK    2  A    between atoms: C_4  and  C_5
REMARK    3  A    between atoms: C_6  and  C_7
REMARK    4  A    between atoms: C_7  and  O_8
REMARK    5  A    between atoms: O_8  and  C_9
REMARK    6  A    between atoms: C_12  and  C_23
REMARK    7  A    between atoms: C_14  and  O_22
REMARK    8  A    between atoms: C_16  and  O_21
REMARK    9  A    between atoms: C_18  and  O_20
REMARK   10  A    between atoms: C_23  and  O_24
REMARK   11  A    between atoms: O_24  and  C_25
REMARK   12  A    between atoms: C_25  and  C_26
REMARK   13  A    between atoms: C_27  and  C_28
REMARK   14  A    between atoms: C_31  and  O_35
REMARK   15  A    between atoms: C_32  and  O_33
REMARK   16  A    between atoms: C_40  and  O_41
REMARK                            x       y       z     vdW  Elec       q    Type
REMARK                         _______ _______ _______ _____ _____    ______ ____
ROOT
ATOM      1  C   LIG A   1      -0.951  -0.079  -2.353  0.00  0.00    +0.343 C 
ATOM      2  O   LIG A   1      -0.326   0.478  -1.194  0.00  0.00    -0.330 OA
ATOM      3  C   LIG A   1      -0.880  -0.006   0.029  0.00  0.00    +0.191 C 
ATOM      4  C   LIG A   1      -0.613  -1.518   0.146  0.00  0.00    +0.178 C 
ATOM      5  C   LIG A   1      -1.254  -2.217  -1.058  0.00  0.00    +0.180 C 
ATOM      6  C   LIG A   1      -0.782  -1.607  -2.374  0.00  0.00    +0.214 C 
ENDROOT
BRANCH   4   7
ATOM      7  O   LIG A   1      -1.159  -2.111   1.325  0.00  0.00    -0.386 OA
ATOM      8  H   LIG A   1      -0.665  -1.755   2.088  0.00  0.00    +0.210 HD
ENDBRANCH   4   7
BRANCH   5   9
ATOM      9  O   LIG A   1      -0.921  -3.616  -1.049  0.00  0.00    -0.386 OA
ATOM     10  H   LIG A   1      -1.122  -3.917  -0.139  0.00  0.00    +0.210 HD
ENDBRANCH   5   9
BRANCH   6  11
ATOM     11  O   LIG A   1      -1.519  -2.197  -3.455  0.00  0.00    -0.383 OA
ATOM     12  H   LIG A   1      -1.461  -3.161  -3.308  0.00  0.00    +0.210 HD
ENDBRANCH   6  11
BRANCH   3  13
ATOM     13  C   LIG A   1      -0.236   0.810   1.157  0.00  0.00    +0.267 C 
BRANCH  13  14
ATOM     14  O   LIG A   1      -0.697   0.414   2.447  0.00  0.00    -0.459 OA
BRANCH  14  15
ATOM     15  C   LIG A   1      -1.928   0.873   2.793  0.00  0.00    +0.332 C 
ATOM     16  O   LIG A   1      -2.650   1.587   2.120  0.00  0.00    -0.246 OA
BRANCH  15  17
ATOM     17  C   LIG A   1      -2.338   0.291   4.084  0.00  0.00    +0.092 C 
ATOM     18  C   LIG A   1      -1.441  -0.170   4.968  0.00  0.00    +0.015 C 
BRANCH  18  19
ATOM     19  C   LIG A   1      -1.832  -0.813   6.218  0.00  0.00    -0.021 A 
ATOM     20  C   LIG A   1      -1.987  -0.056   7.389  0.00  0.00    +0.012 A 
ATOM     21  C   LIG A   1      -2.330  -0.680   8.592  0.00  0.00    +0.050 A 
ATOM     22  C   LIG A   1      -2.513  -2.058   8.612  0.00  0.00    +0.158 A 
ATOM     23  C   LIG A   1      -2.360  -2.806   7.448  0.00  0.00    +0.159 A 
ATOM     24  C   LIG A   1      -2.020  -2.197   6.250  0.00  0.00    +0.057 A 
BRANCH  22  25
ATOM     25  O   LIG A   1      -2.843  -2.725   9.759  0.00  0.00    -0.503 OA
ATOM     26  H   LIG A   1      -2.897  -2.076  10.481  0.00  0.00    +0.292 HD
ENDBRANCH  22  25
BRANCH  23  27
ATOM     27  O   LIG A   1      -2.539  -4.159   7.476  0.00  0.00    -0.503 OA
ATOM     28  H   LIG A   1      -2.770  -4.357   8.406  0.00  0.00    +0.292 HD
ENDBRANCH  23  27
ENDBRANCH  18  19
ENDBRANCH  15  17
ENDBRANCH  14  15
ENDBRANCH  13  14
ENDBRANCH   3  13
BRANCH   1  29
ATOM     29  O   LIG A   1      -0.246   0.423  -3.485  0.00  0.00    -0.429 OA
BRANCH  29  30
ATOM     30  C   LIG A   1      -0.566   1.677  -3.854  0.00  0.00    +0.334 C 
ATOM     31  O   LIG A   1      -1.577   2.301  -3.561  0.00  0.00    -0.245 OA
BRANCH  30  33
ATOM     32  C   LIG A   1       1.550   1.529  -5.098  0.00  0.00    +0.015 C 
ATOM     33  C   LIG A   1       0.577   2.284  -4.564  0.00  0.00    +0.092 C 
BRANCH  32  36
ATOM     34  C   LIG A   1       5.103   1.692  -6.262  0.00  0.00    +0.159 A 
ATOM     35  C   LIG A   1       3.923   1.248  -5.672  0.00  0.00    +0.057 A 
ATOM     36  C   LIG A   1       2.769   2.045  -5.722  0.00  0.00    -0.021 A 
ATOM     37  C   LIG A   1       2.809   3.272  -6.395  0.00  0.00    +0.012 A 
ATOM     38  C   LIG A   1       3.995   3.715  -6.984  0.00  0.00    +0.050 A 
ATOM     39  C   LIG A   1       5.140   2.925  -6.910  0.00  0.00    +0.158 A 
BRANCH  39  40
ATOM     40  O   LIG A   1       6.308   3.351  -7.474  0.00  0.00    -0.503 OA
ATOM     41  H   LIG A   1       6.168   4.230  -7.857  0.00  0.00    +0.292 HD
ENDBRANCH  39  40
BRANCH  34  42
ATOM     42  O   LIG A   1       6.233   0.924  -6.206  0.00  0.00    -0.503 OA
ATOM     43  H   LIG A   1       6.036   0.103  -5.730  0.00  0.00    +0.292 HD
ENDBRANCH  34  42
ENDBRANCH  32  36
ENDBRANCH  30  33
ENDBRANCH  29  30
ENDBRANCH   1  29
TORSDOF 16
