REMARK  Name = NuBBE_962
REMARK  15 active torsions:
REMARK  status: ('A' for Active; 'I' for Inactive)
REMARK    1  A    between atoms: C_1  and  O_2
REMARK    2  A    between atoms: O_2  and  C_3
REMARK    3  A    between atoms: C_3  and  C_4
REMARK    4  A    between atoms: C_4  and  C_5
REMARK    5  A    between atoms: C_7  and  C_45
REMARK    6  A    between atoms: C_16  and  O_21
REMARK    7  A    between atoms: C_18  and  C_19
REMARK    8  A    between atoms: C_18  and  C_20
REMARK    9  A    between atoms: O_21  and  C_22
REMARK   10  A    between atoms: C_22  and  C_23
REMARK   11  A    between atoms: C_23  and  C_24
REMARK   12  A    between atoms: C_24  and  C_25
REMARK   13  A    between atoms: C_26  and  C_27
REMARK   14  A    between atoms: C_33  and  C_35
REMARK   15  A    between atoms: C_41  and  C_42
REMARK                            x       y       z     vdW  Elec       q    Type
REMARK                         _______ _______ _______ _____ _____    ______ ____
ROOT
ATOM      1  C   LIG A   1      -0.389  -0.615  -1.743  0.00  0.00    +0.021 C 
ATOM      2  C   LIG A   1       1.014  -1.345  -1.488  0.00  0.00    +0.037 C 
ATOM      3  C   LIG A   1       1.341  -2.046  -0.125  0.00  0.00    +0.028 C 
ATOM      4  C   LIG A   1       1.424  -1.113   1.065  0.00  0.00    -0.064 C 
ATOM      5  C   LIG A   1       2.147   0.210   0.834  0.00  0.00    +0.044 C 
ATOM      6  C   LIG A   1       1.952   0.855  -0.551  0.00  0.00    +0.089 C 
ATOM      7  C   LIG A   1       2.094  -0.247  -1.562  0.00  0.00    +0.146 C 
ATOM      8  O   LIG A   1       3.074  -0.292  -2.305  0.00  0.00    -0.296 OA
ATOM      9  C   LIG A   1       0.652   1.626  -0.881  0.00  0.00    +0.135 C 
ATOM     10  C   LIG A   1      -0.652   0.730  -0.872  0.00  0.00    -0.004 C 
ATOM     11  C   LIG A   1      -1.839   1.511  -1.527  0.00  0.00    +0.014 C 
ATOM     12  C   LIG A   1      -1.170   0.594   0.573  0.00  0.00    +0.014 C 
ATOM     13  C   LIG A   1       1.020  -1.516   2.291  0.00  0.00    -0.050 C 
ATOM     14  C   LIG A   1       1.729  -1.032   3.527  0.00  0.00    +0.152 C 
ATOM     15  C   LIG A   1       2.191  -2.239   4.343  0.00  0.00    +0.312 C 
ATOM     16  O   LIG A   1       1.268  -3.208   4.582  0.00  0.00    -0.455 OA
ATOM     17  C   LIG A   1      -0.059  -3.035   4.045  0.00  0.00    +0.219 C 
ATOM     18  O   LIG A   1       3.333  -2.339   4.783  0.00  0.00    -0.251 OA
ATOM     19  C   LIG A   1       0.034  -2.662   2.514  0.00  0.00    +0.031 C 
ATOM     20  C   LIG A   1      -1.384  -2.305   2.030  0.00  0.00    +0.020 C 
ATOM     21  C   LIG A   1       0.558  -3.822   1.627  0.00  0.00    +0.015 C 
ATOM     22  C   LIG A   1       0.663  -3.415   0.136  0.00  0.00    +0.010 C 
ATOM     23  C   LIG A   1       1.337  -2.333  -2.631  0.00  0.00    +0.020 C 
ENDROOT
BRANCH  17  24
ATOM     24  C   LIG A   1      -0.902  -2.122   4.945  0.00  0.00    +0.031 A 
ATOM     25  C   LIG A   1      -2.276  -2.169   5.134  0.00  0.00    +0.202 A 
ATOM     26  O   LIG A   1      -2.700  -1.194   5.979  0.00  0.00    -0.471 OA
ATOM     27  C   LIG A   1      -1.603  -0.518   6.386  0.00  0.00    +0.195 A 
ATOM     28  C   LIG A   1      -0.479  -1.066   5.819  0.00  0.00    +0.048 A 
ENDBRANCH  17  24
BRANCH   1  29
ATOM     29  C   LIG A   1      -1.671  -1.508  -1.957  0.00  0.00    +0.125 C 
BRANCH  29  30
ATOM     30  C   LIG A   1      -1.845  -2.293  -3.257  0.00  0.00    +0.307 C 
ATOM     31  O   LIG A   1      -1.048  -2.332  -4.210  0.00  0.00    -0.251 OA
BRANCH  30  33
ATOM     32  C   LIG A   1      -3.445  -3.654  -4.433  0.00  0.00    +0.280 C 
ATOM     33  O   LIG A   1      -3.056  -2.927  -3.244  0.00  0.00    -0.468 OA
ENDBRANCH  30  33
ENDBRANCH  29  30
ENDBRANCH   1  29
BRANCH   9  34
ATOM     34  O   LIG A   1       0.712   2.231  -2.198  0.00  0.00    -0.367 OA
BRANCH  34  35
ATOM     35  C   LIG A   1       1.756   3.149  -2.470  0.00  0.00    +0.239 C 
BRANCH  35  36
ATOM     36  C   LIG A   1       1.901   4.454  -1.666  0.00  0.00    +0.184 C 
ATOM     37  O   LIG A   1       2.802   4.569  -0.831  0.00  0.00    -0.290 OA
BRANCH  36  38
ATOM     38  C   LIG A   1       1.009   5.639  -1.958  0.00  0.00    -0.010 C 
ATOM     39  C   LIG A   1       1.640   6.961  -1.608  0.00  0.00    +0.047 C 
ATOM     40  C   LIG A   1      -0.222   5.475  -2.481  0.00  0.00    -0.024 C 
ATOM     41  C   LIG A   1      -1.173   6.557  -2.900  0.00  0.00    +0.035 C 
ENDBRANCH  36  38
ENDBRANCH  35  36
ENDBRANCH  34  35
ENDBRANCH   9  34
TORSDOF 8
