REMARK  Name = NuBBE_7
REMARK  5 active torsions:
REMARK  status: ('A' for Active; 'I' for Inactive)
REMARK    1  A    between atoms: C_1  and  C_2
REMARK    2  A    between atoms: C_4  and  O_5
REMARK    3  A    between atoms: C_9  and  O_11
REMARK    4  A    between atoms: C_20  and  O_22
REMARK    5  A    between atoms: C_23  and  O_25
REMARK                            x       y       z     vdW  Elec       q    Type
REMARK                         _______ _______ _______ _____ _____    ______ ____
ROOT
ATOM      1  C   LIG A   1      -5.125   0.758  -0.434  0.00  0.00    +0.044 C 
ATOM      2  C   LIG A   1      -3.630   0.819  -0.471  0.00  0.00    -0.046 A 
ATOM      3  C   LIG A   1      -2.963   2.023  -0.231  0.00  0.00    +0.049 A 
ATOM      4  C   LIG A   1      -1.571   2.056  -0.239  0.00  0.00    +0.123 A 
ATOM      5  C   LIG A   1      -2.882  -0.338  -0.721  0.00  0.00    +0.015 A 
ATOM      6  C   LIG A   1      -1.477  -0.295  -0.705  0.00  0.00    +0.027 A 
ATOM      7  C   LIG A   1      -0.805   0.905  -0.480  0.00  0.00    +0.033 A 
ATOM      8  C   LIG A   1       0.699   0.973  -0.393  0.00  0.00    +0.155 C 
ATOM      9  C   LIG A   1       1.425  -0.265  -0.962  0.00  0.00    +0.064 C 
ATOM     10  C   LIG A   1       0.760  -1.576  -0.534  0.00  0.00    +0.069 C 
ATOM     11  C   LIG A   1      -0.721  -1.567  -0.863  0.00  0.00    +0.167 C 
ATOM     12  O   LIG A   1      -1.310  -2.595  -1.182  0.00  0.00    -0.292 OA
ATOM     13  C   LIG A   1       0.967  -1.911   0.943  0.00  0.00    +0.014 C 
ATOM     14  C   LIG A   1       2.441  -1.895   1.342  0.00  0.00    +0.034 C 
ATOM     15  C   LIG A   1       3.202  -0.651   0.882  0.00  0.00    +0.143 C 
ATOM     16  C   LIG A   1       2.925  -0.314  -0.604  0.00  0.00    +0.149 C 
ENDROOT
BRANCH   4  17
ATOM     17  O   LIG A   1      -0.918   3.222   0.053  0.00  0.00    -0.506 OA
ATOM     18  H   LIG A   1      -1.567   3.926   0.225  0.00  0.00    +0.292 HD
ENDBRANCH   4  17
BRANCH   8  19
ATOM     19  O   LIG A   1       1.059   1.166   0.974  0.00  0.00    -0.387 OA
ATOM     20  H   LIG A   1       0.251   1.349   1.484  0.00  0.00    +0.210 HD
ENDBRANCH   8  19
BRANCH  15  21
ATOM     21  O   LIG A   1       4.602  -0.881   1.073  0.00  0.00    -0.389 OA
ATOM     22  H   LIG A   1       4.785  -0.751   2.019  0.00  0.00    +0.210 HD
ENDBRANCH  15  21
BRANCH  16  23
ATOM     23  O   LIG A   1       3.535   0.924  -0.988  0.00  0.00    -0.389 OA
ATOM     24  H   LIG A   1       3.400   1.551  -0.256  0.00  0.00    +0.210 HD
ENDBRANCH  16  23
TORSDOF 4
