@<TRIPOS>MOLECULE
NuBBE_1499
 39 40 0 0 0
SMALL
GASTEIGER

@<TRIPOS>ATOM
      1 C          -2.2761    0.3672   -2.6184 C.3     1  LIG1       -0.0595
      2 C          -0.9482    0.8838   -2.0724 C.3     1  LIG1       -0.0310
      3 C          -0.8988    2.4164   -2.2574 C.3     1  LIG1       -0.0595
      4 C          -0.6540    0.1649   -0.6704 C.3     1  LIG1       -0.0291
      5 H          -0.7876   -0.9213   -0.8226 H       1  LIG1        0.0312
      6 C           0.8190    0.6055   -0.9219 C.3     1  LIG1       -0.0163
      7 H           0.9414    1.6921   -0.8032 H       1  LIG1        0.0349
      8 C           0.4857    0.2520   -2.4187 C.3     1  LIG1       -0.0408
      9 C           1.9015   -0.0397   -0.1367 C.2     1  LIG1       -0.0729
     10 C           2.5865    0.7619    0.7074 C.2     1  LIG1       -0.0992
     11 C           2.1420   -1.5267   -0.1366 C.3     1  LIG1       -0.0283
     12 C           1.2070   -2.3179    0.8012 C.3     1  LIG1       -0.0308
     13 C           0.9348   -1.6065    2.1031 C.2     1  LIG1       -0.0847
     14 C          -0.1590   -0.8650    2.4144 C.2     1  LIG1       -0.0765
     15 C          -1.3966   -0.7315    1.5584 C.3     1  LIG1       -0.0317
     16 C          -1.4056    0.4899    0.6105 C.3     1  LIG1       -0.0455
     17 C          -0.2000   -0.0627    3.6857 C.3     1  LIG1       -0.0438
     18 H          -2.3959   -0.7113   -2.4864 H       1  LIG1        0.0235
     19 H          -2.3946    0.6001   -3.6805 H       1  LIG1        0.0235
     20 H          -3.1048    0.8538   -2.0842 H       1  LIG1        0.0235
     21 H           0.1243    2.8017   -2.3490 H       1  LIG1        0.0235
     22 H          -1.3825    2.9326   -1.4245 H       1  LIG1        0.0235
     23 H          -1.3969    2.7146   -3.1874 H       1  LIG1        0.0235
     24 H           0.4627   -0.8185   -2.6669 H       1  LIG1        0.0276
     25 H           1.0752    0.7640   -3.1836 H       1  LIG1        0.0276
     26 H           2.3667    1.8218    0.8055 H       1  LIG1        0.0534
     27 H           3.3314    0.3665    1.3901 H       1  LIG1        0.0534
     28 H           3.1785   -1.7129    0.1833 H       1  LIG1        0.0313
     29 H           2.0839   -1.9245   -1.1554 H       1  LIG1        0.0313
     30 H           1.6747   -3.2846    1.0285 H       1  LIG1        0.0310
     31 H           0.2793   -2.5658    0.2700 H       1  LIG1        0.0310
     32 H           1.7661   -1.6212    2.8041 H       1  LIG1        0.0572
     33 H          -2.2621   -0.6558    2.2288 H       1  LIG1        0.0310
     34 H          -1.5765   -1.6604    1.0006 H       1  LIG1        0.0310
     35 H          -1.0159    1.3921    1.0915 H       1  LIG1        0.0271
     36 H          -2.4546    0.6876    0.3575 H       1  LIG1        0.0271
     37 H           0.7533   -0.0780    4.2228 H       1  LIG1        0.0274
     38 H          -0.9760   -0.4487    4.3540 H       1  LIG1        0.0274
     39 H          -0.4284    0.9847    3.4589 H       1  LIG1        0.0274
@<TRIPOS>BOND
     1     2     4    1
     2     4     6    1
     3     6     8    1
     4     2     8    1
     5     6     9    1
     6     9    11    1
     7    11    12    1
     8    12    13    1
     9    13    14    2
    10    14    15    1
    11    15    16    1
    12     4    16    1
    13     1     2    1
    14     2     3    1
    15     4     5    1
    16     6     7    1
    17     9    10    2
    18    14    17    1
    19     1    18    1
    20     1    19    1
    21     1    20    1
    22     3    21    1
    23     3    22    1
    24     3    23    1
    25     8    24    1
    26     8    25    1
    27    10    26    1
    28    10    27    1
    29    11    28    1
    30    11    29    1
    31    12    30    1
    32    12    31    1
    33    13    32    1
    34    15    33    1
    35    15    34    1
    36    16    35    1
    37    16    36    1
    38    17    37    1
    39    17    38    1
    40    17    39    1
