REMARK  Name = NuBBE_394
REMARK  2 active torsions:
REMARK  status: ('A' for Active; 'I' for Inactive)
REMARK    1  A    between atoms: C_1  and  C_2
REMARK    2  A    between atoms: C_4  and  O_5
REMARK                            x       y       z     vdW  Elec       q    Type
REMARK                         _______ _______ _______ _____ _____    ______ ____
ROOT
ATOM      1  C   LIG A   1      -4.382   1.062   0.006  0.00  0.00    +0.044 C 
ATOM      2  C   LIG A   1      -2.881   1.056   0.004  0.00  0.00    -0.046 A 
ATOM      3  C   LIG A   1      -2.147   2.245   0.002  0.00  0.00    +0.049 A 
ATOM      4  C   LIG A   1      -0.746   2.215  -0.000  0.00  0.00    +0.129 A 
ATOM      5  C   LIG A   1      -2.194  -0.160   0.004  0.00  0.00    +0.016 A 
ATOM      6  C   LIG A   1      -0.790  -0.190   0.002  0.00  0.00    +0.037 A 
ATOM      7  C   LIG A   1      -0.050   0.995   0.000  0.00  0.00    +0.074 A 
ATOM      8  C   LIG A   1       1.438   0.922  -0.001  0.00  0.00    +0.198 C 
ATOM      9  C   LIG A   1       2.098  -0.402  -0.002  0.00  0.00    +0.033 A 
ATOM     10  C   LIG A   1       1.346  -1.572  -0.001  0.00  0.00    +0.033 A 
ATOM     11  C   LIG A   1      -0.123  -1.507   0.002  0.00  0.00    +0.195 C 
ATOM     12  O   LIG A   1      -0.785  -2.539   0.003  0.00  0.00    -0.287 OA
ATOM     13  C   LIG A   1       1.982  -2.821  -0.002  0.00  0.00    +0.012 A 
ATOM     14  C   LIG A   1       3.375  -2.896  -0.004  0.00  0.00    +0.001 A 
ATOM     15  C   LIG A   1       4.133  -1.727  -0.005  0.00  0.00    +0.001 A 
ATOM     16  C   LIG A   1       3.499  -0.482  -0.004  0.00  0.00    +0.012 A 
ATOM     17  O   LIG A   1       2.149   1.919  -0.002  0.00  0.00    -0.286 OA
ENDROOT
BRANCH   4  18
ATOM     18  O   LIG A   1      -0.077   3.405  -0.003  0.00  0.00    -0.506 OA
ATOM     19  H   LIG A   1      -0.699   4.150  -0.008  0.00  0.00    +0.292 HD
ENDBRANCH   4  18
TORSDOF 1
