REMARK  Name = NuBBE_19
REMARK  8 active torsions:
REMARK  status: ('A' for Active; 'I' for Inactive)
REMARK    1  A    between atoms: C_1  and  O_2
REMARK    2  A    between atoms: O_2  and  C_3
REMARK    3  A    between atoms: C_4  and  O_5
REMARK    4  A    between atoms: O_5  and  C_6
REMARK    5  A    between atoms: C_7  and  O_8
REMARK    6  A    between atoms: O_8  and  C_9
REMARK    7  A    between atoms: C_11  and  C_12
REMARK    8  A    between atoms: C_13  and  C_14
REMARK                            x       y       z     vdW  Elec       q    Type
REMARK                         _______ _______ _______ _____ _____    ______ ____
ROOT
ATOM      1  C   LIG A   1      -2.381   0.128  -1.293  0.00  0.00    +0.166 A 
ATOM      2  C   LIG A   1      -2.825   1.452  -1.491  0.00  0.00    +0.203 A 
ATOM      3  C   LIG A   1      -2.133   2.501  -0.843  0.00  0.00    +0.166 A 
ATOM      4  C   LIG A   1      -0.975   2.222  -0.103  0.00  0.00    +0.057 A 
ATOM      5  C   LIG A   1      -0.500   0.920   0.038  0.00  0.00    -0.018 A 
ATOM      6  C   LIG A   1      -1.225  -0.122  -0.540  0.00  0.00    +0.057 A 
ENDROOT
BRANCH   1   8
ATOM      7  C   LIG A   1      -4.335  -1.079  -1.935  0.00  0.00    +0.277 C 
ATOM      8  O   LIG A   1      -2.920  -1.024  -1.814  0.00  0.00    -0.491 OA
ENDBRANCH   1   8
BRANCH   2   9
ATOM      9  O   LIG A   1      -3.964   1.620  -2.233  0.00  0.00    -0.488 OA
ATOM     10  C   LIG A   1      -4.092   2.743  -3.097  0.00  0.00    +0.277 C 
ENDBRANCH   2   9
BRANCH   3  11
ATOM     11  O   LIG A   1      -2.656   3.768  -0.916  0.00  0.00    -0.491 OA
ATOM     12  C   LIG A   1      -1.945   4.826  -0.287  0.00  0.00    +0.277 C 
ENDBRANCH   3  11
BRANCH   5  13
ATOM     13  C   LIG A   1       0.705   0.703   0.846  0.00  0.00    +0.013 C 
ATOM     14  C   LIG A   1       1.565  -0.292   0.589  0.00  0.00    +0.068 C 
BRANCH  14  15
ATOM     15  C   LIG A   1       2.739  -0.517   1.466  0.00  0.00    +0.246 C 
ATOM     16  N   LIG A   1       3.213  -1.833   1.583  0.00  0.00    -0.235 N 
ATOM     17  C   LIG A   1       4.320  -2.003   2.523  0.00  0.00    +0.121 C 
ATOM     18  C   LIG A   1       5.249  -3.163   2.188  0.00  0.00    +0.047 C 
ATOM     19  C   LIG A   1       4.477  -4.376   1.786  0.00  0.00    -0.020 C 
ATOM     20  C   LIG A   1       3.224  -4.279   1.332  0.00  0.00    +0.064 C 
ATOM     21  C   LIG A   1       2.544  -2.975   1.135  0.00  0.00    +0.246 C 
ATOM     22  O   LIG A   1       1.450  -3.014   0.562  0.00  0.00    -0.270 OA
ATOM     23  O   LIG A   1       3.231   0.435   2.071  0.00  0.00    -0.270 OA
ENDBRANCH  14  15
ENDBRANCH   5  13
TORSDOF 5
