REMARK  Name = NuBBE_2197
REMARK  5 active torsions:
REMARK  status: ('A' for Active; 'I' for Inactive)
REMARK    1  A    between atoms: C_1  and  C_2
REMARK    2  A    between atoms: C_10  and  C_11
REMARK    3  A    between atoms: C_10  and  C_13
REMARK    4  A    between atoms: C_17  and  C_18
REMARK    5  A    between atoms: C_17  and  C_19
REMARK                            x       y       z     vdW  Elec       q    Type
REMARK                         _______ _______ _______ _____ _____    ______ ____
ROOT
ATOM      1  C   LIG A   1      -1.810   0.640  -1.131  0.00  0.00    +0.016 C 
ATOM      2  C   LIG A   1      -0.484  -0.159  -0.999  0.00  0.00    -0.003 C 
ATOM      3  C   LIG A   1      -0.630  -1.583  -0.340  0.00  0.00    +0.012 C 
ATOM      4  C   LIG A   1      -1.435  -1.482   0.959  0.00  0.00    +0.084 C 
ATOM      5  C   LIG A   1      -0.804  -0.469   1.896  0.00  0.00    +0.160 C 
ATOM      6  C   LIG A   1       0.189   0.513   1.350  0.00  0.00    -0.000 C 
ATOM      7  C   LIG A   1       0.362   0.657   0.012  0.00  0.00    -0.035 C 
ATOM      8  C   LIG A   1       1.340   1.635  -0.446  0.00  0.00    +0.001 C 
ATOM      9  C   LIG A   1       1.833   2.587   0.361  0.00  0.00    -0.016 C 
ATOM     10  C   LIG A   1       1.453   2.710   1.826  0.00  0.00    +0.008 C 
ATOM     11  C   LIG A   1       0.315   3.751   1.915  0.00  0.00    +0.020 C 
ATOM     12  C   LIG A   1       0.942   1.341   2.367  0.00  0.00    +0.053 C 
ATOM     13  O   LIG A   1      -1.111  -0.447   3.087  0.00  0.00    -0.292 OA
ATOM     14  C   LIG A   1      -1.019  -2.748  -1.308  0.00  0.00    -0.031 C 
ATOM     15  C   LIG A   1      -1.023  -4.101  -0.556  0.00  0.00    +0.011 C 
ATOM     16  C   LIG A   1      -2.420  -2.590  -1.926  0.00  0.00    +0.011 C 
ATOM     17  C   LIG A   1       0.050  -2.846  -2.441  0.00  0.00    +0.007 C 
ATOM     18  C   LIG A   1       0.903  -1.586  -2.625  0.00  0.00    +0.001 C 
ATOM     19  C   LIG A   1       0.073  -0.325  -2.446  0.00  0.00    +0.012 C 
ENDROOT
BRANCH  10  20
ATOM     20  C   LIG A   1       2.695   3.101   2.622  0.00  0.00    -0.024 C 
ATOM     21  C   LIG A   1       2.885   4.195   3.374  0.00  0.00    +0.005 C 
ENDBRANCH  10  20
TORSDOF 1
