REMARK  Name = NuBBE_2470
REMARK  17 active torsions:
REMARK  status: ('A' for Active; 'I' for Inactive)
REMARK    1  A    between atoms: O_1  and  C_2
REMARK    2  A    between atoms: C_2  and  C_3
REMARK    3  A    between atoms: C_3  and  C_5
REMARK    4  A    between atoms: C_3  and  C_20
REMARK    5  A    between atoms: C_5  and  C_7
REMARK    6  A    between atoms: C_5  and  C_9
REMARK    7  A    between atoms: C_7  and  O_8
REMARK    8  A    between atoms: C_9  and  C_10
REMARK    9  A    between atoms: C_13  and  O_14
REMARK   10  A    between atoms: O_14  and  C_15
REMARK   11  A    between atoms: C_16  and  O_17
REMARK   12  A    between atoms: O_17  and  C_18
REMARK   13  A    between atoms: C_20  and  C_21
REMARK   14  A    between atoms: C_23  and  O_24
REMARK   15  A    between atoms: O_24  and  C_25
REMARK   16  A    between atoms: C_26  and  O_27
REMARK   17  A    between atoms: O_27  and  C_28
REMARK                            x       y       z     vdW  Elec       q    Type
REMARK                         _______ _______ _______ _____ _____    ______ ____
ROOT
ATOM      1  C   LIG A   1       0.827   1.288  -0.246  0.00  0.00    +0.024 C 
ENDROOT
BRANCH   1   2
ATOM      2  C   LIG A   1       1.096   1.357   1.281  0.00  0.00    +0.160 C 
BRANCH   2   3
ATOM      3  O   LIG A   1       0.912   2.627   1.884  0.00  0.00    -0.395 OA
ATOM      4  H   LIG A   1       0.361   2.520   2.679  0.00  0.00    +0.209 HD
ENDBRANCH   2   3
ENDBRANCH   1   2
BRANCH   1   5
ATOM      5  C   LIG A   1       1.349  -0.083  -0.855  0.00  0.00    +0.024 C 
BRANCH   5   6
ATOM      6  C   LIG A   1       1.059  -0.014  -2.371  0.00  0.00    +0.160 C 
BRANCH   6   7
ATOM      7  O   LIG A   1       1.515  -1.083  -3.143  0.00  0.00    -0.395 OA
ATOM      8  H   LIG A   1       0.886  -1.800  -2.930  0.00  0.00    +0.209 HD
ENDBRANCH   6   7
ENDBRANCH   5   6
BRANCH   5   9
ATOM      9  C   LIG A   1       0.815  -1.343  -0.115  0.00  0.00    +0.041 C 
BRANCH   9  10
ATOM     10  C   LIG A   1       1.381  -2.739  -0.326  0.00  0.00    -0.043 A 
ATOM     11  C   LIG A   1       2.018  -3.217  -1.494  0.00  0.00    +0.007 A 
ATOM     12  C   LIG A   1       2.369  -4.549  -1.685  0.00  0.00    +0.050 A 
ATOM     13  C   LIG A   1       2.308  -5.409  -0.663  0.00  0.00    +0.162 A 
ATOM     14  C   LIG A   1       1.726  -4.984   0.553  0.00  0.00    +0.162 A 
ATOM     15  C   LIG A   1       1.261  -3.660   0.685  0.00  0.00    +0.053 A 
BRANCH  13  16
ATOM     16  O   LIG A   1       2.815  -6.659  -0.920  0.00  0.00    -0.491 OA
ATOM     17  C   LIG A   1       3.545  -7.264   0.135  0.00  0.00    +0.277 C 
ENDBRANCH  13  16
BRANCH  14  18
ATOM     18  O   LIG A   1       1.668  -5.868   1.582  0.00  0.00    -0.491 OA
ATOM     19  C   LIG A   1       0.559  -5.752   2.468  0.00  0.00    +0.277 C 
ENDBRANCH  14  18
ENDBRANCH   9  10
ENDBRANCH   5   9
ENDBRANCH   1   5
BRANCH   1  20
ATOM     20  C   LIG A   1      -0.648   1.573  -0.674  0.00  0.00    +0.041 C 
BRANCH  20  21
ATOM     21  C   LIG A   1      -1.226   2.932  -0.415  0.00  0.00    -0.043 A 
ATOM     22  C   LIG A   1      -2.577   3.159  -0.700  0.00  0.00    +0.053 A 
ATOM     23  C   LIG A   1      -3.190   4.384  -0.393  0.00  0.00    +0.162 A 
ATOM     24  C   LIG A   1      -2.422   5.401   0.219  0.00  0.00    +0.162 A 
ATOM     25  C   LIG A   1      -1.057   5.187   0.400  0.00  0.00    +0.050 A 
ATOM     26  C   LIG A   1      -0.471   3.994   0.024  0.00  0.00    +0.007 A 
BRANCH  23  27
ATOM     27  O   LIG A   1      -4.519   4.604  -0.685  0.00  0.00    -0.491 OA
ATOM     28  C   LIG A   1      -5.313   3.418  -0.826  0.00  0.00    +0.277 C 
ENDBRANCH  23  27
BRANCH  24  29
ATOM     29  O   LIG A   1      -3.002   6.593   0.571  0.00  0.00    -0.491 OA
ATOM     30  C   LIG A   1      -2.403   7.317   1.655  0.00  0.00    +0.277 C 
ENDBRANCH  24  29
ENDBRANCH  20  21
ENDBRANCH   1  20
TORSDOF 13
