@<TRIPOS>MOLECULE
NuBBE_377
 37 39 0 0 0
SMALL
GASTEIGER

@<TRIPOS>ATOM
      1 C          -4.9526    0.8821   -0.4838 C.3     1  LIG1       -0.0396
      2 C          -3.4552    0.9494   -0.5094 C.ar    1  LIG1       -0.0463
      3 C          -2.7848    2.1531   -0.2789 C.ar    1  LIG1       -0.0169
      4 C          -1.3903    2.1871   -0.2874 C.ar    1  LIG1        0.1234
      5 O          -0.7455    3.3676   -0.0390 O.3     1  LIG1       -0.5064
      6 C          -2.7053   -0.2076   -0.7496 C.ar    1  LIG1       -0.0478
      7 C          -1.2999   -0.1685   -0.7366 C.ar    1  LIG1        0.0270
      8 C          -0.6225    1.0340   -0.5132 C.ar    1  LIG1        0.0330
      9 C           0.8858    1.1034   -0.4395 C.3     1  LIG1        0.0877
     10 H           1.2316    1.9609   -1.0262 H       1  LIG1        0.0648
     11 O           1.2779    1.3315    0.9104 O.3     1  LIG1       -0.3867
     12 C           1.6012   -0.1484   -0.9974 C.3     1  LIG1       -0.0007
     13 H           1.5224   -0.0850   -2.0927 H       1  LIG1        0.0336
     14 C           0.9232   -1.4590   -0.5768 C.3     1  LIG1        0.0299
     15 C          -0.5597   -1.4456   -0.8982 C.2     1  LIG1        0.1671
     16 O          -1.1523   -2.4768   -1.2005 O.2     1  LIG1       -0.2917
     17 H           1.3625   -2.2616   -1.1879 H       1  LIG1        0.0385
     18 C           1.1301   -1.8034    0.8969 C.3     1  LIG1       -0.0166
     19 C           2.6067   -1.8290    1.2834 C.3     1  LIG1        0.0559
     20 H           3.0743   -2.7260    0.8619 H       1  LIG1        0.0593
     21 O           2.7168   -1.9175    2.7024 O.3     1  LIG1       -0.3918
     22 C           3.3895   -0.6039    0.8143 C.3     1  LIG1       -0.0265
     23 C           3.0990   -0.2149   -0.6380 C.3     1  LIG1       -0.0446
     24 H          -5.3948    1.8557   -0.2462 H       1  LIG1        0.0278
     25 H          -5.2854    0.1706    0.2787 H       1  LIG1        0.0278
     26 H          -5.3318    0.5686   -1.4614 H       1  LIG1        0.0278
     27 H          -3.3564    3.0578   -0.0874 H       1  LIG1        0.0657
     28 H          -1.3920    4.0456    0.2198 H       1  LIG1        0.2921
     29 H          -3.2206   -1.1544   -0.9213 H       1  LIG1        0.0627
     30 H           0.5093    1.2265    1.4923 H       1  LIG1        0.2102
     31 H           0.6909   -2.7877    1.1090 H       1  LIG1        0.0297
     32 H           0.5753   -1.1168    1.5474 H       1  LIG1        0.0297
     33 H           2.2202   -2.7013    2.9920 H       1  LIG1        0.2098
     34 H           4.4629   -0.8026    0.9273 H       1  LIG1        0.0290
     35 H           3.2111    0.2387    1.4906 H       1  LIG1        0.0290
     36 H           3.5738   -0.9632   -1.2868 H       1  LIG1        0.0270
     37 H           3.5844    0.7408   -0.8680 H       1  LIG1        0.0270
@<TRIPOS>BOND
     1     1     2    1
     2     2     3   ar
     3     3     4   ar
     4     4     5    1
     5     2     6   ar
     6     6     7   ar
     7     7     8   ar
     8     4     8   ar
     9     8     9    1
    10     9    12    1
    11    12    13    1
    12    12    14    1
    13    14    15    1
    14     7    15    1
    15    15    16    2
    16    14    17    1
    17    14    18    1
    18    18    19    1
    19    19    20    1
    20    19    21    1
    21    19    22    1
    22    22    23    1
    23    12    23    1
    24     9    11    1
    25     9    10    1
    26     1    24    1
    27     1    25    1
    28     1    26    1
    29     3    27    1
    30     5    28    1
    31     6    29    1
    32    11    30    1
    33    18    31    1
    34    18    32    1
    35    21    33    1
    36    22    34    1
    37    22    35    1
    38    23    36    1
    39    23    37    1
