@<TRIPOS>MOLECULE
NuBBE_857
 68 72 0 0 0
SMALL
GASTEIGER

@<TRIPOS>ATOM
      1 O          -0.7937    4.0423    2.3898 O.2     1  LIG1       -0.2892
      2 C          -0.9896    3.2761    1.4546 C.2     1  LIG1        0.1928
      3 C           0.0333    2.3365    0.9812 C.2     1  LIG1       -0.0154
      4 C          -0.5457    1.4765    0.1278 C.2     1  LIG1       -0.0471
      5 C           0.0673    0.1275   -0.3418 C.3     1  LIG1        0.0305
      6 C           1.5914   -0.0125    0.0214 C.3     1  LIG1        0.1126
      7 H           1.7664    0.3095    1.0543 H       1  LIG1        0.0743
      8 C           2.1116   -1.4551   -0.0787 C.3     1  LIG1       -0.0103
      9 C           1.2915   -2.4249    0.7849 C.3     1  LIG1       -0.0164
     10 C           1.9735   -3.8229    0.9792 C.3     1  LIG1        0.0311
     11 C           2.4818   -4.4704   -0.3200 C.3     1  LIG1       -0.0525
     12 C           1.0271   -4.8105    1.6776 C.2     1  LIG1        0.1617
     13 C          -0.3783   -4.4220    1.9272 C.2     1  LIG1       -0.0221
     14 C          -0.9385   -3.3635    1.3292 C.2     1  LIG1       -0.0742
     15 C          -0.2185   -2.4464    0.3466 C.3     1  LIG1       -0.0061
     16 C          -0.7645   -0.9623    0.4526 C.3     1  LIG1       -0.0194
     17 C          -2.2940   -0.7937    0.1900 C.3     1  LIG1       -0.0476
     18 C          -2.8032    0.6011    0.5964 C.3     1  LIG1       -0.0402
     19 C          -2.0475    1.7729   -0.0808 C.3     1  LIG1        0.0302
     20 C          -2.2886    3.1537    0.6683 C.3     1  LIG1        0.1641
     21 C          -2.4556    4.3803   -0.2015 C.ar    1  LIG1        0.0299
     22 C          -3.6454    4.9022   -0.6792 C.ar    1  LIG1        0.0980
     23 O          -3.4291    6.0128   -1.4265 O.2     1  LIG1       -0.4707
     24 C          -2.0923    6.2334   -1.4285 C.ar    1  LIG1        0.0920
     25 C          -1.4474    5.2642   -0.6991 C.ar    1  LIG1       -0.0175
     26 O          -3.3607    3.0763    1.6115 O.3     1  LIG1       -0.3751
     27 C          -2.4892    1.8755   -1.5556 C.3     1  LIG1       -0.0524
     28 C          -0.4696   -3.0570   -1.0468 C.3     1  LIG1       -0.0555
     29 O           1.3898   -5.9243    2.0500 O.2     1  LIG1       -0.2921
     30 C           3.1897   -3.6728    1.9273 C.3     1  LIG1       -0.0525
     31 O           2.3918    0.7581   -0.9137 O.3     1  LIG1       -0.4606
     32 C           3.2497    1.6861   -0.4211 C.2     1  LIG1        0.3042
     33 C           4.0642    2.2792   -1.5312 C.3     1  LIG1        0.0332
     34 O           3.3413    2.0207    0.7507 O.2     1  LIG1       -0.2512
     35 C          -0.0428    0.0111   -1.8842 C.3     1  LIG1       -0.0521
     36 H           1.0090    2.3282    1.4349 H       1  LIG1        0.0653
     37 H           3.1604   -1.4450    0.2422 H       1  LIG1        0.0304
     38 H           2.1498   -1.7837   -1.1219 H       1  LIG1        0.0304
     39 H           1.2891   -1.9766    1.7937 H       1  LIG1        0.0320
     40 H           1.6845   -4.6523   -1.0416 H       1  LIG1        0.0239
     41 H           2.9400   -5.4468   -0.1196 H       1  LIG1        0.0239
     42 H           3.2460   -3.8555   -0.8064 H       1  LIG1        0.0239
     43 H          -0.9451   -5.0774    2.5808 H       1  LIG1        0.0649
     44 H          -1.9933   -3.2036    1.5275 H       1  LIG1        0.0579
     45 H          -0.6421   -0.7061    1.5201 H       1  LIG1        0.0319
     46 H          -2.8708   -1.5152    0.7735 H       1  LIG1        0.0269
     47 H          -2.5444   -0.9918   -0.8547 H       1  LIG1        0.0269
     48 H          -2.7083    0.6727    1.6889 H       1  LIG1        0.0275
     49 H          -3.8765    0.6684    0.3770 H       1  LIG1        0.0275
     50 H          -4.6807    4.6028   -0.5818 H       1  LIG1        0.1033
     51 H          -1.7595    7.1038   -1.9767 H       1  LIG1        0.1029
     52 H          -0.3794    5.2129   -0.5338 H       1  LIG1        0.0653
     53 H          -3.2226    3.8277    2.2221 H       1  LIG1        0.2113
     54 H          -3.5064    2.2754   -1.6314 H       1  LIG1        0.0239
     55 H          -2.5393    0.9102   -2.0594 H       1  LIG1        0.0239
     56 H          -1.8194    2.5165   -2.1390 H       1  LIG1        0.0239
     57 H          -1.4792   -2.8485   -1.4073 H       1  LIG1        0.0238
     58 H          -0.3870   -4.1500   -1.0368 H       1  LIG1        0.0238
     59 H           0.2325   -2.6988   -1.8000 H       1  LIG1        0.0238
     60 H           3.9617   -3.0216    1.5074 H       1  LIG1        0.0239
     61 H           3.6638   -4.6413    2.1291 H       1  LIG1        0.0239
     62 H           2.8866   -3.2605    2.8969 H       1  LIG1        0.0239
     63 H           3.4917    3.0558   -2.0422 H       1  LIG1        0.0342
     64 H           4.3601    1.4974   -2.2381 H       1  LIG1        0.0342
     65 H           4.9776    2.7089   -1.1118 H       1  LIG1        0.0342
     66 H           0.7223   -0.6407   -2.3149 H       1  LIG1        0.0239
     67 H           0.0941    0.9846   -2.3691 H       1  LIG1        0.0239
     68 H          -0.9916   -0.4073   -2.2193 H       1  LIG1        0.0239
@<TRIPOS>BOND
     1     1     2    2
     2     2     3    1
     3     3     4    2
     4     4     5    1
     5     5     6    1
     6     6     8    1
     7     8     9    1
     8     9    10    1
     9    10    11    1
    10    10    12    1
    11    12    13    1
    12    13    14    2
    13    14    15    1
    14    15    16    1
    15    16    17    1
    16    17    18    1
    17    18    19    1
    18    19    20    1
    19    21    22   ar
    20    22    23   ar
    21    23    24   ar
    22    24    25   ar
    23    21    25   ar
    24     2    20    1
    25     4    19    1
    26    19    27    1
    27     9    15    1
    28    15    28    1
    29    12    29    2
    30    10    30    1
    31    31    32    1
    32    32    33    1
    33    32    34    2
    34    16     5    1
    35     5    35    1
    36     6    31    1
    37     6     7    1
    38    20    26    1
    39    20    21    1
    40     3    36    1
    41     8    37    1
    42     8    38    1
    43     9    39    1
    44    11    40    1
    45    11    41    1
    46    11    42    1
    47    13    43    1
    48    14    44    1
    49    16    45    1
    50    17    46    1
    51    17    47    1
    52    18    48    1
    53    18    49    1
    54    22    50    1
    55    24    51    1
    56    25    52    1
    57    26    53    1
    58    27    54    1
    59    27    55    1
    60    27    56    1
    61    28    57    1
    62    28    58    1
    63    28    59    1
    64    30    60    1
    65    30    61    1
    66    30    62    1
    67    33    63    1
    68    33    64    1
    69    33    65    1
    70    35    66    1
    71    35    67    1
    72    35    68    1
