@<TRIPOS>MOLECULE
NuBBE_1176
 84 88 0 0 0
SMALL
GASTEIGER

@<TRIPOS>ATOM
      1 C          -2.2217   -0.6959    0.0141 C.3     1  LIG1       -0.0584
      2 C          -0.7556   -0.6164   -0.4902 C.3     1  LIG1       -0.0170
      3 C          -0.5879   -1.6965   -1.5776 C.3     1  LIG1       -0.0201
      4 C          -0.6045   -3.1477   -1.0961 C.3     1  LIG1        0.0597
      5 H          -1.5809   -3.4165   -0.6872 H       1  LIG1        0.0596
      6 O          -0.4114   -3.9062   -2.2970 O.3     1  LIG1       -0.3915
      7 C           0.5413   -3.4561   -0.0799 C.3     1  LIG1        0.0007
      8 C           0.6390   -5.0095    0.3495 C.3     1  LIG1        0.0250
      9 C           2.0558   -5.3399    0.9173 C.3     1  LIG1       -0.0547
     10 C           0.4642   -5.9768   -0.8601 C.3     1  LIG1        0.0524
     11 O           0.5530   -7.3432   -0.4431 O.3     1  LIG1       -0.3944
     12 C          -0.4247   -5.3500    1.4289 C.3     1  LIG1        0.0888
     13 H          -0.2492   -6.3492    1.8487 H       1  LIG1        0.0625
     14 O          -1.7484   -5.3919    0.8599 O.3     1  LIG1       -0.3886
     15 C          -0.4746   -4.3510    2.5990 C.3     1  LIG1        0.0822
     16 H           0.4006   -4.4658    3.2431 H       1  LIG1        0.0619
     17 O          -1.6159   -4.6631    3.4123 O.3     1  LIG1       -0.3892
     18 C          -0.6111   -2.8953    2.1410 C.3     1  LIG1       -0.0184
     19 C           0.4795   -2.4386    1.1424 C.3     1  LIG1       -0.0202
     20 C           1.8437   -2.4279    1.9047 C.3     1  LIG1       -0.0588
     21 C           0.2905   -0.9318    0.6366 C.3     1  LIG1       -0.0255
     22 C           0.1195    0.0991    1.7722 C.3     1  LIG1       -0.0306
     23 C           0.2576    1.4995    1.2681 C.2     1  LIG1       -0.0836
     24 C           0.0515    1.8920   -0.0006 C.2     1  LIG1       -0.0626
     25 C          -0.4494    0.8992   -1.0866 C.3     1  LIG1       -0.0050
     26 C           0.6235    0.8069   -2.2168 C.3     1  LIG1       -0.0553
     27 C          -1.7286    1.5573   -1.6919 C.3     1  LIG1       -0.0424
     28 C          -1.5306    2.9793   -2.2394 C.3     1  LIG1       -0.0359
     29 C          -0.8845    3.9734   -1.2326 C.3     1  LIG1        0.0743
     30 C          -2.0035    4.4616   -0.3111 C.2     1  LIG1        0.3115
     31 O          -2.2360    3.6894    0.7617 O.3     1  LIG1       -0.4802
     32 O          -2.7151    5.4412   -0.4989 O.2     1  LIG1       -0.2504
     33 C           0.3230    3.3269   -0.4928 C.3     1  LIG1       -0.0008
     34 C           1.1283    4.3329    0.4031 C.3     1  LIG1       -0.0337
     35 H           2.0099    3.7922    0.7774 H       1  LIG1        0.0307
     36 C           0.4112    4.9002    1.6361 C.3     1  LIG1       -0.0616
     37 C           1.6563    5.4683   -0.5230 C.3     1  LIG1       -0.0407
     38 H           2.2952    4.9984   -1.2852 H       1  LIG1        0.0301
     39 C           2.5449    6.4794    0.2019 C.3     1  LIG1       -0.0622
     40 C           0.5074    6.1725   -1.2598 C.3     1  LIG1       -0.0492
     41 C          -0.3608    5.1915   -2.0529 C.3     1  LIG1       -0.0364
     42 H          -2.4823   -1.6642    0.4330 H       1  LIG1        0.0235
     43 H          -2.9303   -0.5637   -0.8121 H       1  LIG1        0.0235
     44 H          -2.4492    0.0635    0.7673 H       1  LIG1        0.0235
     45 H           0.3756   -1.5880   -2.0877 H       1  LIG1        0.0296
     46 H          -1.3447   -1.5581   -2.3618 H       1  LIG1        0.0296
     47 H          -1.1822   -3.7432   -2.8694 H       1  LIG1        0.2098
     48 H           1.4736   -3.2485   -0.6276 H       1  LIG1        0.0338
     49 H           2.1053   -5.2768    2.0060 H       1  LIG1        0.0237
     50 H           2.8241   -4.6908    0.4843 H       1  LIG1        0.0237
     51 H           2.3722   -6.3652    0.6967 H       1  LIG1        0.0237
     52 H          -0.5165   -5.8968   -1.3295 H       1  LIG1        0.0563
     53 H           1.2446   -5.7984   -1.6091 H       1  LIG1        0.0563
     54 H           0.6782   -7.8700   -1.2527 H       1  LIG1        0.2094
     55 H          -1.8104   -6.2573    0.4110 H       1  LIG1        0.2099
     56 H          -2.3213   -4.8849    2.7697 H       1  LIG1        0.2099
     57 H          -0.6139   -2.2550    3.0321 H       1  LIG1        0.0296
     58 H          -1.6083   -2.7848    1.7185 H       1  LIG1        0.0296
     59 H           1.8645   -1.6983    2.7170 H       1  LIG1        0.0235
     60 H           2.6722   -2.1934    1.2278 H       1  LIG1        0.0235
     61 H           2.0786   -3.3587    2.4086 H       1  LIG1        0.0235
     62 H           1.2646   -0.7065    0.1722 H       1  LIG1        0.0315
     63 H           0.8899   -0.0191    2.5361 H       1  LIG1        0.0310
     64 H          -0.8381   -0.0115    2.2914 H       1  LIG1        0.0310
     65 H           0.6051    2.1987    2.0192 H       1  LIG1        0.0572
     66 H           1.5470    0.3418   -1.8569 H       1  LIG1        0.0238
     67 H           0.9095    1.7676   -2.6497 H       1  LIG1        0.0238
     68 H           0.2465    0.2390   -3.0749 H       1  LIG1        0.0238
     69 H          -2.5199    1.6245   -0.9364 H       1  LIG1        0.0274
     70 H          -2.1216    0.9284   -2.5007 H       1  LIG1        0.0274
     71 H          -2.5090    3.3605   -2.5636 H       1  LIG1        0.0276
     72 H          -0.9275    2.9174   -3.1529 H       1  LIG1        0.0276
     73 H          -2.9554    4.1479    1.2426 H       1  LIG1        0.2951
     74 H           1.0657    3.1469   -1.2808 H       1  LIG1        0.0359
     75 H           1.1409    5.3543    2.3163 H       1  LIG1        0.0233
     76 H          -0.1135    4.1392    2.2144 H       1  LIG1        0.0233
     77 H          -0.3124    5.6789    1.3844 H       1  LIG1        0.0233
     78 H           1.9780    7.0928    0.9084 H       1  LIG1        0.0233
     79 H           3.0163    7.1565   -0.5192 H       1  LIG1        0.0233
     80 H           3.3453    5.9697    0.7484 H       1  LIG1        0.0233
     81 H           0.9220    6.9107   -1.9579 H       1  LIG1        0.0268
     82 H          -0.1163    6.7370   -0.5583 H       1  LIG1        0.0268
     83 H           0.2458    4.8238   -2.8922 H       1  LIG1        0.0276
     84 H          -1.1941    5.7424   -2.5074 H       1  LIG1        0.0276
@<TRIPOS>BOND
     1     2     3    1
     2     3     4    1
     3     4     7    1
     4     7     8    1
     5    10    11    1
     6     8    12    1
     7    12    15    1
     8    15    18    1
     9    18    19    1
    10     7    19    1
    11    19    21    1
    12     2    21    1
    13    21    22    1
    14    22    23    1
    15    23    24    2
    16    24    25    1
    17     2    25    1
    18    25    27    1
    19    27    28    1
    20    28    29    1
    21    30    31    1
    22    30    32    2
    23    29    33    1
    24    24    33    1
    25    33    34    1
    26    34    37    1
    27    37    40    1
    28    40    41    1
    29    29    41    1
    30     1     2    1
    31     8     9    1
    32     8    10    1
    33    12    13    1
    34    12    14    1
    35    19    20    1
    36    25    26    1
    37    29    30    1
    38    34    35    1
    39    34    36    1
    40    37    38    1
    41    37    39    1
    42     4     6    1
    43     4     5    1
    44    15    17    1
    45    15    16    1
    46     1    42    1
    47     1    43    1
    48     1    44    1
    49     3    45    1
    50     3    46    1
    51     6    47    1
    52     7    48    1
    53     9    49    1
    54     9    50    1
    55     9    51    1
    56    10    52    1
    57    10    53    1
    58    11    54    1
    59    14    55    1
    60    17    56    1
    61    18    57    1
    62    18    58    1
    63    20    59    1
    64    20    60    1
    65    20    61    1
    66    21    62    1
    67    22    63    1
    68    22    64    1
    69    23    65    1
    70    26    66    1
    71    26    67    1
    72    26    68    1
    73    27    69    1
    74    27    70    1
    75    28    71    1
    76    28    72    1
    77    31    73    1
    78    33    74    1
    79    36    75    1
    80    36    76    1
    81    36    77    1
    82    39    78    1
    83    39    79    1
    84    39    80    1
    85    40    81    1
    86    40    82    1
    87    41    83    1
    88    41    84    1
