REMARK  Name = NuBBE_1652
REMARK  11 active torsions:
REMARK  status: ('A' for Active; 'I' for Inactive)
REMARK    1  A    between atoms: C_1  and  C_2
REMARK    2  A    between atoms: C_3  and  C_4
REMARK    3  A    between atoms: C_7  and  C_11
REMARK    4  A    between atoms: C_11  and  C_13
REMARK    5  A    between atoms: C_13  and  C_14
REMARK    6  A    between atoms: C_14  and  C_15
REMARK    7  A    between atoms: C_16  and  C_17
REMARK    8  A    between atoms: C_16  and  C_19
REMARK    9  A    between atoms: C_24  and  C_25
REMARK   10  A    between atoms: C_30  and  C_31
REMARK   11  A    between atoms: C_30  and  C_32
REMARK                            x       y       z     vdW  Elec       q    Type
REMARK                         _______ _______ _______ _____ _____    ______ ____
ROOT
ATOM      1  C   LIG A   1      -2.024  -0.185   1.679  0.00  0.00    +0.012 C 
ATOM      2  C   LIG A   1      -0.952  -0.627   0.643  0.00  0.00    -0.023 C 
ATOM      3  C   LIG A   1      -0.572   0.585  -0.358  0.00  0.00    -0.023 C 
ATOM      4  C   LIG A   1       0.043   0.061  -1.695  0.00  0.00    +0.012 C 
ATOM      5  C   LIG A   1       0.479   1.607   0.219  0.00  0.00    +0.003 C 
ATOM      6  C   LIG A   1      -0.097   3.034  -0.062  0.00  0.00    +0.018 C 
ATOM      7  C   LIG A   1      -1.164   2.825  -1.134  0.00  0.00    +0.009 C 
ATOM      8  C   LIG A   1      -1.776   1.487  -0.744  0.00  0.00    +0.008 C 
ATOM      9  C   LIG A   1       0.814   1.396   1.696  0.00  0.00    +0.005 C 
ATOM     10  C   LIG A   1       1.194  -0.044   2.030  0.00  0.00    +0.005 C 
ATOM     11  C   LIG A   1       0.371  -1.148   1.318  0.00  0.00    +0.002 C 
ATOM     12  C   LIG A   1       0.261  -2.505   2.152  0.00  0.00    -0.025 C 
ATOM     13  C   LIG A   1      -0.478  -2.286   3.497  0.00  0.00    +0.012 C 
ATOM     14  C   LIG A   1      -0.416  -3.593   1.238  0.00  0.00    +0.008 C 
ATOM     15  C   LIG A   1      -1.768  -3.100   0.683  0.00  0.00    +0.005 C 
ATOM     16  C   LIG A   1      -1.593  -1.815  -0.137  0.00  0.00    +0.008 C 
ATOM     17  C   LIG A   1      -0.442  -5.055   1.809  0.00  0.00    +0.027 C 
ATOM     18  C   LIG A   1      -1.411  -5.286   2.979  0.00  0.00    +0.019 C 
ATOM     19  C   LIG A   1      -0.839  -6.047   0.686  0.00  0.00    +0.019 C 
ATOM     20  C   LIG A   1       0.974  -5.431   2.281  0.00  0.00    +0.139 C 
ATOM     21  O   LIG A   1       1.428  -6.570   2.148  0.00  0.00    -0.297 OA
ATOM     22  C   LIG A   1       1.755  -4.410   3.075  0.00  0.00    +0.075 C 
ATOM     23  C   LIG A   1       1.701  -3.018   2.457  0.00  0.00    +0.015 C 
ENDROOT
BRANCH   6  24
ATOM     24  C   LIG A   1       0.929   4.124  -0.367  0.00  0.00    -0.073 C 
ATOM     25  C   LIG A   1       1.416   4.848   0.659  0.00  0.00    +0.008 C 
BRANCH  24  26
ATOM     26  C   LIG A   1       1.456   4.333  -1.790  0.00  0.00    +0.034 C 
BRANCH  26  27
ATOM     27  C   LIG A   1       0.643   5.297  -2.688  0.00  0.00    +0.032 C 
BRANCH  27  28
ATOM     28  C   LIG A   1       1.237   5.508  -4.069  0.00  0.00    -0.020 C 
ATOM     29  C   LIG A   1       0.946   4.840  -5.212  0.00  0.00    -0.015 C 
ATOM     30  C   LIG A   1      -0.000   3.692  -5.370  0.00  0.00    +0.046 C 
BRANCH  29  31
ATOM     31  C   LIG A   1       1.621   5.276  -6.471  0.00  0.00    +0.254 C 
ATOM     32  O   LIG A   1       1.458   4.712  -7.556  0.00  0.00    -0.296 OA
ENDBRANCH  29  31
ENDBRANCH  27  28
ENDBRANCH  26  27
ENDBRANCH  24  26
ENDBRANCH   6  24
TORSDOF 5
