@<TRIPOS>MOLECULE
NuBBE_1492
 49 53 0 0 0
SMALL
GASTEIGER

@<TRIPOS>ATOM
      1 O           3.0682   -2.6607   -2.7913 O.3     1  LIG1       -0.4914
      2 C           4.3859   -2.7435   -3.3322 C.3     1  LIG1        0.0790
      3 C           2.8929   -1.7959   -1.7348 C.ar    1  LIG1        0.1618
      4 C           1.5857   -1.2789   -1.6235 C.ar    1  LIG1       -0.0107
      5 C           1.2466   -0.3609   -0.6145 C.ar    1  LIG1       -0.0149
      6 C           2.2358   -0.0335    0.3251 C.ar    1  LIG1       -0.0524
      7 C           3.5237   -0.5635    0.2446 C.ar    1  LIG1       -0.0160
      8 C           3.8612   -1.4496   -0.7780 C.ar    1  LIG1        0.1615
      9 O           5.1269   -1.9469   -0.9086 O.3     1  LIG1       -0.4915
     10 C           5.8436   -2.2138    0.2872 C.3     1  LIG1        0.0790
     11 C          -0.1440    0.2318   -0.4475 C.3     1  LIG1        0.0891
     12 H          -0.6663   -0.4116    0.2675 H       1  LIG1        0.0650
     13 C          -0.9687    0.4474   -1.7231 C.3     1  LIG1        0.0205
     14 H          -0.3267    0.4769   -2.6104 H       1  LIG1        0.0356
     15 C          -1.6463    1.7768   -1.5048 C.3     1  LIG1        0.0205
     16 H          -1.8020    2.2945   -2.4594 H       1  LIG1        0.0356
     17 C          -0.6520    2.5141   -0.6515 C.3     1  LIG1        0.0544
     18 O          -0.0328    1.5340    0.1806 O.3     1  LIG1       -0.3712
     19 C          -3.0179    1.4114   -0.9329 C.3     1  LIG1        0.0891
     20 H          -3.7728    2.0834   -1.3658 H       1  LIG1        0.0650
     21 O          -3.3179    0.1021   -1.4526 O.3     1  LIG1       -0.3712
     22 C          -2.1112   -0.5262   -1.9059 C.3     1  LIG1        0.0544
     23 C          -3.2399    1.4350    0.5719 C.ar    1  LIG1       -0.0149
     24 C          -3.1450    0.2626    1.3474 C.ar    1  LIG1       -0.0105
     25 C          -3.3648    0.3537    2.7081 C.ar    1  LIG1        0.1666
     26 C          -3.6939    1.5338    3.3116 C.ar    1  LIG1        0.1662
     27 C          -3.8206    2.7073    2.5926 C.ar    1  LIG1       -0.0158
     28 C          -3.5859    2.6475    1.2118 C.ar    1  LIG1       -0.0524
     29 O          -3.8808    1.4001    4.6518 O.3     1  LIG1       -0.4526
     30 C          -3.6143   -0.0083    4.8182 C.3     1  LIG1        0.2332
     31 O          -3.2930   -0.6836    3.5861 O.3     1  LIG1       -0.4526
     32 H           5.0669   -3.2898   -2.6733 H       1  LIG1        0.0660
     33 H           4.7730   -1.7496   -3.5842 H       1  LIG1        0.0660
     34 H           4.3407   -3.3300   -4.2543 H       1  LIG1        0.0660
     35 H           0.8469   -1.5982   -2.3553 H       1  LIG1        0.0659
     36 H           2.0089    0.6603    1.1338 H       1  LIG1        0.0622
     37 H           4.2527   -0.2460    0.9819 H       1  LIG1        0.0655
     38 H           6.6725   -2.8786    0.0237 H       1  LIG1        0.0660
     39 H           5.2257   -2.7277    1.0308 H       1  LIG1        0.0660
     40 H           6.2710   -1.2918    0.6900 H       1  LIG1        0.0660
     41 H          -1.0715    3.3194   -0.0444 H       1  LIG1        0.0564
     42 H           0.1364    2.9488   -1.2786 H       1  LIG1        0.0564
     43 H          -2.2528   -0.7733   -2.9625 H       1  LIG1        0.0564
     44 H          -1.9716   -1.4648   -1.3605 H       1  LIG1        0.0564
     45 H          -2.9182   -0.6981    0.9085 H       1  LIG1        0.0659
     46 H          -4.0941    3.6321    3.0794 H       1  LIG1        0.0655
     47 H          -3.6878    3.5628    0.6292 H       1  LIG1        0.0622
     48 H          -4.4991   -0.4855    5.2560 H       1  LIG1        0.1166
     49 H          -2.7732   -0.1256    5.5120 H       1  LIG1        0.1166
@<TRIPOS>BOND
     1     1     2    1
     2     1     3    1
     3     3     4   ar
     4     4     5   ar
     5     5     6   ar
     6     6     7   ar
     7     7     8   ar
     8     3     8   ar
     9     8     9    1
    10     9    10    1
    11    11    13    1
    12    13    14    1
    13    13    15    1
    14    15    16    1
    15    15    17    1
    16    17    18    1
    17    11    18    1
    18    15    19    1
    19    19    21    1
    20    21    22    1
    21    13    22    1
    22    23    24   ar
    23    24    25   ar
    24    25    26   ar
    25    26    27   ar
    26    27    28   ar
    27    23    28   ar
    28    26    29    1
    29    29    30    1
    30    30    31    1
    31    25    31    1
    32    11    12    1
    33    11     5    1
    34    19    23    1
    35    19    20    1
    36     2    32    1
    37     2    33    1
    38     2    34    1
    39     4    35    1
    40     6    36    1
    41     7    37    1
    42    10    38    1
    43    10    39    1
    44    10    40    1
    45    17    41    1
    46    17    42    1
    47    22    43    1
    48    22    44    1
    49    24    45    1
    50    27    46    1
    51    28    47    1
    52    30    48    1
    53    30    49    1
