REMARK  Name = NuBBE_1665
REMARK  7 active torsions:
REMARK  status: ('A' for Active; 'I' for Inactive)
REMARK    1  A    between atoms: C_2  and  C_3
REMARK    2  A    between atoms: C_2  and  C_12
REMARK    3  A    between atoms: C_12  and  C_14
REMARK    4  A    between atoms: C_12  and  C_15
REMARK    5  A    between atoms: C_15  and  C_17
REMARK    6  A    between atoms: C_15  and  C_18
REMARK    7  A    between atoms: C_18  and  C_19
REMARK                            x       y       z     vdW  Elec       q    Type
REMARK                         _______ _______ _______ _____ _____    ______ ____
ROOT
ATOM      1  C   LIG A   1      -0.323  -1.761  -0.570  0.00  0.00    +0.060 C 
ATOM      2  C   LIG A   1      -1.388  -2.347  -1.505  0.00  0.00    +0.016 C 
ENDROOT
BRANCH   1   4
ATOM      3  O   LIG A   1       1.755  -1.867  -1.861  0.00  0.00    -0.292 OA
ATOM      4  C   LIG A   1       0.827  -1.196  -1.442  0.00  0.00    +0.166 C 
BRANCH   4   5
ATOM      5  C   LIG A   1       0.693   0.224  -1.919  0.00  0.00    +0.021 A 
ATOM      6  C   LIG A   1       0.137   1.217  -1.080  0.00  0.00    +0.015 A 
ATOM      7  C   LIG A   1      -0.074   2.515  -1.544  0.00  0.00    +0.050 A 
ATOM      8  C   LIG A   1       0.255   2.787  -2.850  0.00  0.00    +0.166 A 
ATOM      9  O   LIG A   1       0.038   3.970  -3.480  0.00  0.00    -0.453 OA
ATOM     10  C   LIG A   1       0.510   3.659  -4.805  0.00  0.00    +0.466 C 
ATOM     11  O   LIG A   1       1.046   2.321  -4.923  0.00  0.00    -0.453 OA
ATOM     12  C   LIG A   1       0.826   1.839  -3.668  0.00  0.00    +0.167 A 
ATOM     13  C   LIG A   1       1.083   0.555  -3.227  0.00  0.00    +0.060 A 
ENDBRANCH   4   5
ENDBRANCH   1   4
BRANCH   1  14
ATOM     14  C   LIG A   1       0.084  -2.766   0.546  0.00  0.00    +0.001 C 
ATOM     15  C   LIG A   1       0.779  -4.033   0.025  0.00  0.00    +0.008 C 
BRANCH  14  16
ATOM     16  C   LIG A   1       0.914  -2.119   1.688  0.00  0.00    +0.039 C 
BRANCH  16  17
ATOM     17  C   LIG A   1       0.217  -0.994   2.436  0.00  0.00    -0.043 A 
ATOM     18  C   LIG A   1      -1.000  -1.210   3.127  0.00  0.00    +0.007 A 
ATOM     19  C   LIG A   1      -1.661  -0.161   3.783  0.00  0.00    +0.050 A 
ATOM     20  C   LIG A   1      -1.100   1.095   3.715  0.00  0.00    +0.166 A 
ATOM     21  O   LIG A   1      -1.619   2.234   4.248  0.00  0.00    -0.453 OA
ATOM     22  C   LIG A   1      -0.658   3.209   3.793  0.00  0.00    +0.466 C 
ATOM     23  O   LIG A   1       0.454   2.626   3.082  0.00  0.00    -0.453 OA
ATOM     24  C   LIG A   1       0.088   1.315   3.063  0.00  0.00    +0.167 A 
ATOM     25  C   LIG A   1       0.784   0.292   2.448  0.00  0.00    +0.053 A 
ENDBRANCH  16  17
ENDBRANCH  14  16
ENDBRANCH   1  14
TORSDOF 5
