@<TRIPOS>MOLECULE
NuBBE_2352
 52 54 0 0 0
SMALL
GASTEIGER

@<TRIPOS>ATOM
      1 C          -3.2719    1.5625   -2.6601 C.3     1  LIG1       -0.0585
      2 C          -2.1895    0.7179   -3.3426 C.3     1  LIG1       -0.0178
      3 C          -1.1666    1.5692   -4.0988 C.3     1  LIG1       -0.0585
      4 C          -1.5235   -0.3291   -2.4438 C.ar    1  LIG1        0.0001
      5 C          -1.4670   -1.6538   -2.9205 C.ar    1  LIG1        0.1205
      6 O          -1.9480   -1.9444   -4.1704 O.3     1  LIG1       -0.5065
      7 C          -0.9363   -2.6869   -2.1593 C.ar    1  LIG1       -0.0196
      8 C          -0.4510   -2.4239   -0.8840 C.ar    1  LIG1       -0.0543
      9 C          -0.4415   -1.1201   -0.3578 C.ar    1  LIG1       -0.0375
     10 C          -0.9538   -0.0621   -1.1647 C.ar    1  LIG1       -0.0368
     11 C          -0.8664    1.3290   -0.5926 C.3     1  LIG1       -0.0267
     12 C           0.4663    1.5063    0.1139 C.3     1  LIG1       -0.0448
     13 C           0.5828    0.6002    1.3516 C.3     1  LIG1       -0.0238
     14 H          -0.0911    1.0670    2.0867 H       1  LIG1        0.0315
     15 C           0.0078   -0.8602    1.1102 C.3     1  LIG1       -0.0033
     16 C          -1.2964   -1.0143    1.9504 C.3     1  LIG1       -0.0553
     17 C           0.9951   -1.9516    1.6119 C.3     1  LIG1       -0.0410
     18 C           1.6365   -1.7012    2.9717 C.3     1  LIG1       -0.0255
     19 C           2.0917   -0.2682    3.2285 C.3     1  LIG1        0.0607
     20 H           3.1240   -0.2983    3.5986 H       1  LIG1        0.0599
     21 O           1.3309    0.2454    4.3286 O.3     1  LIG1       -0.3912
     22 C           2.0143    0.6833    2.0060 C.3     1  LIG1       -0.0053
     23 C           2.2806    2.1308    2.5063 C.3     1  LIG1       -0.0572
     24 C           3.1552    0.3601    1.0113 C.3     1  LIG1       -0.0572
     25 H          -3.8791    2.0728   -3.4170 H       1  LIG1        0.0235
     26 H          -2.8719    2.3430   -2.0105 H       1  LIG1        0.0235
     27 H          -3.9437    0.9341   -2.0653 H       1  LIG1        0.0235
     28 H          -2.7514    0.1850   -4.1204 H       1  LIG1        0.0345
     29 H          -0.5512    2.1841   -3.4378 H       1  LIG1        0.0235
     30 H          -1.6715    2.2423   -4.8003 H       1  LIG1        0.0235
     31 H          -0.4873    0.9343   -4.6788 H       1  LIG1        0.0235
     32 H          -1.8218   -2.8904   -4.3460 H       1  LIG1        0.2921
     33 H          -0.9127   -3.7067   -2.5303 H       1  LIG1        0.0654
     34 H          -0.0929   -3.2734   -0.3108 H       1  LIG1        0.0622
     35 H          -1.7080    1.5108    0.0847 H       1  LIG1        0.0313
     36 H          -0.8952    2.0904   -1.3703 H       1  LIG1        0.0313
     37 H           0.5593    2.5572    0.4108 H       1  LIG1        0.0271
     38 H           1.2739    1.3046   -0.5992 H       1  LIG1        0.0271
     39 H          -2.0587   -0.2835    1.6570 H       1  LIG1        0.0238
     40 H          -1.1104   -0.8783    3.0201 H       1  LIG1        0.0238
     41 H          -1.7413   -2.0090    1.8233 H       1  LIG1        0.0238
     42 H           1.7854   -2.1150    0.8715 H       1  LIG1        0.0275
     43 H           0.4870   -2.9224    1.6892 H       1  LIG1        0.0275
     44 H           2.5060   -2.3668    3.0516 H       1  LIG1        0.0290
     45 H           0.9463   -2.0292    3.7595 H       1  LIG1        0.0290
     46 H           0.3958    0.2820    4.0717 H       1  LIG1        0.2098
     47 H           1.4651    2.4999    3.1376 H       1  LIG1        0.0236
     48 H           2.3963    2.8359    1.6765 H       1  LIG1        0.0236
     49 H           3.2047    2.1758    3.0947 H       1  LIG1        0.0236
     50 H           2.9838   -0.5453    0.4299 H       1  LIG1        0.0236
     51 H           4.1090    0.2381    1.5380 H       1  LIG1        0.0236
     52 H           3.3024    1.1717    0.2899 H       1  LIG1        0.0236
@<TRIPOS>BOND
     1     1     2    1
     2     2     3    1
     3     2     4    1
     4     4     5   ar
     5     5     6    1
     6     5     7   ar
     7     7     8   ar
     8     8     9   ar
     9     9    10   ar
    10     4    10   ar
    11    10    11    1
    12    11    12    1
    13    12    13    1
    14    13    14    1
    15    13    15    1
    16     9    15    1
    17    15    16    1
    18    15    17    1
    19    17    18    1
    20    18    19    1
    21    19    22    1
    22    13    22    1
    23    22    23    1
    24    22    24    1
    25    19    21    1
    26    19    20    1
    27     1    25    1
    28     1    26    1
    29     1    27    1
    30     2    28    1
    31     3    29    1
    32     3    30    1
    33     3    31    1
    34     6    32    1
    35     7    33    1
    36     8    34    1
    37    11    35    1
    38    11    36    1
    39    12    37    1
    40    12    38    1
    41    16    39    1
    42    16    40    1
    43    16    41    1
    44    17    42    1
    45    17    43    1
    46    18    44    1
    47    18    45    1
    48    21    46    1
    49    23    47    1
    50    23    48    1
    51    23    49    1
    52    24    50    1
    53    24    51    1
    54    24    52    1
