@<TRIPOS>MOLECULE
NuBBE_2203
 30 33 0 0 0
SMALL
GASTEIGER

@<TRIPOS>ATOM
      1 O          -3.5080    1.1392    0.3169 O.2     1  LIG1       -0.2673
      2 C          -2.2848    1.1981    0.2581 C.ar    1  LIG1        0.2563
      3 N          -1.4042    0.1329    0.2331 N.ar    1  LIG1       -0.2742
      4 C          -0.0491    0.3182    0.1576 C.ar    1  LIG1        0.0848
      5 C           0.6132   -0.9554    0.1561 C.ar    1  LIG1        0.0154
      6 C          -0.4391   -1.9750    0.2239 C.ar    1  LIG1        0.0083
      7 C          -1.6694   -1.2580    0.2715 C.ar    1  LIG1        0.0579
      8 C          -2.8809   -1.9145    0.3438 C.ar    1  LIG1       -0.0371
      9 C          -2.8551   -3.3130    0.3682 C.ar    1  LIG1       -0.0598
     10 C          -1.6373   -4.0230    0.3211 C.ar    1  LIG1       -0.0611
     11 C          -0.4107   -3.3543    0.2483 C.ar    1  LIG1       -0.0520
     12 C           1.9500   -0.9996    0.1193 C.ar    1  LIG1        0.0156
     13 C           2.7155    0.3029    0.0830 C.ar    1  LIG1        0.2845
     14 O           3.9436    0.2609    0.1113 O.2     1  LIG1       -0.2646
     15 N           1.9433    1.4661    0.0028 N.ar    1  LIG1       -0.1425
     16 C           0.5711    1.4920    0.0982 C.ar    1  LIG1        0.1089
     17 C          -0.2657    2.6727    0.1312 C.ar    1  LIG1       -0.0276
     18 C          -1.6075    2.5497    0.2056 C.ar    1  LIG1        0.0054
     19 O           2.6098    2.7079    0.1176 O.3     1  LIG1       -0.4113
     20 C           3.1317    3.0797   -1.1571 C.3     1  LIG1        0.1054
     21 H          -3.8220   -1.3763    0.3811 H       1  LIG1        0.0638
     22 H          -3.7925   -3.8634    0.4253 H       1  LIG1        0.0618
     23 H          -1.6557   -5.1112    0.3429 H       1  LIG1        0.0618
     24 H           0.5213   -3.9070    0.2139 H       1  LIG1        0.0624
     25 H           2.5303   -1.9113    0.1338 H       1  LIG1        0.0679
     26 H           0.2020    3.6509    0.1040 H       1  LIG1        0.0641
     27 H          -2.2688    3.4070    0.2364 H       1  LIG1        0.0672
     28 H           3.5600    4.0818   -1.0681 H       1  LIG1        0.0686
     29 H           2.3361    3.1089   -1.9085 H       1  LIG1        0.0686
     30 H           3.9230    2.3932   -1.4712 H       1  LIG1        0.0686
@<TRIPOS>BOND
     1     1     2    2
     2     2     3   ar
     3     3     4   ar
     4     4     5   ar
     5     5     6   ar
     6     6     7   ar
     7     3     7   ar
     8     7     8   ar
     9     8     9   ar
    10     9    10   ar
    11    10    11   ar
    12     6    11   ar
    13     5    12   ar
    14    12    13   ar
    15    13    14    2
    16    13    15   ar
    17    15    16   ar
    18     4    16   ar
    19    16    17   ar
    20    17    18   ar
    21     2    18   ar
    22    15    19    1
    23    19    20    1
    24     8    21    1
    25     9    22    1
    26    10    23    1
    27    11    24    1
    28    12    25    1
    29    17    26    1
    30    18    27    1
    31    20    28    1
    32    20    29    1
    33    20    30    1
