@<TRIPOS>MOLECULE
NuBBE_76
 77 80 0 0 0
SMALL
GASTEIGER

@<TRIPOS>ATOM
      1 C           0.7391   -1.9465    1.5622 C.3     1  LIG1       -0.0590
      2 C           0.2561   -0.7864    0.6311 C.3     1  LIG1       -0.0259
      3 C          -0.0115    0.5337    1.3867 C.3     1  LIG1       -0.0320
      4 H          -0.2224    1.2990    0.6262 H       1  LIG1        0.0309
      5 C          -1.2640    0.6130    2.2655 C.3     1  LIG1       -0.0307
      6 H          -1.4459    1.6990    2.3513 H       1  LIG1        0.0309
      7 C          -2.5231    0.0849    1.5037 C.3     1  LIG1       -0.0285
      8 H          -3.0792    1.0212    1.3213 H       1  LIG1        0.0312
      9 C          -2.2109   -0.3965    0.0644 C.3     1  LIG1       -0.0486
     10 C          -1.0099   -1.3338   -0.0433 C.3     1  LIG1       -0.0468
     11 C          -3.5598   -0.8098    2.2958 C.3     1  LIG1       -0.0078
     12 C          -4.9593   -0.4321    1.7269 C.3     1  LIG1       -0.0556
     13 C          -3.5012   -0.5674    3.7944 C.2     1  LIG1       -0.0648
     14 C          -2.3991   -0.0731    4.4208 C.2     1  LIG1       -0.0839
     15 C          -1.1174    0.2023    3.7242 C.3     1  LIG1       -0.0311
     16 C          -4.5688   -1.2241    4.6133 C.3     1  LIG1       -0.0051
     17 C          -4.4225   -2.7453    4.4369 C.3     1  LIG1        0.0590
     18 H          -3.5110   -3.0686    4.9563 H       1  LIG1        0.0596
     19 C          -4.3215   -3.1789    2.9679 C.3     1  LIG1       -0.0258
     20 C          -3.3431   -2.3325    2.1388 C.3     1  LIG1       -0.0413
     21 O          -5.5146   -3.4205    5.0555 O.3     1  LIG1       -0.3915
     22 C           1.3599    0.9206    1.9279 C.3     1  LIG1       -0.0492
     23 C           2.3312    0.4388    0.8230 C.3     1  LIG1       -0.0492
     24 C           1.4708   -0.3018   -0.2672 C.3     1  LIG1       -0.0328
     25 H           2.0221   -1.1750   -0.6406 H       1  LIG1        0.0309
     26 C           1.2219    0.6667   -1.5162 C.3     1  LIG1       -0.0405
     27 H           0.8128    1.6156   -1.1494 H       1  LIG1        0.0301
     28 C           2.5675    1.0028   -2.2548 C.3     1  LIG1       -0.0499
     29 C           2.4675    2.1154   -3.3228 C.3     1  LIG1       -0.0500
     30 C           3.8015    2.5219   -4.0127 C.3     1  LIG1       -0.0415
     31 H           3.5230    3.2810   -4.7593 H       1  LIG1        0.0301
     32 C           4.5380    1.3792   -4.7749 C.3     1  LIG1       -0.0441
     33 C           3.6112    0.6002   -5.7127 C.3     1  LIG1       -0.0624
     34 C           5.7319    1.9254   -5.5809 C.3     1  LIG1       -0.0624
     35 C           4.7496    3.2194   -3.0268 C.3     1  LIG1       -0.0622
     36 C           0.2313    0.1183   -2.5532 C.3     1  LIG1       -0.0621
     37 H          -0.0401   -2.2381    2.2743 H       1  LIG1        0.0235
     38 H           1.6286   -1.7188    2.1539 H       1  LIG1        0.0235
     39 H           0.9771   -2.8359    0.9652 H       1  LIG1        0.0235
     40 H          -2.0272    0.4961   -0.5447 H       1  LIG1        0.0268
     41 H          -3.0811   -0.8769   -0.3942 H       1  LIG1        0.0268
     42 H          -0.8150   -1.6375   -1.0731 H       1  LIG1        0.0271
     43 H          -1.3033   -2.2847    0.4157 H       1  LIG1        0.0271
     44 H          -5.1950    0.6222    1.9096 H       1  LIG1        0.0238
     45 H          -5.7751   -1.0190    2.1530 H       1  LIG1        0.0238
     46 H          -5.0053   -0.5968    0.6419 H       1  LIG1        0.0238
     47 H          -2.3821   -0.0177    5.5015 H       1  LIG1        0.0572
     48 H          -0.4729   -0.6772    3.8411 H       1  LIG1        0.0310
     49 H          -0.6064    1.0186    4.2671 H       1  LIG1        0.0310
     50 H          -5.5720   -0.8803    4.3153 H       1  LIG1        0.0335
     51 H          -4.4995   -0.9784    5.6790 H       1  LIG1        0.0335
     52 H          -5.3159   -3.1629    2.5041 H       1  LIG1        0.0290
     53 H          -4.0127   -4.2321    2.9260 H       1  LIG1        0.0290
     54 H          -3.4501   -2.6353    1.0907 H       1  LIG1        0.0274
     55 H          -2.3233   -2.5950    2.4460 H       1  LIG1        0.0274
     56 H          -6.3270   -3.1523    4.5932 H       1  LIG1        0.2098
     57 H           1.5956    0.4349    2.8815 H       1  LIG1        0.0268
     58 H           1.4431    2.0012    2.0830 H       1  LIG1        0.0268
     59 H           3.0637   -0.2564    1.2529 H       1  LIG1        0.0268
     60 H           2.9016    1.2883    0.4454 H       1  LIG1        0.0268
     61 H           2.9481    0.0850   -2.7144 H       1  LIG1        0.0268
     62 H           3.3171    1.3227   -1.5301 H       1  LIG1        0.0268
     63 H           2.0361    3.0124   -2.8573 H       1  LIG1        0.0268
     64 H           1.7626    1.8307   -4.1105 H       1  LIG1        0.0268
     65 H           4.9392    0.6631   -4.0460 H       1  LIG1        0.0298
     66 H           3.0464    1.2723   -6.3661 H       1  LIG1        0.0232
     67 H           2.9018   -0.0105   -5.1459 H       1  LIG1        0.0232
     68 H           4.1818   -0.0887   -6.3459 H       1  LIG1        0.0232
     69 H           5.5288    2.9244   -5.9824 H       1  LIG1        0.0232
     70 H           5.9897    1.2776   -6.4260 H       1  LIG1        0.0232
     71 H           6.6229    1.9929   -4.9467 H       1  LIG1        0.0232
     72 H           5.5561    3.7358   -3.5594 H       1  LIG1        0.0232
     73 H           5.2112    2.5047   -2.3387 H       1  LIG1        0.0232
     74 H           4.2222    3.9767   -2.4380 H       1  LIG1        0.0232
     75 H           0.1303    0.7793   -3.4177 H       1  LIG1        0.0233
     76 H          -0.7836    0.0596   -2.1693 H       1  LIG1        0.0233
     77 H           0.5334   -0.8700   -2.9132 H       1  LIG1        0.0233
@<TRIPOS>BOND
     1     2     3    1
     2     3     5    1
     3     5     7    1
     4     7     9    1
     5     9    10    1
     6     2    10    1
     7     7    11    1
     8    11    13    1
     9    13    14    2
    10    14    15    1
    11     5    15    1
    12    13    16    1
    13    16    17    1
    14    17    19    1
    15    19    20    1
    16    11    20    1
    17     3    22    1
    18    22    23    1
    19    23    24    1
    20     2    24    1
    21    26    27    1
    22    26    28    1
    23    28    29    1
    24    30    32    1
    25    32    33    1
    26    32    34    1
    27    30    35    1
    28    26    36    1
    29     1     2    1
    30     3     4    1
    31     5     6    1
    32     7     8    1
    33    11    12    1
    34    17    21    1
    35    17    18    1
    36    24    26    1
    37    24    25    1
    38    30    31    1
    39    30    29    1
    40     1    37    1
    41     1    38    1
    42     1    39    1
    43     9    40    1
    44     9    41    1
    45    10    42    1
    46    10    43    1
    47    12    44    1
    48    12    45    1
    49    12    46    1
    50    14    47    1
    51    15    48    1
    52    15    49    1
    53    16    50    1
    54    16    51    1
    55    19    52    1
    56    19    53    1
    57    20    54    1
    58    20    55    1
    59    21    56    1
    60    22    57    1
    61    22    58    1
    62    23    59    1
    63    23    60    1
    64    28    61    1
    65    28    62    1
    66    29    63    1
    67    29    64    1
    68    32    65    1
    69    33    66    1
    70    33    67    1
    71    33    68    1
    72    34    69    1
    73    34    70    1
    74    34    71    1
    75    35    72    1
    76    35    73    1
    77    35    74    1
    78    36    75    1
    79    36    76    1
    80    36    77    1
