REMARK  Name = NuBBE_1327
REMARK  7 active torsions:
REMARK  status: ('A' for Active; 'I' for Inactive)
REMARK    1  A    between atoms: C_4  and  C_18
REMARK    2  A    between atoms: C_14  and  C_15
REMARK    3  A    between atoms: C_14  and  C_17
REMARK    4  A    between atoms: C_21  and  O_26
REMARK    5  A    between atoms: C_22  and  O_23
REMARK    6  A    between atoms: O_23  and  C_24
REMARK    7  A    between atoms: O_26  and  C_27
REMARK                            x       y       z     vdW  Elec       q    Type
REMARK                         _______ _______ _______ _____ _____    ______ ____
ROOT
ATOM      1  O   LIG A   1      -4.784   0.587  -0.415  0.00  0.00    -0.292 OA
ATOM      2  C   LIG A   1      -3.583   0.380  -0.307  0.00  0.00    +0.171 C 
ATOM      3  C   LIG A   1      -2.953  -0.932  -0.690  0.00  0.00    +0.129 C 
ATOM      4  C   LIG A   1      -1.732  -1.159   0.189  0.00  0.00    +0.211 C 
ATOM      5  O   LIG A   1      -0.793  -0.083   0.057  0.00  0.00    -0.482 OA
ATOM      6  C   LIG A   1      -1.308   1.164   0.283  0.00  0.00    +0.142 A 
ATOM      7  C   LIG A   1      -2.666   1.451   0.137  0.00  0.00    +0.060 A 
ATOM      8  C   LIG A   1      -3.143   2.745   0.361  0.00  0.00    +0.019 A 
ATOM      9  C   LIG A   1      -2.251   3.755   0.725  0.00  0.00    +0.047 A 
ATOM     10  C   LIG A   1      -0.891   3.472   0.868  0.00  0.00    +0.132 A 
ATOM     11  C   LIG A   1      -0.406   2.181   0.637  0.00  0.00    +0.059 A 
ATOM     12  C   LIG A   1       1.026   1.929   0.764  0.00  0.00    +0.015 C 
ATOM     13  C   LIG A   1       1.799   2.908   1.241  0.00  0.00    +0.020 C 
ATOM     14  C   LIG A   1       1.258   4.261   1.637  0.00  0.00    +0.123 C 
ATOM     15  C   LIG A   1       2.126   5.352   0.999  0.00  0.00    +0.060 C 
ATOM     16  O   LIG A   1      -0.095   4.530   1.210  0.00  0.00    -0.481 OA
ATOM     17  C   LIG A   1       1.290   4.401   3.163  0.00  0.00    +0.060 C 
ENDROOT
BRANCH   4  18
ATOM     18  C   LIG A   1      -0.997  -2.434  -0.190  0.00  0.00    -0.003 A 
ATOM     19  C   LIG A   1      -1.301  -3.649   0.424  0.00  0.00    +0.011 A 
ATOM     20  C   LIG A   1      -0.592  -4.802   0.078  0.00  0.00    +0.050 A 
ATOM     21  C   LIG A   1       0.438  -4.770  -0.875  0.00  0.00    +0.162 A 
ATOM     22  C   LIG A   1       0.741  -3.562  -1.522  0.00  0.00    +0.162 A 
ATOM     23  C   LIG A   1       0.013  -2.414  -1.171  0.00  0.00    +0.056 A 
BRANCH  22  24
ATOM     24  O   LIG A   1       1.712  -3.556  -2.489  0.00  0.00    -0.491 OA
ATOM     25  C   LIG A   1       1.998  -2.316  -3.130  0.00  0.00    +0.277 C 
ENDBRANCH  22  24
BRANCH  21  26
ATOM     26  O   LIG A   1       0.993  -6.003  -1.102  0.00  0.00    -0.491 OA
ATOM     27  C   LIG A   1       2.367  -6.045  -1.465  0.00  0.00    +0.277 C 
ENDBRANCH  21  26
ENDBRANCH   4  18
TORSDOF 3
