REMARK  Name = NuBBE_1197
REMARK  15 active torsions:
REMARK  status: ('A' for Active; 'I' for Inactive)
REMARK    1  A    between atoms: C_1  and  C_2
REMARK    2  A    between atoms: C_2  and  C_12
REMARK    3  A    between atoms: C_4  and  C_5
REMARK    4  A    between atoms: C_5  and  C_6
REMARK    5  A    between atoms: C_5  and  O_7
REMARK    6  A    between atoms: C_5  and  C_8
REMARK    7  A    between atoms: C_16  and  C_17
REMARK    8  A    between atoms: C_18  and  C_23
REMARK    9  A    between atoms: C_26  and  C_34
REMARK   10  A    between atoms: C_27  and  C_28
REMARK   11  A    between atoms: C_27  and  C_29
REMARK   12  A    between atoms: C_29  and  C_30
REMARK   13  A    between atoms: C_30  and  C_31
REMARK   14  A    between atoms: C_31  and  O_32
REMARK   15  A    between atoms: C_34  and  C_35
REMARK                            x       y       z     vdW  Elec       q    Type
REMARK                         _______ _______ _______ _____ _____    ______ ____
ROOT
ATOM      1  C   LIG A   1      -1.969  -0.630   2.466  0.00  0.00    +0.024 C 
ATOM      2  C   LIG A   1      -1.709   0.692   3.213  0.00  0.00    +0.007 C 
ATOM      3  C   LIG A   1      -1.310   1.783   2.212  0.00  0.00    +0.008 C 
ATOM      4  C   LIG A   1      -1.720   1.321   0.786  0.00  0.00    -0.023 C 
ATOM      5  C   LIG A   1      -2.874   2.259   0.334  0.00  0.00    +0.012 C 
ATOM      6  C   LIG A   1      -0.531   1.312  -0.306  0.00  0.00    -0.023 C 
ATOM      7  C   LIG A   1      -1.058   0.658  -1.662  0.00  0.00    +0.002 C 
ATOM      8  C   LIG A   1      -2.078  -0.486  -1.469  0.00  0.00    +0.005 C 
ATOM      9  C   LIG A   1      -1.943  -1.114  -0.103  0.00  0.00    +0.005 C 
ATOM     10  C   LIG A   1      -2.286  -0.139   1.014  0.00  0.00    +0.001 C 
ATOM     11  C   LIG A   1       0.709   0.665   0.357  0.00  0.00    +0.012 C 
ATOM     12  C   LIG A   1      -0.046   2.707  -0.779  0.00  0.00    +0.008 C 
ATOM     13  C   LIG A   1       1.178   2.583  -1.710  0.00  0.00    +0.009 C 
ATOM     14  C   LIG A   1       1.048   1.610  -2.913  0.00  0.00    +0.020 C 
ATOM     15  C   LIG A   1       0.015   0.393  -2.799  0.00  0.00    -0.022 C 
ATOM     16  C   LIG A   1       0.687  -0.996  -2.598  0.00  0.00    +0.012 C 
ENDROOT
BRANCH   1  18
ATOM     17  C   LIG A   1      -1.406  -3.152   2.050  0.00  0.00    +0.042 C 
ATOM     18  C   LIG A   1      -0.985  -1.840   2.767  0.00  0.00    +0.070 C 
ATOM     19  O   LIG A   1       0.376  -1.538   2.423  0.00  0.00    -0.367 OA
ATOM     20  C   LIG A   1       1.273  -2.359   3.208  0.00  0.00    +0.150 C 
ATOM     21  C   LIG A   1       0.448  -2.904   4.372  0.00  0.00    +0.037 C 
ATOM     22  C   LIG A   1      -0.879  -2.172   4.263  0.00  0.00    +0.037 C 
BRANCH  20  23
ATOM     23  C   LIG A   1       2.546  -1.562   3.601  0.00  0.00    +0.086 C 
ATOM     24  C   LIG A   1       3.530  -2.445   4.373  0.00  0.00    +0.043 C 
ATOM     25  C   LIG A   1       2.232  -0.285   4.382  0.00  0.00    +0.043 C 
BRANCH  23  26
ATOM     26  O   LIG A   1       3.224  -1.158   2.399  0.00  0.00    -0.387 OA
ATOM     27  H   LIG A   1       2.547  -0.724   1.844  0.00  0.00    +0.210 HD
ENDBRANCH  23  26
ENDBRANCH  20  23
ENDBRANCH   1  18
BRANCH  14  28
ATOM     28  C   LIG A   1       2.445   1.367  -3.522  0.00  0.00    -0.076 C 
ATOM     29  C   LIG A   1       3.372   0.320  -2.959  0.00  0.00    +0.038 C 
ATOM     30  C   LIG A   1       2.914   2.173  -4.495  0.00  0.00    +0.007 C 
ENDBRANCH  14  28
BRANCH  15  31
ATOM     31  C   LIG A   1      -0.723   0.227  -4.201  0.00  0.00    +0.018 C 
BRANCH  31  32
ATOM     32  C   LIG A   1      -1.560   1.406  -4.734  0.00  0.00    +0.121 C 
BRANCH  32  33
ATOM     33  C   LIG A   1      -2.173   1.025  -6.055  0.00  0.00    +0.305 C 
ATOM     34  O   LIG A   1      -3.278   0.514  -6.229  0.00  0.00    -0.251 OA
BRANCH  33  35
ATOM     35  O   LIG A   1      -1.404   1.440  -7.082  0.00  0.00    -0.481 OA
ATOM     36  H   LIG A   1      -1.951   1.285  -7.885  0.00  0.00    +0.295 HD
ENDBRANCH  33  35
ENDBRANCH  32  33
ENDBRANCH  31  32
ENDBRANCH  15  31
TORSDOF 8
