REMARK  Name = NuBBE_1020
REMARK  10 active torsions:
REMARK  status: ('A' for Active; 'I' for Inactive)
REMARK    1  A    between atoms: C_1  and  C_2
REMARK    2  A    between atoms: C_2  and  C_21
REMARK    3  A    between atoms: C_8  and  O_9
REMARK    4  A    between atoms: O_9  and  C_10
REMARK    5  A    between atoms: C_11  and  C_16
REMARK    6  A    between atoms: C_12  and  O_13
REMARK    7  A    between atoms: O_13  and  C_14
REMARK    8  A    between atoms: C_16  and  C_17
REMARK    9  A    between atoms: C_17  and  C_18
REMARK   10  A    between atoms: C_18  and  O_19
REMARK                            x       y       z     vdW  Elec       q    Type
REMARK                         _______ _______ _______ _____ _____    ______ ____
ROOT
ATOM      1  C   LIG A   1      -3.486   0.648  -2.570  0.00  0.00    +0.060 C 
ATOM      2  C   LIG A   1      -2.347  -0.158  -3.215  0.00  0.00    +0.123 C 
ATOM      3  O   LIG A   1      -1.932  -1.184  -2.286  0.00  0.00    -0.481 OA
ATOM      4  C   LIG A   1      -0.992  -0.815  -1.349  0.00  0.00    +0.136 A 
ATOM      5  C   LIG A   1      -0.076   0.230  -1.522  0.00  0.00    +0.059 A 
ATOM      6  C   LIG A   1      -0.104   0.884  -2.847  0.00  0.00    +0.015 C 
ATOM      7  C   LIG A   1      -1.189   0.723  -3.624  0.00  0.00    +0.020 C 
ATOM      8  C   LIG A   1       0.812   0.567  -0.442  0.00  0.00    +0.137 A 
ATOM      9  C   LIG A   1       0.869  -0.246   0.741  0.00  0.00    +0.037 A 
ATOM     10  C   LIG A   1      -0.026  -1.356   0.828  0.00  0.00    +0.130 A 
ATOM     11  C   LIG A   1      -0.969  -1.583  -0.191  0.00  0.00    +0.092 A 
ATOM     12  C   LIG A   1      -2.898  -0.882  -4.459  0.00  0.00    +0.060 C 
ENDROOT
BRANCH   8  13
ATOM     13  O   LIG A   1       1.615   1.670  -0.664  0.00  0.00    -0.494 OA
ATOM     14  C   LIG A   1       1.977   2.530   0.416  0.00  0.00    +0.277 C 
ENDBRANCH   8  13
BRANCH  10  15
ATOM     15  O   LIG A   1      -0.123  -2.343   1.797  0.00  0.00    -0.495 OA
ATOM     16  C   LIG A   1       0.794  -2.349   2.865  0.00  0.00    +0.277 C 
ENDBRANCH  10  15
BRANCH   9  17
ATOM     17  C   LIG A   1       1.910   0.000   1.833  0.00  0.00    +0.053 C 
BRANCH  17  18
ATOM     18  C   LIG A   1       1.337   0.539   3.195  0.00  0.00    +0.125 C 
BRANCH  18  19
ATOM     19  C   LIG A   1       2.222   0.068   4.362  0.00  0.00    +0.305 C 
ATOM     20  O   LIG A   1       2.018  -0.794   5.140  0.00  0.00    -0.251 OA
BRANCH  19  21
ATOM     21  O   LIG A   1       3.376   0.770   4.382  0.00  0.00    -0.481 OA
ATOM     22  H   LIG A   1       3.848   0.368   5.145  0.00  0.00    +0.295 HD
ENDBRANCH  19  21
ENDBRANCH  18  19
ENDBRANCH  17  18
ENDBRANCH   9  17
TORSDOF 6
