@<TRIPOS>MOLECULE
NuBBE_2301
 56 60 0 0 0
SMALL
GASTEIGER

@<TRIPOS>ATOM
      1 C          -2.3869   -0.8994   -0.9947 C.3     1  LIG1       -0.0488
      2 C          -3.7770   -0.6148   -1.5626 C.3     1  LIG1       -0.0647
      3 C          -1.2119   -0.7782   -2.0075 C.3     1  LIG1       -0.0129
      4 C           0.1484   -1.0823   -1.3830 C.3     1  LIG1        0.0274
      5 H           0.8010   -0.8657   -2.2551 H       1  LIG1        0.0477
      6 C           0.6517   -0.2038   -0.2459 C.3     1  LIG1        0.0337
      7 C           0.1283    1.2258   -0.4502 C.3     1  LIG1        0.0424
      8 H          -0.9336    1.2811   -0.1594 H       1  LIG1        0.0514
      9 C           0.0231    1.6074   -1.9202 C.3     1  LIG1       -0.0325
     10 C          -1.0519    0.6822   -2.6156 C.3     1  LIG1       -0.0442
     11 N           0.7147    1.9860    0.6550 N.am    1  LIG1       -0.2642
     12 C           0.5957    1.0880    1.7725 C.ar    1  LIG1        0.0823
     13 C           0.4294   -0.2333    1.2554 C.ar    1  LIG1       -0.0129
     14 C           0.2699   -1.3328    2.0852 C.ar    1  LIG1       -0.0559
     15 C           0.2843   -1.1235    3.4583 C.ar    1  LIG1       -0.0579
     16 C           0.4093    0.1734    3.9832 C.ar    1  LIG1       -0.0181
     17 C           0.5436    1.2980    3.1492 C.ar    1  LIG1        0.1417
     18 O           0.4642    2.5696    3.6352 O.3     1  LIG1       -0.4932
     19 C           1.0450    2.7919    4.9175 C.3     1  LIG1        0.0789
     20 C           1.0060    3.3275    0.5777 C.2     1  LIG1        0.2170
     21 O           0.7415    3.9990   -0.4178 O.2     1  LIG1       -0.2755
     22 C           1.7641    3.9919    1.6940 C.3     1  LIG1        0.0127
     23 C           2.1333   -0.6396   -0.3809 C.3     1  LIG1       -0.0273
     24 C           2.0028   -2.1827   -0.6580 C.3     1  LIG1        0.0001
     25 N           0.5621   -2.4104   -0.9715 N.3     1  LIG1       -0.2979
     26 C           0.3149   -3.4085   -2.0096 C.3     1  LIG1       -0.0008
     27 C          -1.0900   -3.2664   -2.6310 C.3     1  LIG1       -0.0396
     28 C          -1.3659   -1.8380   -3.1412 C.3     1  LIG1       -0.0448
     29 H          -2.4000   -1.9053   -0.5579 H       1  LIG1        0.0268
     30 H          -2.2496   -0.2309   -0.1445 H       1  LIG1        0.0268
     31 H          -4.0400   -1.2989   -2.3758 H       1  LIG1        0.0230
     32 H          -3.8691    0.4090   -1.9280 H       1  LIG1        0.0230
     33 H          -4.5292   -0.7461   -0.7774 H       1  LIG1        0.0230
     34 H           0.9948    1.5098   -2.4171 H       1  LIG1        0.0284
     35 H          -0.3006    2.6431   -2.0582 H       1  LIG1        0.0284
     36 H          -0.7739    0.6196   -3.6760 H       1  LIG1        0.0272
     37 H          -2.0124    1.2060   -2.6010 H       1  LIG1        0.0272
     38 H           0.1795   -2.3373    1.6841 H       1  LIG1        0.0621
     39 H           0.1854   -1.9711    4.1329 H       1  LIG1        0.0619
     40 H           0.3506    0.2750    5.0622 H       1  LIG1        0.0655
     41 H           1.0257    3.8714    5.1038 H       1  LIG1        0.0660
     42 H           2.0903    2.4666    4.9348 H       1  LIG1        0.0660
     43 H           0.4683    2.3172    5.7148 H       1  LIG1        0.0660
     44 H           2.4365    4.7406    1.2602 H       1  LIG1        0.0323
     45 H           2.3955    3.2880    2.2389 H       1  LIG1        0.0323
     46 H           1.0669    4.5139    2.3522 H       1  LIG1        0.0323
     47 H           2.7691   -0.4522    0.4922 H       1  LIG1        0.0287
     48 H           2.6078   -0.1467   -1.2398 H       1  LIG1        0.0287
     49 H           2.2879   -2.7676    0.2223 H       1  LIG1        0.0427
     50 H           2.6688   -2.4530   -1.4865 H       1  LIG1        0.0427
     51 H           1.0542   -3.3355   -2.8166 H       1  LIG1        0.0427
     52 H           0.4095   -4.4083   -1.5712 H       1  LIG1        0.0427
     53 H          -1.8524   -3.5623   -1.9018 H       1  LIG1        0.0278
     54 H          -1.1779   -3.9682   -3.4690 H       1  LIG1        0.0278
     55 H          -2.3538   -1.7887   -3.6115 H       1  LIG1        0.0271
     56 H          -0.6478   -1.6303   -3.9450 H       1  LIG1        0.0271
@<TRIPOS>BOND
     1     1     2    1
     2     3     4    1
     3     4     6    1
     4     6     7    1
     5     7     9    1
     6     9    10    1
     7     3    10    1
     8     7    11    1
     9    11    12    1
    10    12    13   ar
    11     6    13    1
    12    13    14   ar
    13    14    15   ar
    14    15    16   ar
    15    16    17   ar
    16    12    17   ar
    17    18    19    1
    18    20    21    2
    19    20    22    1
    20     6    23    1
    21    23    24    1
    22    24    25    1
    23     4    25    1
    24    25    26    1
    25    26    27    1
    26    27    28    1
    27     3    28    1
    28     1     3    1
    29     4     5    1
    30     7     8    1
    31    11    20   am
    32    17    18    1
    33     1    29    1
    34     1    30    1
    35     2    31    1
    36     2    32    1
    37     2    33    1
    38     9    34    1
    39     9    35    1
    40    10    36    1
    41    10    37    1
    42    14    38    1
    43    15    39    1
    44    16    40    1
    45    19    41    1
    46    19    42    1
    47    19    43    1
    48    22    44    1
    49    22    45    1
    50    22    46    1
    51    23    47    1
    52    23    48    1
    53    24    49    1
    54    24    50    1
    55    26    51    1
    56    26    52    1
    57    27    53    1
    58    27    54    1
    59    28    55    1
    60    28    56    1
