REMARK  Name = NuBBE_147
REMARK  6 active torsions:
REMARK  status: ('A' for Active; 'I' for Inactive)
REMARK    1  A    between atoms: C_1  and  O_2
REMARK    2  A    between atoms: O_2  and  C_3
REMARK    3  A    between atoms: C_4  and  O_5
REMARK    4  A    between atoms: O_5  and  C_6
REMARK    5  A    between atoms: C_7  and  O_8
REMARK    6  A    between atoms: C_12  and  C_13
REMARK                            x       y       z     vdW  Elec       q    Type
REMARK                         _______ _______ _______ _____ _____    ______ ____
ROOT
ATOM      1  C   LIG A   1      -0.463  -1.214   0.900  0.00  0.00    +0.169 A 
ATOM      2  C   LIG A   1       0.370  -1.782  -0.076  0.00  0.00    +0.204 A 
ATOM      3  C   LIG A   1       0.948  -0.960  -1.065  0.00  0.00    +0.177 A 
ATOM      4  C   LIG A   1       0.747   0.422  -1.068  0.00  0.00    +0.109 A 
ATOM      5  C   LIG A   1       1.337   1.334  -2.073  0.00  0.00    +0.196 A 
ATOM      6  C   LIG A   1       1.004   2.764  -1.932  0.00  0.00    +0.093 A 
ATOM      7  C   LIG A   1       0.223   3.174  -0.925  0.00  0.00    +0.106 A 
ATOM      8  C   LIG A   1      -0.151   4.610  -0.733  0.00  0.00    +0.086 C 
ATOM      9  O   LIG A   1      -0.312   2.327   0.027  0.00  0.00    -0.460 OA
ATOM     10  C   LIG A   1      -0.050   0.981  -0.070  0.00  0.00    +0.146 A 
ATOM     11  C   LIG A   1      -0.647   0.174   0.906  0.00  0.00    +0.096 A 
ATOM     12  O   LIG A   1       2.065   0.987  -2.993  0.00  0.00    -0.287 OA
ENDROOT
BRANCH   1  14
ATOM     13  C   LIG A   1      -2.309  -1.611   2.340  0.00  0.00    +0.277 C 
ATOM     14  O   LIG A   1      -1.050  -2.034   1.825  0.00  0.00    -0.491 OA
ENDBRANCH   1  14
BRANCH   2  15
ATOM     15  O   LIG A   1       0.669  -3.117  -0.237  0.00  0.00    -0.488 OA
ATOM     16  C   LIG A   1       0.669  -3.925   0.934  0.00  0.00    +0.277 C 
ENDBRANCH   2  15
BRANCH   3  17
ATOM     17  O   LIG A   1       1.719  -1.564  -2.026  0.00  0.00    -0.503 OA
ATOM     18  H   LIG A   1       1.687  -2.522  -1.838  0.00  0.00    +0.292 HD
ENDBRANCH   3  17
TORSDOF 3
