@<TRIPOS>MOLECULE
NuBBE_2267
 31 32 0 0 0
SMALL
GASTEIGER

@<TRIPOS>ATOM
      1 C           0.5331   -0.9196    0.2549 C.2     1  LIG1       -0.0425
      2 C           1.7131   -0.3396   -0.0219 C.2     1  LIG1        0.0285
      3 C           1.7099    1.0989   -0.4082 C.2     1  LIG1        0.2332
      4 O           2.6307    1.6412   -1.0018 O.2     1  LIG1       -0.2832
      5 C           0.4810    1.8965   -0.0123 C.2     1  LIG1        0.2337
      6 O           0.5978    3.0810    0.2651 O.2     1  LIG1       -0.2832
      7 C          -0.8147    1.1749    0.0467 C.ar    1  LIG1        0.0359
      8 C          -0.7678   -0.2315    0.1695 C.ar    1  LIG1       -0.0103
      9 C          -1.9777   -0.9583    0.2378 C.ar    1  LIG1       -0.0426
     10 C          -3.1965   -0.2656    0.1953 C.ar    1  LIG1       -0.0580
     11 C          -3.2302    1.1224    0.0775 C.ar    1  LIG1       -0.0579
     12 C          -2.0458    1.8634   -0.0062 C.ar    1  LIG1       -0.0389
     13 C          -2.1453    3.3591   -0.1401 C.3     1  LIG1       -0.0390
     14 C          -2.0200   -2.4595    0.3636 C.3     1  LIG1       -0.0391
     15 C           2.9636   -1.0880    0.0341 C.2     1  LIG1       -0.0466
     16 C           3.4242   -1.5968    1.1893 C.2     1  LIG1       -0.0951
     17 C           3.6944   -1.2847   -1.2661 C.3     1  LIG1       -0.0396
     18 H           0.5237   -1.9695    0.5352 H       1  LIG1        0.0631
     19 H          -4.1402   -0.8062    0.2535 H       1  LIG1        0.0620
     20 H          -4.1969    1.6230    0.0479 H       1  LIG1        0.0620
     21 H          -3.1797    3.6765   -0.3130 H       1  LIG1        0.0278
     22 H          -1.5617    3.7107   -0.9968 H       1  LIG1        0.0278
     23 H          -1.8023    3.8479    0.7769 H       1  LIG1        0.0278
     24 H          -1.4631   -2.9281   -0.4543 H       1  LIG1        0.0278
     25 H          -3.0460   -2.8399    0.3119 H       1  LIG1        0.0278
     26 H          -1.6008   -2.7721    1.3252 H       1  LIG1        0.0278
     27 H           2.9031   -1.4546    2.1317 H       1  LIG1        0.0538
     28 H           4.3550   -2.1556    1.2277 H       1  LIG1        0.0538
     29 H           4.0996   -0.3415   -1.6436 H       1  LIG1        0.0278
     30 H           3.0246   -1.7056   -2.0240 H       1  LIG1        0.0278
     31 H           4.5349   -1.9791   -1.1556 H       1  LIG1        0.0278
@<TRIPOS>BOND
     1     1     2    2
     2     2     3    1
     3     3     4    2
     4     3     5    1
     5     5     6    2
     6     5     7    1
     7     7     8   ar
     8     1     8    1
     9     8     9   ar
    10     9    10   ar
    11    10    11   ar
    12    11    12   ar
    13     7    12   ar
    14    12    13    1
    15     9    14    1
    16     2    15    1
    17    15    16    2
    18    15    17    1
    19     1    18    1
    20    10    19    1
    21    11    20    1
    22    13    21    1
    23    13    22    1
    24    13    23    1
    25    14    24    1
    26    14    25    1
    27    14    26    1
    28    16    27    1
    29    16    28    1
    30    17    29    1
    31    17    30    1
    32    17    31    1
