REMARK  Name = NuBBE_1421
REMARK  10 active torsions:
REMARK  status: ('A' for Active; 'I' for Inactive)
REMARK    1  A    between atoms: O_1  and  C_2
REMARK    2  A    between atoms: O_1  and  C_3
REMARK    3  A    between atoms: C_5  and  C_11
REMARK    4  A    between atoms: C_8  and  O_9
REMARK    5  A    between atoms: O_9  and  C_10
REMARK    6  A    between atoms: C_19  and  C_23
REMARK    7  A    between atoms: C_25  and  O_26
REMARK    8  A    between atoms: O_26  and  C_27
REMARK    9  A    between atoms: C_28  and  O_31
REMARK   10  A    between atoms: O_31  and  C_32
REMARK                            x       y       z     vdW  Elec       q    Type
REMARK                         _______ _______ _______ _____ _____    ______ ____
ROOT
ATOM      1  C   LIG A   1      -0.407  -0.265  -0.822  0.00  0.00    +0.154 C 
ATOM      2  C   LIG A   1      -1.915  -0.156  -1.047  0.00  0.00    +0.056 C 
ATOM      3  C   LIG A   1      -2.215   1.270  -0.673  0.00  0.00    +0.056 C 
ATOM      4  C   LIG A   1      -0.955   1.995  -1.060  0.00  0.00    +0.167 C 
ATOM      5  O   LIG A   1       0.122   1.079  -0.854  0.00  0.00    -0.371 OA
ATOM      6  C   LIG A   1      -2.615   1.182   0.804  0.00  0.00    +0.154 C 
ATOM      7  O   LIG A   1      -3.196  -0.129   0.962  0.00  0.00    -0.371 OA
ATOM      8  C   LIG A   1      -2.756  -0.982  -0.103  0.00  0.00    +0.167 C 
ENDROOT
BRANCH   1  11
ATOM      9  C   LIG A   1       1.399  -1.289  -4.030  0.00  0.00    +0.162 A 
ATOM     10  C   LIG A   1       0.736  -0.536  -3.054  0.00  0.00    +0.055 A 
ATOM     11  C   LIG A   1       0.272  -1.119  -1.865  0.00  0.00    -0.015 A 
ATOM     12  C   LIG A   1       0.446  -2.481  -1.672  0.00  0.00    +0.010 A 
ATOM     13  C   LIG A   1       1.095  -3.252  -2.638  0.00  0.00    +0.050 A 
ATOM     14  C   LIG A   1       1.578  -2.664  -3.822  0.00  0.00    +0.162 A 
BRANCH   9  15
ATOM     15  O   LIG A   1       1.886  -0.723  -5.189  0.00  0.00    -0.491 OA
ATOM     16  C   LIG A   1       1.691   0.682  -5.339  0.00  0.00    +0.277 C 
ENDBRANCH   9  15
BRANCH  14  17
ATOM     17  O   LIG A   1       2.227  -3.385  -4.801  0.00  0.00    -0.491 OA
ATOM     18  C   LIG A   1       2.325  -4.790  -4.593  0.00  0.00    +0.277 C 
ENDBRANCH  14  17
ENDBRANCH   1  11
BRANCH   6  19
ATOM     19  C   LIG A   1      -1.594   1.425   1.900  0.00  0.00    -0.015 A 
ATOM     20  C   LIG A   1      -0.893   0.383   2.532  0.00  0.00    +0.055 A 
ATOM     21  C   LIG A   1       0.019   0.617   3.575  0.00  0.00    +0.162 A 
ATOM     22  C   LIG A   1       0.221   1.924   4.034  0.00  0.00    +0.162 A 
ATOM     23  C   LIG A   1      -0.475   2.972   3.410  0.00  0.00    +0.050 A 
ATOM     24  C   LIG A   1      -1.359   2.725   2.353  0.00  0.00    +0.010 A 
BRANCH  21  25
ATOM     25  O   LIG A   1       0.654  -0.526   3.993  0.00  0.00    -0.491 OA
ATOM     26  C   LIG A   1       1.082  -0.580   5.346  0.00  0.00    +0.277 C 
ENDBRANCH  21  25
BRANCH  22  27
ATOM     27  O   LIG A   1       1.142   2.150   5.021  0.00  0.00    -0.491 OA
ATOM     28  C   LIG A   1       0.936   3.296   5.838  0.00  0.00    +0.277 C 
ENDBRANCH  22  27
ENDBRANCH   6  19
TORSDOF 6
