@<TRIPOS>MOLECULE
NuBBE_1662
 35 38 0 0 0
SMALL
GASTEIGER

@<TRIPOS>ATOM
      1 O          -1.8299    0.5474   -0.1908 O.2     1  LIG1       -0.2864
      2 C          -0.6085    0.4439   -0.1336 C.ar    1  LIG1        0.2003
      3 C           0.2309    1.6561   -0.0802 C.ar    1  LIG1        0.0682
      4 C           1.6125    1.5182   -0.0652 C.ar    1  LIG1        0.1421
      5 O           2.2349    0.3003   -0.1057 O.2     1  LIG1       -0.4620
      6 C           1.4434   -0.8212   -0.0934 C.ar    1  LIG1        0.1038
      7 C           0.0995   -0.8754   -0.1097 C.ar    1  LIG1        0.0644
      8 C          -0.6073   -2.1829   -0.0720 C.ar    1  LIG1       -0.0076
      9 C          -0.0541   -3.3237   -0.6876 C.ar    1  LIG1       -0.0082
     10 C          -0.7353   -4.5224   -0.6079 C.ar    1  LIG1        0.1668
     11 C          -1.9409   -4.6314    0.0375 C.ar    1  LIG1        0.1663
     12 C          -2.5301   -3.5465    0.6423 C.ar    1  LIG1       -0.0156
     13 C          -1.8530   -2.3197    0.5880 C.ar    1  LIG1       -0.0501
     14 O          -2.4417   -5.8939   -0.0053 O.3     1  LIG1       -0.4526
     15 C          -1.4120   -6.5688   -0.7572 C.3     1  LIG1        0.2332
     16 O          -0.3197   -5.7051   -1.1364 O.3     1  LIG1       -0.4526
     17 C           2.4314    2.6452   -0.0065 C.ar    1  LIG1        0.0265
     18 C           1.8591    3.9191    0.0515 C.ar    1  LIG1        0.1620
     19 C           0.4661    4.0719    0.0458 C.ar    1  LIG1        0.1622
     20 C          -0.3429    2.9312   -0.0376 C.ar    1  LIG1       -0.0019
     21 O          -0.2368    5.2465    0.0644 O.3     1  LIG1       -0.4914
     22 C           0.3675    6.3426    0.7400 C.3     1  LIG1        0.0790
     23 O           2.6896    5.0037    0.0907 O.3     1  LIG1       -0.5032
     24 H           2.0894   -1.6904   -0.0579 H       1  LIG1        0.1037
     25 H           0.8863   -3.2930   -1.2271 H       1  LIG1        0.0661
     26 H          -3.4872   -3.6353    1.1439 H       1  LIG1        0.0655
     27 H          -2.3190   -1.4631    1.0733 H       1  LIG1        0.0625
     28 H          -1.8578   -6.9879   -1.6667 H       1  LIG1        0.1166
     29 H          -1.0151   -7.3901   -0.1494 H       1  LIG1        0.1166
     30 H           3.5091    2.5129   -0.0078 H       1  LIG1        0.0692
     31 H          -1.4256    3.0429   -0.0562 H       1  LIG1        0.0663
     32 H          -0.4039    7.1059    0.8835 H       1  LIG1        0.0660
     33 H           1.1541    6.8003    0.1343 H       1  LIG1        0.0660
     34 H           0.7341    6.0531    1.7309 H       1  LIG1        0.0660
     35 H           3.6132    4.7099    0.0284 H       1  LIG1        0.2923
@<TRIPOS>BOND
     1     1     2    2
     2     2     3   ar
     3     3     4   ar
     4     4     5   ar
     5     5     6   ar
     6     6     7   ar
     7     2     7   ar
     8     7     8    1
     9     8     9   ar
    10     9    10   ar
    11    10    11   ar
    12    11    12   ar
    13    12    13   ar
    14     8    13   ar
    15    11    14    1
    16    14    15    1
    17    15    16    1
    18    10    16    1
    19     4    17   ar
    20    17    18   ar
    21    18    19   ar
    22    19    20   ar
    23     3    20   ar
    24    19    21    1
    25    21    22    1
    26    18    23    1
    27     6    24    1
    28     9    25    1
    29    12    26    1
    30    13    27    1
    31    15    28    1
    32    15    29    1
    33    17    30    1
    34    20    31    1
    35    22    32    1
    36    22    33    1
    37    22    34    1
    38    23    35    1
