@<TRIPOS>MOLECULE
NuBBE_2091
 45 46 0 0 0
SMALL
GASTEIGER

@<TRIPOS>ATOM
      1 O          -0.8800   -1.4026    0.0690 O.2     1  LIG1       -0.2708
      2 C           0.1665   -0.8308   -0.2234 C.2     1  LIG1        0.2370
      3 N           1.3281   -1.4670   -0.5619 N.am    1  LIG1       -0.3080
      4 C           1.4366   -2.9157   -0.6337 C.3     1  LIG1        0.0513
      5 C           2.8401   -3.4443   -1.0418 C.3     1  LIG1        0.1233
      6 O           3.2120   -2.9694   -2.3733 O.3     1  LIG1       -0.4572
      7 C           3.6062   -1.6778   -2.5503 C.2     1  LIG1        0.3045
      8 C           3.9375   -1.4049   -3.9822 C.3     1  LIG1        0.0333
      9 O           3.6851   -0.8256   -1.6803 O.2     1  LIG1       -0.2511
     10 C           3.9289   -3.1222   -0.0058 C.3     1  LIG1       -0.0236
     11 C           2.7774   -4.9829   -1.1671 C.3     1  LIG1       -0.0236
     12 C           0.2792    0.6458   -0.2789 C.2     1  LIG1        0.0001
     13 C          -0.0574    1.4689    0.7229 C.2     1  LIG1       -0.0568
     14 C          -0.4457    1.0605    2.0509 C.2     1  LIG1       -0.0610
     15 C          -1.5713    1.4082    2.6926 C.2     1  LIG1       -0.0545
     16 C          -2.6808    2.1970    2.1498 C.ar    1  LIG1       -0.0213
     17 C          -2.6863    3.5936    2.2499 C.ar    1  LIG1       -0.0090
     18 C          -3.7958    4.2677    1.7791 C.ar    1  LIG1        0.1668
     19 O          -3.9774    5.6164    1.8049 O.3     1  LIG1       -0.4526
     20 C          -5.2792    5.7279    1.1920 C.3     1  LIG1        0.2332
     21 O          -5.8609    4.4555    0.8427 O.3     1  LIG1       -0.4526
     22 C          -4.8708    3.6073    1.2297 C.ar    1  LIG1        0.1663
     23 C          -4.8954    2.2354    1.1122 C.ar    1  LIG1       -0.0156
     24 C          -3.7822    1.5252    1.5746 C.ar    1  LIG1       -0.0509
     25 H           2.1549   -0.9054   -0.7651 H       1  LIG1        0.1491
     26 H           0.6855   -3.2449   -1.3639 H       1  LIG1        0.0501
     27 H           1.1406   -3.3196    0.3424 H       1  LIG1        0.0501
     28 H           4.8918   -1.8668   -4.2391 H       1  LIG1        0.0342
     29 H           4.0193   -0.3199   -4.1122 H       1  LIG1        0.0342
     30 H           3.1347   -1.7615   -4.6290 H       1  LIG1        0.0342
     31 H           3.9533   -2.0626    0.2596 H       1  LIG1        0.0268
     32 H           4.9189   -3.3728   -0.4040 H       1  LIG1        0.0268
     33 H           3.7759   -3.6710    0.9287 H       1  LIG1        0.0268
     34 H           1.9375   -5.3035   -1.7937 H       1  LIG1        0.0268
     35 H           2.6723   -5.4682   -0.1896 H       1  LIG1        0.0268
     36 H           3.6847   -5.3731   -1.6446 H       1  LIG1        0.0268
     37 H           0.6149    1.0523   -1.2289 H       1  LIG1        0.0669
     38 H           0.0088    2.5432    0.5623 H       1  LIG1        0.0619
     39 H           0.2573    0.4073    2.5668 H       1  LIG1        0.0618
     40 H          -1.7425    1.0277    3.6972 H       1  LIG1        0.0623
     41 H          -1.8598    4.1346    2.6956 H       1  LIG1        0.0661
     42 H          -5.1873    6.3316    0.2815 H       1  LIG1        0.1166
     43 H          -5.9525    6.2433    1.8869 H       1  LIG1        0.1166
     44 H          -5.7491    1.7244    0.6821 H       1  LIG1        0.0655
     45 H          -3.7737    0.4389    1.4951 H       1  LIG1        0.0625
@<TRIPOS>BOND
     1     1     2    2
     2     2     3   am
     3     3     4    1
     4     4     5    1
     5     5     6    1
     6     6     7    1
     7     7     8    1
     8     7     9    2
     9     5    10    1
    10     5    11    1
    11     2    12    1
    12    12    13    2
    13    13    14    1
    14    14    15    2
    15    15    16    1
    16    16    17   ar
    17    17    18   ar
    18    18    19    1
    19    19    20    1
    20    20    21    1
    21    18    22   ar
    22    21    22    1
    23    22    23   ar
    24    23    24   ar
    25    16    24   ar
    26     3    25    1
    27     4    26    1
    28     4    27    1
    29     8    28    1
    30     8    29    1
    31     8    30    1
    32    10    31    1
    33    10    32    1
    34    10    33    1
    35    11    34    1
    36    11    35    1
    37    11    36    1
    38    12    37    1
    39    13    38    1
    40    14    39    1
    41    15    40    1
    42    17    41    1
    43    20    42    1
    44    20    43    1
    45    23    44    1
    46    24    45    1
