@<TRIPOS>MOLECULE
NuBBE_194
 52 54 0 0 0
SMALL
GASTEIGER

@<TRIPOS>ATOM
      1 H          -1.7705   -2.8100    0.1817 H       1  LIG1        0.0400
      2 C          -1.1932   -2.2638   -0.5780 C.3     1  LIG1        0.0235
      3 C          -1.2029   -0.7344   -0.3512 C.3     1  LIG1        0.0666
      4 C          -0.4355   -0.3569    0.9146 C.3     1  LIG1        0.2101
      5 H          -0.9489   -0.7933    1.7802 H       1  LIG1        0.1060
      6 O           0.8911   -0.9396    0.9122 O.2     1  LIG1       -0.4701
      7 C           1.1035   -2.1010    0.2133 C.2     1  LIG1        0.0984
      8 C           0.1968   -2.7741   -0.5157 C.2     1  LIG1        0.0781
      9 C           0.6195   -4.0683   -1.0882 C.2     1  LIG1        0.3384
     10 O          -0.4455   -4.8155   -1.4659 O.3     1  LIG1       -0.4646
     11 C          -0.0949   -6.0885   -2.0183 C.3     1  LIG1        0.0820
     12 O           1.7968   -4.4232   -1.1686 O.2     1  LIG1       -0.2452
     13 O          -0.2856    1.0408    1.2263 O.3     1  LIG1       -0.3095
     14 C           0.2266    1.9177    0.2097 C.3     1  LIG1        0.1918
     15 H          -0.4016    1.7838   -0.6735 H       1  LIG1        0.0939
     16 O           1.5487    1.6102   -0.2439 O.3     1  LIG1       -0.3404
     17 C           2.6939    2.2023    0.3881 C.3     1  LIG1        0.1130
     18 H           3.4476    2.2311   -0.4102 H       1  LIG1        0.0647
     19 C           2.5343    3.6469    0.9042 C.3     1  LIG1        0.1119
     20 H           3.3261    3.8885    1.6245 H       1  LIG1        0.0647
     21 C           1.1641    3.9179    1.5303 C.3     1  LIG1        0.1141
     22 H           1.0487    5.0077    1.6044 H       1  LIG1        0.0648
     23 O           1.0609    3.4315    2.8652 O.3     1  LIG1       -0.3864
     24 O           2.6984    4.5466   -0.2126 O.3     1  LIG1       -0.3865
     25 C           3.2686    1.2829    1.4663 C.3     1  LIG1        0.0730
     26 O           2.3216    1.0937    2.5076 O.3     1  LIG1       -0.3924
     27 C           0.0488    3.4055    0.6083 C.3     1  LIG1        0.1342
     28 H          -0.9202    3.5328    1.1028 H       1  LIG1        0.0671
     29 O           0.0152    4.2128   -0.5923 O.3     1  LIG1       -0.3841
     30 H          -0.6136   -0.2739   -1.1647 H       1  LIG1        0.0402
     31 C          -1.9721   -2.2732   -1.8661 C.2     1  LIG1       -0.0769
     32 C          -2.8356   -1.2404   -1.8743 C.2     1  LIG1       -0.0535
     33 C          -2.6765   -0.3884   -0.6262 C.3     1  LIG1        0.1164
     34 O          -2.8529    0.9781   -0.9596 O.3     1  LIG1       -0.3817
     35 C          -3.7056   -0.7847    0.4628 C.3     1  LIG1        0.0770
     36 O          -5.0514   -0.6155   -0.0018 O.3     1  LIG1       -0.3918
     37 H           2.1305   -2.4255    0.3442 H       1  LIG1        0.1029
     38 H          -0.9910   -6.5254   -2.4679 H       1  LIG1        0.0661
     39 H           0.2579   -6.7544   -1.2249 H       1  LIG1        0.0661
     40 H           0.6635   -5.9865   -2.8019 H       1  LIG1        0.0661
     41 H           1.5343    2.5757    2.9434 H       1  LIG1        0.2100
     42 H           3.6529    4.7408   -0.2822 H       1  LIG1        0.2100
     43 H           3.5337    0.3059    1.0493 H       1  LIG1        0.0584
     44 H           4.1746    1.7193    1.9021 H       1  LIG1        0.0584
     45 H           1.6017    0.5670    2.0959 H       1  LIG1        0.2095
     46 H           0.9421    4.4666   -0.7988 H       1  LIG1        0.2101
     47 H          -1.9121   -3.0284   -2.6375 H       1  LIG1        0.0576
     48 H          -3.5537   -1.0344   -2.6568 H       1  LIG1        0.0598
     49 H          -2.3622    1.1580   -1.7809 H       1  LIG1        0.2107
     50 H          -3.6157   -1.8304    0.7712 H       1  LIG1        0.0589
     51 H          -3.5938   -0.1577    1.3521 H       1  LIG1        0.0589
     52 H          -5.0673    0.2237   -0.4984 H       1  LIG1        0.2095
@<TRIPOS>BOND
     1     2     3    1
     2     3     4    1
     3     4     6    1
     4     6     7    1
     5     7     8    2
     6     9    10    1
     7    10    11    1
     8     9    12    2
     9    13    14    1
    10    14    15    1
    11    14    16    1
    12    16    17    1
    13    17    19    1
    14    19    20    1
    15    19    21    1
    16    19    24    1
    17    25    26    1
    18    14    27    1
    19    21    27    1
    20     8     2    1
    21     2    31    1
    22    31    32    2
    23    32    33    1
    24     3    33    1
    25    35    36    1
    26     1     2    1
    27     3    30    1
    28     8     9    1
    29    33    34    1
    30    33    35    1
    31     4    13    1
    32     4     5    1
    33    17    25    1
    34    17    18    1
    35    21    23    1
    36    21    22    1
    37    27    29    1
    38    27    28    1
    39     7    37    1
    40    11    38    1
    41    11    39    1
    42    11    40    1
    43    23    41    1
    44    24    42    1
    45    25    43    1
    46    25    44    1
    47    26    45    1
    48    29    46    1
    49    31    47    1
    50    32    48    1
    51    34    49    1
    52    35    50    1
    53    35    51    1
    54    36    52    1
