@<TRIPOS>MOLECULE
NuBBE_2526
 41 43 0 0 0
SMALL
GASTEIGER

@<TRIPOS>ATOM
      1 C          -1.9937   -2.8623    0.0002 C.3     1  UNL1       -0.0327
      2 C          -0.4870   -2.8480    0.0106 C.ar    1  UNL1        0.0338
      3 C           0.2415   -1.6497    0.0039 C.ar    1  UNL1        0.1418
      4 C           1.6404   -1.6935   -0.0057 C.ar    1  UNL1        0.1012
      5 C           2.3799   -0.4224   -0.1142 C.2     1  UNL1        0.1740
      6 O           3.6053   -0.4049   -0.0225 O.2     1  UNL1       -0.2917
      7 C           1.5707    0.7949   -0.4209 C.3     1  UNL1        0.0520
      8 C           0.2800    0.6870    0.3754 C.3     1  UNL1        0.1322
      9 H           0.4801    0.5814    1.4518 H       1  UNL1        0.0789
     10 O          -0.4668   -0.4703   -0.0349 O.3     1  UNL1       -0.4826
     11 C          -0.5321    1.9567    0.1637 C.ar    1  UNL1       -0.0067
     12 C          -1.4509    2.0804   -0.8865 C.ar    1  UNL1       -0.0516
     13 C          -2.0825    3.3034   -1.1371 C.ar    1  UNL1       -0.0196
     14 C          -1.8165    4.4192   -0.3402 C.ar    1  UNL1        0.1201
     15 C          -0.9162    4.3032    0.7159 C.ar    1  UNL1       -0.0196
     16 C          -0.2794    3.0813    0.9667 C.ar    1  UNL1       -0.0516
     17 O          -2.4366    5.5722   -0.7354 O.3     1  UNL1       -0.4951
     18 C          -2.6467    6.5575    0.2687 C.3     1  UNL1        0.0788
     19 C           2.3233   -2.9193    0.0227 C.ar    1  UNL1        0.1372
     20 C           1.6194   -4.1310    0.0289 C.ar    1  UNL1        0.0335
     21 C           0.2146   -4.0718    0.0236 C.ar    1  UNL1        0.1296
     22 O          -0.5466   -5.2131    0.0228 O.3     1  UNL1       -0.5060
     23 C           2.3516   -5.4460    0.0154 C.3     1  UNL1       -0.0327
     24 O           3.6953   -2.9764    0.0261 O.3     1  UNL1       -0.5056
     25 H          -2.4276   -1.8583    0.0033 H       1  UNL1        0.0280
     26 H          -2.3708   -3.3819    0.8875 H       1  UNL1        0.0280
     27 H          -2.3569   -3.3728   -0.8980 H       1  UNL1        0.0280
     28 H           1.3906    0.8184   -1.5029 H       1  UNL1        0.0385
     29 H           2.1430    1.6850   -0.1378 H       1  UNL1        0.0385
     30 H          -1.6721    1.2326   -1.5318 H       1  UNL1        0.0623
     31 H          -2.7768    3.3892   -1.9669 H       1  UNL1        0.0654
     32 H          -0.6520    5.1516    1.3374 H       1  UNL1        0.0654
     33 H           0.4440    3.0254    1.7767 H       1  UNL1        0.0623
     34 H          -3.1183    7.4216   -0.2101 H       1  UNL1        0.0660
     35 H          -1.7114    6.9100    0.7131 H       1  UNL1        0.0660
     36 H          -3.3311    6.1812    1.0358 H       1  UNL1        0.0660
     37 H           0.0232   -5.9967    0.0308 H       1  UNL1        0.2922
     38 H           3.4399   -5.3323    0.0156 H       1  UNL1        0.0280
     39 H           2.0899   -6.0091   -0.8871 H       1  UNL1        0.0280
     40 H           2.0892   -6.0339    0.9004 H       1  UNL1        0.0280
     41 H           4.0500   -2.0585    0.0350 H       1  UNL1        0.2922
@<TRIPOS>BOND
     1     1     2    1
     2     2     3   ar
     3     3     4   ar
     4     4     5    1
     5     5     6    2
     6     5     7    1
     7     7     8    1
     8     8     9    1
     9     8    10    1
    10     3    10    1
    11     8    11    1
    12    11    12   ar
    13    12    13   ar
    14    13    14   ar
    15    14    15   ar
    16    15    16   ar
    17    11    16   ar
    18    14    17    1
    19    17    18    1
    20     4    19   ar
    21    19    20   ar
    22    20    21   ar
    23     2    21   ar
    24    21    22    1
    25    20    23    1
    26    19    24    1
    27     1    25    1
    28     1    26    1
    29     1    27    1
    30     7    28    1
    31     7    29    1
    32    12    30    1
    33    13    31    1
    34    15    32    1
    35    16    33    1
    36    18    34    1
    37    18    35    1
    38    18    36    1
    39    22    37    1
    40    23    38    1
    41    23    39    1
    42    23    40    1
    43    24    41    1
