REMARK  Name = NuBBE_1685
REMARK  15 active torsions:
REMARK  status: ('A' for Active; 'I' for Inactive)
REMARK    1  A    between atoms: C_2  and  C_3
REMARK    2  A    between atoms: C_3  and  C_4
REMARK    3  A    between atoms: C_5  and  C_6
REMARK    4  A    between atoms: C_6  and  C_7
REMARK    5  A    between atoms: C_8  and  C_9
REMARK    6  A    between atoms: C_9  and  C_10
REMARK    7  A    between atoms: C_10  and  C_11
REMARK    8  A    between atoms: C_11  and  C_12
REMARK    9  A    between atoms: C_12  and  C_13
REMARK   10  A    between atoms: C_13  and  C_14
REMARK   11  A    between atoms: C_14  and  C_15
REMARK   12  A    between atoms: C_15  and  C_16
REMARK   13  A    between atoms: C_18  and  O_19
REMARK   14  A    between atoms: C_20  and  C_21
REMARK   15  A    between atoms: C_22  and  O_23
REMARK                            x       y       z     vdW  Elec       q    Type
REMARK                         _______ _______ _______ _____ _____    ______ ____
ROOT
ATOM      1  C   LIG A   1      -4.098  -1.452   0.076  0.00  0.00    +0.000 C 
ENDROOT
BRANCH   1   2
ATOM      2  C   LIG A   1      -2.968  -1.293  -0.974  0.00  0.00    +0.000 C 
BRANCH   2   3
ATOM      3  C   LIG A   1      -3.037   0.006  -1.794  0.00  0.00    +0.000 C 
BRANCH   3   4
ATOM      4  C   LIG A   1      -1.895   0.229  -2.834  0.00  0.00    +0.004 C 
BRANCH   4   5
ATOM      5  C   LIG A   1      -0.375   0.362  -2.433  0.00  0.00    +0.027 C 
BRANCH   5   7
ATOM      6  C   LIG A   1       1.341   2.186  -1.567  0.00  0.00    -0.027 C 
ATOM      7  C   LIG A   1       0.129   1.561  -1.637  0.00  0.00    -0.031 C 
BRANCH   6   8
ATOM      8  C   LIG A   1       2.683   2.059  -2.312  0.00  0.00    +0.054 C 
BRANCH   8  10
ATOM      9  C   LIG A   1       5.194   1.502  -1.857  0.00  0.00    -0.027 C 
ATOM     10  C   LIG A   1       3.966   1.954  -1.477  0.00  0.00    -0.027 C 
BRANCH   9  11
ATOM     11  C   LIG A   1       5.593   0.703  -3.098  0.00  0.00    +0.053 C 
BRANCH  11  13
ATOM     12  C   LIG A   1       6.728   0.788  -5.378  0.00  0.00    +0.004 C 
ATOM     13  C   LIG A   1       6.393   1.374  -4.206  0.00  0.00    -0.031 C 
ENDBRANCH  11  13
ENDBRANCH   9  11
ENDBRANCH   8  10
ENDBRANCH   6   8
ENDBRANCH   5   7
ENDBRANCH   4   5
ENDBRANCH   3   4
ENDBRANCH   2   3
ENDBRANCH   1   2
BRANCH   1  14
ATOM     14  C   LIG A   1      -3.946  -2.720   0.940  0.00  0.00    +0.005 C 
BRANCH  14  15
ATOM     15  C   LIG A   1      -2.649  -2.806   1.750  0.00  0.00    +0.035 C 
BRANCH  15  16
ATOM     16  C   LIG A   1      -2.339  -1.729   2.766  0.00  0.00    -0.041 A 
ATOM     17  C   LIG A   1      -2.661  -1.843   4.126  0.00  0.00    +0.049 A 
ATOM     18  C   LIG A   1      -2.133  -0.922   5.056  0.00  0.00    +0.123 A 
ATOM     19  C   LIG A   1      -1.156   0.019   4.694  0.00  0.00    +0.032 A 
ATOM     20  C   LIG A   1      -0.559   0.998   5.667  0.00  0.00    +0.051 C 
ATOM     21  C   LIG A   1      -0.801   0.042   3.344  0.00  0.00    +0.123 A 
ATOM     22  C   LIG A   1      -1.496  -0.689   2.389  0.00  0.00    +0.049 A 
BRANCH  18  23
ATOM     23  O   LIG A   1      -2.542  -0.998   6.362  0.00  0.00    -0.506 OA
ATOM     24  H   LIG A   1      -3.342  -1.550   6.391  0.00  0.00    +0.292 HD
ENDBRANCH  18  23
BRANCH  21  25
ATOM     25  O   LIG A   1       0.367   0.584   2.867  0.00  0.00    -0.506 OA
ATOM     26  H   LIG A   1       0.471   1.496   3.188  0.00  0.00    +0.292 HD
ENDBRANCH  21  25
ENDBRANCH  15  16
ENDBRANCH  14  15
ENDBRANCH   1  14
TORSDOF 14
