REMARK  Name = NuBBE_578
REMARK  13 active torsions:
REMARK  status: ('A' for Active; 'I' for Inactive)
REMARK    1  A    between atoms: C_7  and  C_9
REMARK    2  A    between atoms: C_10  and  C_11
REMARK    3  A    between atoms: C_11  and  C_12
REMARK    4  A    between atoms: C_12  and  O_14
REMARK    5  A    between atoms: C_12  and  C_18
REMARK    6  A    between atoms: O_14  and  C_15
REMARK    7  A    between atoms: C_15  and  C_16
REMARK    8  A    between atoms: C_18  and  C_19
REMARK    9  A    between atoms: C_19  and  O_21
REMARK   10  A    between atoms: C_19  and  C_25
REMARK   11  A    between atoms: O_21  and  C_22
REMARK   12  A    between atoms: C_22  and  C_23
REMARK   13  A    between atoms: C_26  and  C_27
REMARK                            x       y       z     vdW  Elec       q    Type
REMARK                         _______ _______ _______ _____ _____    ______ ____
ROOT
ATOM      1  C   LIG A   1      -1.347  -1.201  -0.390  0.00  0.00    +0.184 C 
ENDROOT
BRANCH   1   2
ATOM      2  C   LIG A   1      -1.022  -0.525  -1.748  0.00  0.00    +0.071 C 
BRANCH   2   4
ATOM      3  C   LIG A   1      -1.197   1.988  -2.198  0.00  0.00    +0.013 C 
ATOM      4  C   LIG A   1      -1.743   0.779  -1.978  0.00  0.00    -0.024 C 
BRANCH   3  11
ATOM      5  O   LIG A   1      -1.788   4.271  -5.753  0.00  0.00    -0.246 OA
ATOM      6  C   LIG A   1      -1.598   4.188  -4.543  0.00  0.00    +0.332 C 
ATOM      7  C   LIG A   1      -0.504   4.943  -3.910  0.00  0.00    +0.087 C 
ATOM      8  C   LIG A   1      -0.444   5.110  -2.584  0.00  0.00    -0.016 C 
ATOM      9  C   LIG A   1      -1.462   4.481  -1.690  0.00  0.00    +0.076 C 
ATOM     10  O   LIG A   1      -2.382   3.437  -3.736  0.00  0.00    -0.454 OA
ATOM     11  C   LIG A   1      -2.056   3.230  -2.346  0.00  0.00    +0.203 C 
ENDBRANCH   3  11
ENDBRANCH   2   4
ENDBRANCH   1   2
BRANCH   1  12
ATOM     12  O   LIG A   1      -2.798  -1.392  -0.289  0.00  0.00    -0.461 OA
BRANCH  12  13
ATOM     13  C   LIG A   1      -3.262  -2.397   0.496  0.00  0.00    +0.304 C 
ATOM     14  C   LIG A   1      -4.765  -2.438   0.532  0.00  0.00    +0.136 C 
ATOM     15  O   LIG A   1      -2.549  -3.201   1.106  0.00  0.00    -0.251 OA
ENDBRANCH  12  13
ENDBRANCH   1  12
BRANCH   1  16
ATOM     16  C   LIG A   1      -0.845  -0.374   0.805  0.00  0.00    +0.093 C 
BRANCH  16  17
ATOM     17  C   LIG A   1       0.653   0.003   0.822  0.00  0.00    +0.203 C 
BRANCH  17  18
ATOM     18  C   LIG A   1       1.596  -1.173   0.772  0.00  0.00    +0.018 C 
ATOM     19  C   LIG A   1       2.150  -1.819   1.818  0.00  0.00    +0.007 C 
BRANCH  19  20
ATOM     20  C   LIG A   1       3.112  -2.935   1.704  0.00  0.00    -0.025 A 
ATOM     21  C   LIG A   1       3.669  -3.336   0.480  0.00  0.00    +0.008 A 
ATOM     22  C   LIG A   1       4.528  -4.435   0.399  0.00  0.00    +0.001 A 
ATOM     23  C   LIG A   1       4.871  -5.135   1.549  0.00  0.00    +0.000 A 
ATOM     24  C   LIG A   1       4.369  -4.725   2.781  0.00  0.00    +0.001 A 
ATOM     25  C   LIG A   1       3.496  -3.633   2.859  0.00  0.00    +0.008 A 
ENDBRANCH  19  20
ENDBRANCH  17  18
BRANCH  17  26
ATOM     26  O   LIG A   1       0.885   0.710   2.051  0.00  0.00    -0.457 OA
BRANCH  26  27
ATOM     27  C   LIG A   1       0.646   2.047   2.034  0.00  0.00    +0.304 C 
ATOM     28  C   LIG A   1       0.470   2.502   3.451  0.00  0.00    +0.136 C 
ATOM     29  O   LIG A   1       0.553   2.765   1.037  0.00  0.00    -0.251 OA
ENDBRANCH  26  27
ENDBRANCH  17  26
ENDBRANCH  16  17
ENDBRANCH   1  16
TORSDOF 11
