@<TRIPOS>MOLECULE
NuBBE_1101
 32 34 0 0 0
SMALL
GASTEIGER

@<TRIPOS>ATOM
      1 O          -3.3266   -1.8364    0.5851 O.2     1  LIG1       -0.2864
      2 C          -2.1186   -1.7453    0.4028 C.ar    1  LIG1        0.2004
      3 C          -1.2610   -2.8914    0.2938 C.ar    1  LIG1        0.0853
      4 C           0.0858   -2.7120    0.1229 C.ar    1  LIG1        0.2120
      5 O           0.7194   -3.9097    0.0449 O.2     1  LIG1       -0.4465
      6 C          -0.2461   -4.8647    0.1641 C.ar    1  LIG1        0.0951
      7 C          -1.4868   -4.2861    0.3217 C.ar    1  LIG1       -0.0108
      8 N           0.7406   -1.5306    0.0316 N.ar    1  LIG1       -0.3107
      9 C           2.1949   -1.5298   -0.0635 C.3     1  LIG1        0.0153
     10 C          -0.0220   -0.3241    0.0592 C.ar    1  LIG1        0.1010
     11 C          -1.4368   -0.4143    0.2650 C.ar    1  LIG1        0.0498
     12 C          -2.2502    0.7228    0.3324 C.ar    1  LIG1       -0.0452
     13 C          -1.6968    1.9850    0.1636 C.ar    1  LIG1       -0.0155
     14 C          -0.3303    2.1269   -0.0913 C.ar    1  LIG1        0.1636
     15 O           0.2374    3.3575   -0.3117 O.3     1  LIG1       -0.4914
     16 C          -0.5939    4.3513   -0.9012 C.3     1  LIG1        0.0790
     17 C           0.5156    0.9854   -0.1093 C.ar    1  LIG1        0.1858
     18 O           1.8557    1.0832   -0.4156 O.3     1  LIG1       -0.4895
     19 C           2.5806    2.1454    0.1976 C.3     1  LIG1        0.0791
     20 H           0.1030   -5.8869    0.1168 H       1  LIG1        0.1030
     21 H          -2.4312   -4.7991    0.4380 H       1  LIG1        0.0657
     22 H           2.6305   -2.5290    0.0560 H       1  LIG1        0.0457
     23 H           2.6401   -0.9245    0.7340 H       1  LIG1        0.0457
     24 H           2.5233   -1.1704   -1.0444 H       1  LIG1        0.0457
     25 H          -3.3205    0.6259    0.5067 H       1  LIG1        0.0626
     26 H          -2.3584    2.8427    0.2299 H       1  LIG1        0.0655
     27 H          -1.3037    4.7524   -0.1712 H       1  LIG1        0.0660
     28 H          -1.1105    3.9676   -1.7874 H       1  LIG1        0.0660
     29 H           0.0507    5.1762   -1.2195 H       1  LIG1        0.0660
     30 H           3.6053    1.7959    0.3587 H       1  LIG1        0.0660
     31 H           2.1739    2.4347    1.1725 H       1  LIG1        0.0660
     32 H           2.6368    3.0012   -0.4821 H       1  LIG1        0.0660
@<TRIPOS>BOND
     1     1     2    2
     2     2     3   ar
     3     3     4   ar
     4     4     5   ar
     5     5     6   ar
     6     6     7   ar
     7     3     7   ar
     8     4     8   ar
     9     8     9    1
    10     8    10   ar
    11    10    11   ar
    12     2    11   ar
    13    11    12   ar
    14    12    13   ar
    15    13    14   ar
    16    14    15    1
    17    15    16    1
    18    14    17   ar
    19    10    17   ar
    20    17    18    1
    21    18    19    1
    22     6    20    1
    23     7    21    1
    24     9    22    1
    25     9    23    1
    26     9    24    1
    27    12    25    1
    28    13    26    1
    29    16    27    1
    30    16    28    1
    31    16    29    1
    32    19    30    1
    33    19    31    1
    34    19    32    1
