REMARK  Name = NuBBE_1504
REMARK  16 active torsions:
REMARK  status: ('A' for Active; 'I' for Inactive)
REMARK    1  A    between atoms: C_1  and  C_2
REMARK    2  A    between atoms: C_1  and  C_16
REMARK    3  A    between atoms: C_2  and  C_3
REMARK    4  A    between atoms: C_3  and  C_5
REMARK    5  A    between atoms: C_5  and  C_6
REMARK    6  A    between atoms: C_6  and  C_8
REMARK    7  A    between atoms: C_6  and  O_15
REMARK    8  A    between atoms: C_8  and  C_9
REMARK    9  A    between atoms: C_9  and  C_10
REMARK   10  A    between atoms: C_10  and  C_11
REMARK   11  A    between atoms: C_11  and  C_12
REMARK   12  A    between atoms: C_12  and  C_13
REMARK   13  A    between atoms: C_13  and  C_14
REMARK   14  A    between atoms: C_18  and  O_19
REMARK   15  A    between atoms: O_19  and  C_20
REMARK   16  A    between atoms: C_21  and  O_24
REMARK                            x       y       z     vdW  Elec       q    Type
REMARK                         _______ _______ _______ _____ _____    ______ ____
ROOT
ATOM      1  C   LIG A   1       3.098   1.089  -1.097  0.00  0.00    +0.136 C 
ATOM      2  O   LIG A   1       3.995   0.276  -0.923  0.00  0.00    -0.297 OA
ENDROOT
BRANCH   1   3
ATOM      3  C   LIG A   1       3.064   1.974  -2.348  0.00  0.00    +0.079 C 
BRANCH   3   4
ATOM      4  C   LIG A   1       3.155   1.194  -3.663  0.00  0.00    +0.042 C 
BRANCH   4   5
ATOM      5  C   LIG A   1       1.992   0.264  -3.939  0.00  0.00    -0.043 A 
ATOM      6  C   LIG A   1       1.779  -0.862  -3.124  0.00  0.00    +0.053 A 
ATOM      7  C   LIG A   1       0.695  -1.715  -3.325  0.00  0.00    +0.162 A 
ATOM      8  C   LIG A   1      -0.154  -1.464  -4.405  0.00  0.00    +0.159 A 
ATOM      9  C   LIG A   1       0.067  -0.391  -5.262  0.00  0.00    +0.049 A 
ATOM     10  C   LIG A   1       1.135   0.477  -5.025  0.00  0.00    +0.007 A 
BRANCH   7  11
ATOM     11  O   LIG A   1       0.390  -2.802  -2.545  0.00  0.00    -0.491 OA
ATOM     12  C   LIG A   1       1.238  -3.026  -1.417  0.00  0.00    +0.277 C 
ENDBRANCH   7  11
BRANCH   8  13
ATOM     13  O   LIG A   1      -1.230  -2.271  -4.653  0.00  0.00    -0.503 OA
ATOM     14  H   LIG A   1      -1.218  -2.942  -3.944  0.00  0.00    +0.292 HD
ENDBRANCH   8  13
ENDBRANCH   4   5
ENDBRANCH   3   4
ENDBRANCH   1   3
BRANCH   1  15
ATOM     15  C   LIG A   1       1.891   1.183  -0.163  0.00  0.00    +0.105 C 
BRANCH  15  16
ATOM     16  C   LIG A   1       2.237   0.775   1.270  0.00  0.00    +0.122 C 
BRANCH  16  17
ATOM     17  O   LIG A   1       3.224   1.692   1.754  0.00  0.00    -0.391 OA
ATOM     18  H   LIG A   1       3.610   1.304   2.560  0.00  0.00    +0.210 HD
ENDBRANCH  16  17
BRANCH  16  19
ATOM     19  C   LIG A   1       1.042   0.869   2.240  0.00  0.00    +0.032 C 
BRANCH  19  20
ATOM     20  C   LIG A   1      -0.149  -0.035   1.902  0.00  0.00    +0.002 C 
BRANCH  20  21
ATOM     21  C   LIG A   1      -1.294   0.134   2.914  0.00  0.00    +0.000 C 
BRANCH  21  22
ATOM     22  C   LIG A   1      -2.498  -0.756   2.576  0.00  0.00    -0.000 C 
BRANCH  22  23
ATOM     23  C   LIG A   1      -3.666  -0.640   3.567  0.00  0.00    -0.000 C 
BRANCH  23  24
ATOM     24  C   LIG A   1      -4.272   0.761   3.663  0.00  0.00    -0.003 C 
ATOM     25  C   LIG A   1      -5.436   0.801   4.645  0.00  0.00    +0.004 C 
ENDBRANCH  23  24
ENDBRANCH  22  23
ENDBRANCH  21  22
ENDBRANCH  20  21
ENDBRANCH  19  20
ENDBRANCH  16  19
ENDBRANCH  15  16
ENDBRANCH   1  15
TORSDOF 14
