REMARK  Name = NuBBE_214
REMARK  12 active torsions:
REMARK  status: ('A' for Active; 'I' for Inactive)
REMARK    1  A    between atoms: C_1  and  O_2
REMARK    2  A    between atoms: O_2  and  C_3
REMARK    3  A    between atoms: C_4  and  O_5
REMARK    4  A    between atoms: C_6  and  O_7
REMARK    5  A    between atoms: O_7  and  C_8
REMARK    6  A    between atoms: C_10  and  C_11
REMARK    7  A    between atoms: C_21  and  C_23
REMARK    8  A    between atoms: C_25  and  O_26
REMARK    9  A    between atoms: O_26  and  C_27
REMARK   10  A    between atoms: C_28  and  O_29
REMARK   11  A    between atoms: C_30  and  O_31
REMARK   12  A    between atoms: O_31  and  C_32
REMARK                            x       y       z     vdW  Elec       q    Type
REMARK                         _______ _______ _______ _____ _____    ______ ____
ROOT
ATOM      1  C   LIG A   1      -0.832   0.816   2.623  0.00  0.00    +0.154 C 
ATOM      2  O   LIG A   1      -0.065   0.122   3.623  0.00  0.00    -0.371 OA
ATOM      3  C   LIG A   1       1.288  -0.030   3.156  0.00  0.00    +0.167 C 
ATOM      4  C   LIG A   1       1.274   0.241   1.656  0.00  0.00    +0.056 C 
ATOM      5  C   LIG A   1       0.157   1.247   1.549  0.00  0.00    +0.056 C 
ATOM      6  C   LIG A   1       0.901   2.543   1.851  0.00  0.00    +0.167 C 
ATOM      7  O   LIG A   1       2.229   2.387   1.318  0.00  0.00    -0.371 OA
ATOM      8  C   LIG A   1       2.498   0.979   1.128  0.00  0.00    +0.154 C 
ENDROOT
BRANCH   1  13
ATOM      9  C   LIG A   1      -2.808  -2.301   1.470  0.00  0.00    +0.165 A 
ATOM     10  C   LIG A   1      -3.978  -1.700   1.012  0.00  0.00    +0.201 A 
ATOM     11  C   LIG A   1      -4.153  -0.304   1.097  0.00  0.00    +0.165 A 
ATOM     12  C   LIG A   1      -3.140   0.487   1.650  0.00  0.00    +0.056 A 
ATOM     13  C   LIG A   1      -1.941  -0.083   2.093  0.00  0.00    -0.011 A 
ATOM     14  C   LIG A   1      -1.801  -1.474   2.002  0.00  0.00    +0.056 A 
BRANCH   9  16
ATOM     15  C   LIG A   1      -3.426  -4.548   0.925  0.00  0.00    +0.277 C 
ATOM     16  O   LIG A   1      -2.475  -3.631   1.451  0.00  0.00    -0.491 OA
ENDBRANCH   9  16
BRANCH  10  17
ATOM     17  O   LIG A   1      -4.985  -2.431   0.428  0.00  0.00    -0.501 OA
ATOM     18  H   LIG A   1      -5.536  -1.789  -0.049  0.00  0.00    +0.292 HD
ENDBRANCH  10  17
BRANCH  11  19
ATOM     19  O   LIG A   1      -5.338   0.166   0.583  0.00  0.00    -0.491 OA
ATOM     20  C   LIG A   1      -5.531   1.576   0.638  0.00  0.00    +0.277 C 
ENDBRANCH  11  19
ENDBRANCH   1  13
BRANCH   8  21
ATOM     21  C   LIG A   1       2.753   0.684  -0.343  0.00  0.00    -0.011 A 
ATOM     22  C   LIG A   1       3.593  -0.375  -0.726  0.00  0.00    +0.056 A 
ATOM     23  C   LIG A   1       3.794  -0.730  -2.069  0.00  0.00    +0.165 A 
ATOM     24  C   LIG A   1       3.116   0.004  -3.056  0.00  0.00    +0.201 A 
ATOM     25  C   LIG A   1       2.304   1.086  -2.697  0.00  0.00    +0.165 A 
ATOM     26  C   LIG A   1       2.115   1.426  -1.362  0.00  0.00    +0.056 A 
BRANCH  23  27
ATOM     27  O   LIG A   1       4.644  -1.786  -2.252  0.00  0.00    -0.491 OA
ATOM     28  C   LIG A   1       4.942  -2.172  -3.589  0.00  0.00    +0.277 C 
ENDBRANCH  23  27
BRANCH  24  29
ATOM     29  O   LIG A   1       3.216  -0.294  -4.389  0.00  0.00    -0.501 OA
ATOM     30  H   LIG A   1       2.613   0.337  -4.837  0.00  0.00    +0.292 HD
ENDBRANCH  24  29
BRANCH  25  31
ATOM     31  O   LIG A   1       1.679   1.713  -3.756  0.00  0.00    -0.491 OA
ATOM     32  C   LIG A   1       1.589   3.130  -3.631  0.00  0.00    +0.277 C 
ENDBRANCH  25  31
ENDBRANCH   8  21
TORSDOF 8
