REMARK  Name = NuBBE_1182
REMARK  11 active torsions:
REMARK  status: ('A' for Active; 'I' for Inactive)
REMARK    1  A    between atoms: O_1  and  C_2
REMARK    2  A    between atoms: C_4  and  O_40
REMARK    3  A    between atoms: C_6  and  O_36
REMARK    4  A    between atoms: C_8  and  C_35
REMARK    5  A    between atoms: C_11  and  O_13
REMARK    6  A    between atoms: O_13  and  C_14
REMARK    7  A    between atoms: C_15  and  O_34
REMARK    8  A    between atoms: C_28  and  O_29
REMARK    9  A    between atoms: C_30  and  O_31
REMARK   10  A    between atoms: O_36  and  C_37
REMARK   11  A    between atoms: C_37  and  C_38
REMARK                            x       y       z     vdW  Elec       q    Type
REMARK                         _______ _______ _______ _____ _____    ______ ____
ROOT
ATOM      1  C   LIG A   1       0.281   0.549   0.742  0.00  0.00    +0.170 A 
ATOM      2  C   LIG A   1       0.627   1.893   0.977  0.00  0.00    +0.203 A 
ATOM      3  C   LIG A   1       1.730   2.465   0.336  0.00  0.00    +0.185 A 
ATOM      4  C   LIG A   1       2.510   1.728  -0.541  0.00  0.00    +0.047 A 
ATOM      5  C   LIG A   1       2.152   0.409  -0.814  0.00  0.00    +0.074 A 
ATOM      6  C   LIG A   1       2.957  -0.376  -1.786  0.00  0.00    +0.345 A 
ATOM      7  O   LIG A   1       4.123   0.225  -2.261  0.00  0.00    -0.418 OA
ATOM      8  C   LIG A   1       4.470   1.566  -1.986  0.00  0.00    +0.185 A 
ATOM      9  C   LIG A   1       3.663   2.329  -1.150  0.00  0.00    +0.047 A 
ATOM     10  C   LIG A   1       3.989   3.667  -0.914  0.00  0.00    +0.074 A 
ATOM     11  C   LIG A   1       3.131   4.477  -0.011  0.00  0.00    +0.345 A 
ATOM     12  O   LIG A   1       2.051   3.820   0.591  0.00  0.00    -0.418 OA
ATOM     13  O   LIG A   1       3.366   5.660   0.196  0.00  0.00    -0.244 OA
ATOM     14  C   LIG A   1       5.112   4.245  -1.532  0.00  0.00    +0.065 A 
ATOM     15  C   LIG A   1       5.908   3.459  -2.362  0.00  0.00    +0.163 A 
ATOM     16  C   LIG A   1       5.598   2.117  -2.581  0.00  0.00    +0.202 A 
ATOM     17  O   LIG A   1       2.612  -1.498  -2.135  0.00  0.00    -0.244 OA
ATOM     18  C   LIG A   1       1.038  -0.179  -0.180  0.00  0.00    +0.065 A 
ENDROOT
BRANCH  15  19
ATOM     19  O   LIG A   1       7.007   3.964  -3.001  0.00  0.00    -0.503 OA
ATOM     20  H   LIG A   1       7.065   4.921  -2.830  0.00  0.00    +0.292 HD
ENDBRANCH  15  19
BRANCH  16  21
ATOM     21  O   LIG A   1       6.398   1.362  -3.390  0.00  0.00    -0.501 OA
ATOM     22  H   LIG A   1       7.112   1.961  -3.687  0.00  0.00    +0.292 HD
ENDBRANCH  16  21
BRANCH   2  23
ATOM     23  O   LIG A   1      -0.126   2.650   1.837  0.00  0.00    -0.501 OA
ATOM     24  H   LIG A   1       0.201   3.568   1.788  0.00  0.00    +0.292 HD
ENDBRANCH   2  23
BRANCH   1  25
ATOM     25  O   LIG A   1      -0.782   0.061   1.455  0.00  0.00    -0.457 OA
BRANCH  25  31
ATOM     26  C   LIG A   1      -2.351  -1.491   2.341  0.00  0.00    +0.215 C 
ATOM     27  C   LIG A   1      -3.322  -2.651   2.065  0.00  0.00    +0.192 C 
ATOM     28  C   LIG A   1      -3.739  -2.772   0.595  0.00  0.00    +0.236 C 
ATOM     29  C   LIG A   1      -2.498  -2.665  -0.318  0.00  0.00    +0.163 C 
ATOM     30  O   LIG A   1      -1.751  -1.466  -0.065  0.00  0.00    -0.333 OA
ATOM     31  C   LIG A   1      -1.253  -1.298   1.260  0.00  0.00    +0.339 C 
ATOM     32  C   LIG A   1      -1.614  -3.917  -0.301  0.00  0.00    +0.042 C 
BRANCH  26  33
ATOM     33  O   LIG A   1      -1.752  -1.726   3.641  0.00  0.00    -0.383 OA
ATOM     34  H   LIG A   1      -1.273  -0.907   3.875  0.00  0.00    +0.210 HD
ENDBRANCH  26  33
BRANCH  27  35
ATOM     35  O   LIG A   1      -2.724  -3.881   2.502  0.00  0.00    -0.385 OA
ATOM     36  H   LIG A   1      -2.310  -3.667   3.365  0.00  0.00    +0.210 HD
ENDBRANCH  27  35
BRANCH  28  37
ATOM     37  O   LIG A   1      -4.661  -1.700   0.248  0.00  0.00    -0.456 OA
BRANCH  37  38
ATOM     38  C   LIG A   1      -6.003  -1.952   0.392  0.00  0.00    +0.304 C 
ATOM     39  C   LIG A   1      -6.805  -0.720   0.042  0.00  0.00    +0.136 C 
ATOM     40  O   LIG A   1      -6.492  -3.004   0.747  0.00  0.00    -0.251 OA
ENDBRANCH  37  38
ENDBRANCH  28  37
ENDBRANCH  25  31
ENDBRANCH   1  25
TORSDOF 9
