REMARK  Name = NuBBE_2151
REMARK  14 active torsions:
REMARK  status: ('A' for Active; 'I' for Inactive)
REMARK    1  A    between atoms: C_1  and  O_2
REMARK    2  A    between atoms: O_2  and  C_3
REMARK    3  A    between atoms: C_10  and  C_11
REMARK    4  A    between atoms: C_13  and  C_15
REMARK    5  A    between atoms: C_16  and  C_17
REMARK    6  A    between atoms: C_17  and  C_18
REMARK    7  A    between atoms: C_20  and  O_21
REMARK    8  A    between atoms: C_24  and  O_26
REMARK    9  A    between atoms: O_26  and  C_27
REMARK   10  A    between atoms: C_28  and  O_30
REMARK   11  A    between atoms: O_30  and  C_31
REMARK   12  A    between atoms: C_31  and  C_32
REMARK   13  A    between atoms: C_34  and  O_35
REMARK   14  A    between atoms: O_35  and  C_36
REMARK                            x       y       z     vdW  Elec       q    Type
REMARK                         _______ _______ _______ _____ _____    ______ ____
ROOT
ATOM      1  C   LIG A   1      -0.303   0.303  -0.459  0.00  0.00    +0.061 C 
ATOM      2  C   LIG A   1       0.711   1.024   0.480  0.00  0.00    +0.005 C 
ATOM      3  C   LIG A   1       1.458   2.163  -0.237  0.00  0.00    +0.009 C 
ATOM      4  C   LIG A   1       1.601  -0.101   1.124  0.00  0.00    +0.009 C 
ATOM      5  C   LIG A   1       0.867  -1.434   0.849  0.00  0.00    +0.157 C 
ATOM      6  C   LIG A   1       2.944  -0.283   0.428  0.00  0.00    +0.045 C 
ATOM      7  C   LIG A   1       2.869  -0.692  -1.050  0.00  0.00    +0.162 C 
ATOM      8  C   LIG A   1       1.548  -1.394  -1.508  0.00  0.00    +0.240 C 
ATOM      9  C   LIG A   1       0.269  -1.169  -0.568  0.00  0.00    +0.141 C 
ENDROOT
BRANCH   1  17
ATOM     10  C   LIG A   1      -3.668  -0.101   1.542  0.00  0.00    +0.166 A 
ATOM     11  C   LIG A   1      -4.297   1.064   1.179  0.00  0.00    +0.207 A 
ATOM     12  O   LIG A   1      -5.525   1.482   1.587  0.00  0.00    -0.449 OA
ATOM     13  C   LIG A   1      -5.589   2.783   1.005  0.00  0.00    +0.467 C 
ATOM     14  O   LIG A   1      -4.496   3.048   0.101  0.00  0.00    -0.453 OA
ATOM     15  C   LIG A   1      -3.704   1.954   0.314  0.00  0.00    +0.170 A 
ATOM     16  C   LIG A   1      -2.449   1.729  -0.247  0.00  0.00    +0.053 A 
ATOM     17  C   LIG A   1      -1.748   0.549   0.087  0.00  0.00    -0.034 A 
ATOM     18  C   LIG A   1      -2.402  -0.335   0.982  0.00  0.00    +0.053 A 
BRANCH  10  20
ATOM     19  C   LIG A   1      -5.454  -0.820   2.912  0.00  0.00    +0.277 C 
ATOM     20  O   LIG A   1      -4.146  -1.059   2.396  0.00  0.00    -0.491 OA
ENDBRANCH  10  20
ENDBRANCH   1  17
BRANCH   5  21
ATOM     21  O   LIG A   1      -0.025  -1.789   1.884  0.00  0.00    -0.388 OA
ATOM     22  H   LIG A   1      -0.456  -2.617   1.593  0.00  0.00    +0.210 HD
ENDBRANCH   5  21
BRANCH   7  23
ATOM     23  O   LIG A   1       4.011  -1.541  -1.316  0.00  0.00    -0.376 OA
ATOM     24  C   LIG A   1       5.260  -0.874  -1.124  0.00  0.00    +0.194 C 
ENDBRANCH   7  23
BRANCH   9  25
ATOM     25  O   LIG A   1      -0.756  -2.140  -0.861  0.00  0.00    -0.370 OA
ATOM     26  C   LIG A   1      -1.319  -2.076  -2.169  0.00  0.00    +0.195 C 
ENDBRANCH   9  25
BRANCH   4  27
ATOM     27  C   LIG A   1       1.824   0.157   2.641  0.00  0.00    +0.036 C 
BRANCH  27  28
ATOM     28  C   LIG A   1       2.583   1.422   2.961  0.00  0.00    -0.034 C 
ATOM     29  C   LIG A   1       2.000   2.597   3.228  0.00  0.00    +0.004 C 
ENDBRANCH  27  28
ENDBRANCH   4  27
BRANCH   8  30
ATOM     30  O   LIG A   1       1.308  -0.978  -2.883  0.00  0.00    -0.456 OA
BRANCH  30  31
ATOM     31  C   LIG A   1       1.749  -1.837  -3.848  0.00  0.00    +0.304 C 
ATOM     32  C   LIG A   1       1.492  -1.264  -5.224  0.00  0.00    +0.136 C 
ATOM     33  O   LIG A   1       2.214  -2.947  -3.678  0.00  0.00    -0.251 OA
ENDBRANCH  30  31
ENDBRANCH   8  30
TORSDOF 9
