REMARK  Name = NuBBE_1911
REMARK  2 active torsions:
REMARK  status: ('A' for Active; 'I' for Inactive)
REMARK    1  A    between atoms: C_1  and  O_2
REMARK    2  A    between atoms: O_2  and  C_3
REMARK                            x       y       z     vdW  Elec       q    Type
REMARK                         _______ _______ _______ _____ _____    ______ ____
ROOT
ATOM      1  C   LIG A   1       0.789   1.641  -0.134  0.00  0.00    +0.209 A 
ATOM      2  C   LIG A   1       2.173   1.671  -0.128  0.00  0.00    +0.211 A 
ATOM      3  O   LIG A   1       2.958   2.785  -0.126  0.00  0.00    -0.449 OA
ATOM      4  C   LIG A   1       4.275   2.199  -0.124  0.00  0.00    +0.467 C 
ATOM      5  O   LIG A   1       4.257   0.758  -0.093  0.00  0.00    -0.452 OA
ATOM      6  C   LIG A   1       2.919   0.515  -0.107  0.00  0.00    +0.171 A 
ATOM      7  C   LIG A   1       2.332  -0.731  -0.101  0.00  0.00    +0.065 A 
ATOM      8  C   LIG A   1       0.933  -0.782  -0.130  0.00  0.00    +0.072 A 
ATOM      9  C   LIG A   1       0.154   0.389  -0.155  0.00  0.00    +0.184 A 
ATOM     10  O   LIG A   1      -1.219   0.372  -0.223  0.00  0.00    -0.451 OA
ATOM     11  C   LIG A   1      -1.866  -0.837  -0.232  0.00  0.00    +0.139 A 
ATOM     12  C   LIG A   1      -3.260  -0.796  -0.282  0.00  0.00    +0.047 A 
ATOM     13  C   LIG A   1      -3.997  -1.983  -0.292  0.00  0.00    +0.004 A 
ATOM     14  C   LIG A   1      -3.341  -3.214  -0.253  0.00  0.00    +0.001 A 
ATOM     15  C   LIG A   1      -1.947  -3.260  -0.204  0.00  0.00    +0.015 A 
ATOM     16  C   LIG A   1      -1.217  -2.068  -0.194  0.00  0.00    +0.065 A 
ATOM     17  C   LIG A   1       0.250  -2.085  -0.142  0.00  0.00    +0.200 A 
ATOM     18  O   LIG A   1       0.877  -3.136  -0.108  0.00  0.00    -0.286 OA
ENDROOT
BRANCH   1  20
ATOM     19  C   LIG A   1      -0.717   3.043   0.944  0.00  0.00    +0.277 C 
ATOM     20  O   LIG A   1       0.120   2.832  -0.192  0.00  0.00    -0.488 OA
ENDBRANCH   1  20
TORSDOF 1
