@<TRIPOS>MOLECULE
NuBBE_62
 57 58 0 0 0
SMALL
GASTEIGER

@<TRIPOS>ATOM
      1 O          -1.1944   -0.1928    4.1180 O.2     1  LIG1       -0.2927
      2 C          -0.4498    0.5001    3.4186 C.2     1  LIG1        0.1568
      3 C           0.6638   -0.1154    2.6094 C.3     1  LIG1        0.0182
      4 C           1.7113    0.9277    2.1617 C.3     1  LIG1        0.0083
      5 C           2.5367    1.3539    3.4107 C.3     1  LIG1       -0.0562
      6 C           0.9691    2.1540    1.5030 C.3     1  LIG1        0.1108
      7 O           1.9363    3.1479    1.1621 O.3     1  LIG1       -0.3797
      8 C          -0.0272    2.7454    2.4932 C.2     1  LIG1       -0.0339
      9 C          -0.2887    4.2256    2.4584 C.3     1  LIG1       -0.0404
     10 C          -0.6951    1.9573    3.3686 C.2     1  LIG1       -0.0172
     11 C           0.2746    1.8207    0.1834 C.2     1  LIG1       -0.0498
     12 C          -1.0138    1.4568    0.0125 C.2     1  LIG1       -0.0567
     13 C          -1.6639    1.1382   -1.3071 C.3     1  LIG1        0.0772
     14 H          -0.9619    1.2494   -2.1412 H       1  LIG1        0.0638
     15 C          -2.8288    2.1028   -1.5369 C.3     1  LIG1       -0.0350
     16 O          -2.1938   -0.1953   -1.2941 O.3     1  LIG1       -0.3416
     17 C          -1.1956   -1.2120   -1.1227 C.3     1  LIG1        0.1885
     18 H          -0.7203   -1.0762   -0.1483 H       1  LIG1        0.0938
     19 C          -1.8794   -2.6102   -1.1101 C.3     1  LIG1        0.1341
     20 H          -2.9311   -2.4922   -0.8252 H       1  LIG1        0.0671
     21 O          -1.2912   -3.4506   -0.0939 O.3     1  LIG1       -0.3841
     22 C          -1.7790   -3.3025   -2.4775 C.3     1  LIG1        0.1141
     23 H          -2.1511   -4.3302   -2.3810 H       1  LIG1        0.0648
     24 O          -2.5992   -2.6669   -3.4595 O.3     1  LIG1       -0.3864
     25 C          -0.3197   -3.3474   -2.9809 C.3     1  LIG1        0.1119
     26 H          -0.3047   -3.2201   -4.0704 H       1  LIG1        0.0647
     27 O           0.2482   -4.6291   -2.6821 O.3     1  LIG1       -0.3865
     28 C           0.5592   -2.2742   -2.3173 C.3     1  LIG1        0.1130
     29 H           0.9476   -2.6046   -1.3441 H       1  LIG1        0.0647
     30 C           1.7675   -1.9358   -3.1955 C.3     1  LIG1        0.0730
     31 O           2.5669   -0.9421   -2.5502 O.3     1  LIG1       -0.3924
     32 O          -0.1876   -1.0742   -2.1274 O.3     1  LIG1       -0.3405
     33 C           2.7219    0.2527    1.2065 C.3     1  LIG1       -0.0562
     34 H           0.2127   -0.6109    1.7406 H       1  LIG1        0.0351
     35 H           1.1400   -0.8960    3.2098 H       1  LIG1        0.0351
     36 H           1.9234    1.8257    4.1840 H       1  LIG1        0.0236
     37 H           3.3348    2.0561    3.1484 H       1  LIG1        0.0236
     38 H           3.0139    0.4831    3.8762 H       1  LIG1        0.0236
     39 H           2.2876    3.5196    1.9863 H       1  LIG1        0.2111
     40 H           0.5929    4.7721    2.8110 H       1  LIG1        0.0275
     41 H          -1.1243    4.5087    3.1072 H       1  LIG1        0.0275
     42 H          -0.5280    4.5620    1.4449 H       1  LIG1        0.0275
     43 H          -1.4505    2.3395    4.0415 H       1  LIG1        0.0653
     44 H           0.9074    1.9067   -0.7005 H       1  LIG1        0.0601
     45 H          -1.6761    1.3410    0.8655 H       1  LIG1        0.0595
     46 H          -3.1647    2.0496   -2.5783 H       1  LIG1        0.0258
     47 H          -2.5462    3.1409   -1.3280 H       1  LIG1        0.0258
     48 H          -3.6957    1.8454   -0.9163 H       1  LIG1        0.0258
     49 H          -0.6245   -4.0393   -0.4966 H       1  LIG1        0.2101
     50 H          -3.4887   -2.5510   -3.0786 H       1  LIG1        0.2100
     51 H          -0.0969   -5.2513   -3.3501 H       1  LIG1        0.2100
     52 H           2.3920   -2.8162   -3.3715 H       1  LIG1        0.0584
     53 H           1.4524   -1.5230   -4.1594 H       1  LIG1        0.0584
     54 H           1.9433   -0.2388   -2.2859 H       1  LIG1        0.2095
     55 H           3.2348   -0.5755    1.7126 H       1  LIG1        0.0236
     56 H           3.4946    0.9567    0.8781 H       1  LIG1        0.0236
     57 H           2.2393   -0.1656    0.3184 H       1  LIG1        0.0236
@<TRIPOS>BOND
     1     1     2    2
     2     2     3    1
     3     3     4    1
     4     4     5    1
     5     4     6    1
     6     6     7    1
     7     6     8    1
     8     8     9    1
     9     8    10    2
    10     2    10    1
    11     6    11    1
    12    11    12    2
    13    13    15    1
    14    13    16    1
    15    16    17    1
    16    17    18    1
    17    17    19    1
    18    19    22    1
    19    22    25    1
    20    25    26    1
    21    25    27    1
    22    25    28    1
    23    30    31    1
    24    28    32    1
    25    17    32    1
    26     4    33    1
    27    13    14    1
    28    13    12    1
    29    19    21    1
    30    19    20    1
    31    22    24    1
    32    22    23    1
    33    28    30    1
    34    28    29    1
    35     3    34    1
    36     3    35    1
    37     5    36    1
    38     5    37    1
    39     5    38    1
    40     7    39    1
    41     9    40    1
    42     9    41    1
    43     9    42    1
    44    10    43    1
    45    11    44    1
    46    12    45    1
    47    15    46    1
    48    15    47    1
    49    15    48    1
    50    21    49    1
    51    24    50    1
    52    27    51    1
    53    30    52    1
    54    30    53    1
    55    31    54    1
    56    33    55    1
    57    33    56    1
    58    33    57    1
