REMARK  Name = NuBBE_2080
REMARK  8 active torsions:
REMARK  status: ('A' for Active; 'I' for Inactive)
REMARK    1  A    between atoms: O_1  and  C_2
REMARK    2  A    between atoms: C_4  and  O_5
REMARK    3  A    between atoms: C_6  and  C_7
REMARK    4  A    between atoms: C_7  and  C_8
REMARK    5  A    between atoms: C_8  and  C_9
REMARK    6  A    between atoms: C_9  and  C_10
REMARK    7  A    between atoms: C_18  and  O_19
REMARK    8  A    between atoms: O_19  and  C_20
REMARK                            x       y       z     vdW  Elec       q    Type
REMARK                         _______ _______ _______ _____ _____    ______ ____
ROOT
ATOM      1  C   LIG A   1       0.521   0.462  -0.290  0.00  0.00    +0.010 C 
ENDROOT
BRANCH   1   2
ATOM      2  C   LIG A   1       1.337   1.575  -0.969  0.00  0.00    +0.039 C 
BRANCH   2   6
ATOM      3  C   LIG A   1       0.517   5.523   0.586  0.00  0.00    +0.120 A 
ATOM      4  C   LIG A   1       1.816   5.029   0.641  0.00  0.00    +0.091 A 
ATOM      5  C   LIG A   1       2.077   3.747   0.148  0.00  0.00    +0.123 A 
ATOM      6  C   LIG A   1       1.062   2.954  -0.406  0.00  0.00    -0.006 A 
ATOM      7  C   LIG A   1      -0.237   3.488  -0.461  0.00  0.00    +0.011 A 
ATOM      8  C   LIG A   1      -0.510   4.762   0.044  0.00  0.00    +0.046 A 
BRANCH   3   9
ATOM      9  O   LIG A   1       0.205   6.765   1.058  0.00  0.00    -0.507 OA
ATOM     10  H   LIG A   1       1.015   7.194   1.375  0.00  0.00    +0.292 HD
ENDBRANCH   3   9
BRANCH   5  11
ATOM     11  O   LIG A   1       3.350   3.249   0.207  0.00  0.00    -0.506 OA
ATOM     12  H   LIG A   1       3.923   3.894   0.652  0.00  0.00    +0.292 HD
ENDBRANCH   5  11
ENDBRANCH   2   6
ENDBRANCH   1   2
BRANCH   1  13
ATOM     13  C   LIG A   1       0.862  -0.910  -0.880  0.00  0.00    +0.039 C 
BRANCH  13  14
ATOM     14  C   LIG A   1       0.088  -2.051  -0.244  0.00  0.00    -0.002 A 
ATOM     15  C   LIG A   1       0.668  -2.730   0.847  0.00  0.00    +0.056 A 
ATOM     16  C   LIG A   1      -0.008  -3.809   1.380  0.00  0.00    +0.167 A 
ATOM     17  O   LIG A   1       0.432  -4.599   2.398  0.00  0.00    -0.453 OA
ATOM     18  C   LIG A   1      -0.629  -5.577   2.453  0.00  0.00    +0.466 C 
ATOM     19  O   LIG A   1      -1.709  -5.304   1.536  0.00  0.00    -0.453 OA
ATOM     20  C   LIG A   1      -1.221  -4.209   0.892  0.00  0.00    +0.170 A 
ATOM     21  C   LIG A   1      -1.842  -3.555  -0.150  0.00  0.00    +0.095 A 
ATOM     22  C   LIG A   1      -1.178  -2.465  -0.735  0.00  0.00    +0.127 A 
BRANCH  22  23
ATOM     23  O   LIG A   1      -1.677  -1.759  -1.803  0.00  0.00    -0.495 OA
ATOM     24  C   LIG A   1      -2.951  -2.157  -2.297  0.00  0.00    +0.277 C 
ENDBRANCH  22  23
ENDBRANCH  13  14
ENDBRANCH   1  13
TORSDOF 7
