REMARK  Name = NuBBE_2393
REMARK  12 active torsions:
REMARK  status: ('A' for Active; 'I' for Inactive)
REMARK    1  A    between atoms: C_1  and  C_2
REMARK    2  A    between atoms: C_7  and  C_19
REMARK    3  A    between atoms: C_7  and  O_20
REMARK    4  A    between atoms: C_8  and  C_10
REMARK    5  A    between atoms: C_10  and  C_11
REMARK    6  A    between atoms: C_11  and  C_12
REMARK    7  A    between atoms: C_12  and  C_14
REMARK    8  A    between atoms: C_12  and  C_18
REMARK    9  A    between atoms: C_14  and  C_15
REMARK   10  A    between atoms: C_15  and  O_17
REMARK   11  A    between atoms: C_21  and  C_22
REMARK   12  A    between atoms: C_21  and  C_23
REMARK                            x       y       z     vdW  Elec       q    Type
REMARK                         _______ _______ _______ _____ _____    ______ ____
ROOT
ATOM      1  C   LIG A   1      -1.087   0.639  -1.056  0.00  0.00    +0.012 C 
ATOM      2  C   LIG A   1      -0.531   0.591   0.384  0.00  0.00    -0.023 C 
ATOM      3  C   LIG A   1      -1.607   0.986   1.480  0.00  0.00    +0.001 C 
ATOM      4  C   LIG A   1      -2.766  -0.017   1.511  0.00  0.00    +0.007 C 
ATOM      5  C   LIG A   1      -2.237  -1.383   1.921  0.00  0.00    +0.035 C 
ATOM      6  C   LIG A   1      -1.156  -1.931   0.974  0.00  0.00    +0.067 C 
ATOM      7  C   LIG A   1       0.022  -0.893   0.688  0.00  0.00    +0.027 C 
ATOM      8  C   LIG A   1      -0.650  -3.248   1.597  0.00  0.00    +0.041 C 
ATOM      9  C   LIG A   1      -2.069   2.495   1.534  0.00  0.00    -0.032 C 
ATOM     10  C   LIG A   1      -3.018   2.918   0.396  0.00  0.00    +0.011 C 
ATOM     11  C   LIG A   1      -2.817   2.768   2.868  0.00  0.00    +0.011 C 
ATOM     12  C   LIG A   1      -0.830   3.421   1.548  0.00  0.00    +0.007 C 
ATOM     13  C   LIG A   1       0.179   3.090   0.468  0.00  0.00    +0.001 C 
ATOM     14  C   LIG A   1       0.614   1.632   0.546  0.00  0.00    +0.007 C 
ENDROOT
BRANCH   6  15
ATOM     15  O   LIG A   1      -1.831  -2.266  -0.245  0.00  0.00    -0.389 OA
ATOM     16  H   LIG A   1      -1.333  -2.962  -0.702  0.00  0.00    +0.210 HD
ENDBRANCH   6  15
BRANCH   7  17
ATOM     17  C   LIG A   1       1.030  -1.513  -0.372  0.00  0.00    +0.007 C 
BRANCH  17  18
ATOM     18  C   LIG A   1       2.279  -0.719  -0.825  0.00  0.00    +0.004 C 
BRANCH  18  19
ATOM     19  C   LIG A   1       3.225  -1.454  -1.823  0.00  0.00    -0.003 C 
ATOM     20  C   LIG A   1       4.491  -0.609  -2.079  0.00  0.00    +0.008 C 
BRANCH  19  21
ATOM     21  C   LIG A   1       2.512  -1.733  -3.159  0.00  0.00    +0.123 C 
BRANCH  21  22
ATOM     22  C   LIG A   1       3.391  -2.422  -4.183  0.00  0.00    +0.305 C 
ATOM     23  O   LIG A   1       4.076  -1.837  -4.998  0.00  0.00    -0.251 OA
BRANCH  22  24
ATOM     24  O   LIG A   1       3.360  -3.771  -4.095  0.00  0.00    -0.481 OA
ATOM     25  H   LIG A   1       2.766  -4.115  -3.403  0.00  0.00    +0.295 HD
ENDBRANCH  22  24
ENDBRANCH  21  22
ENDBRANCH  19  21
ENDBRANCH  18  19
ENDBRANCH  17  18
ENDBRANCH   7  17
TORSDOF 7
