REMARK  Name = NuBBE_601
REMARK  4 active torsions:
REMARK  status: ('A' for Active; 'I' for Inactive)
REMARK    1  A    between atoms: C_1  and  O_2
REMARK    2  A    between atoms: O_2  and  C_3
REMARK    3  A    between atoms: C_11  and  O_12
REMARK    4  A    between atoms: O_12  and  C_13
REMARK                            x       y       z     vdW  Elec       q    Type
REMARK                         _______ _______ _______ _____ _____    ______ ____
ROOT
ATOM      1  C   LIG A   1      -0.491   1.296   0.943  0.00  0.00    +0.142 A 
ATOM      2  C   LIG A   1       0.137   2.282   0.159  0.00  0.00    +0.082 A 
ATOM      3  C   LIG A   1       0.868   1.826  -0.930  0.00  0.00    +0.231 A 
ATOM      4  O   LIG A   1       1.427   2.870  -1.601  0.00  0.00    -0.445 OA
ATOM      5  C   LIG A   1       1.052   4.002  -0.961  0.00  0.00    +0.198 A 
ATOM      6  C   LIG A   1       0.257   3.702   0.118  0.00  0.00    +0.055 A 
ATOM      7  N   LIG A   1       1.033   0.561  -1.330  0.00  0.00    -0.208 NA
ATOM      8  C   LIG A   1       0.407  -0.381  -0.618  0.00  0.00    +0.124 A 
ATOM      9  C   LIG A   1       0.527  -1.735  -0.999  0.00  0.00    +0.192 A 
ATOM     10  C   LIG A   1      -0.091  -2.712  -0.232  0.00  0.00    +0.210 A 
ATOM     11  C   LIG A   1      -0.841  -2.400   0.867  0.00  0.00    +0.171 A 
ATOM     12  O   LIG A   1      -1.370  -3.493   1.475  0.00  0.00    -0.452 OA
ATOM     13  C   LIG A   1      -0.850  -4.546   0.638  0.00  0.00    +0.467 C 
ATOM     14  O   LIG A   1      -0.057  -4.058  -0.459  0.00  0.00    -0.449 OA
ATOM     15  C   LIG A   1      -1.003  -1.097   1.272  0.00  0.00    +0.063 A 
ATOM     16  C   LIG A   1      -0.374  -0.064   0.539  0.00  0.00    +0.050 A 
ENDROOT
BRANCH   1  18
ATOM     17  C   LIG A   1      -0.966   2.690   2.823  0.00  0.00    +0.277 C 
ATOM     18  O   LIG A   1      -1.288   1.538   2.055  0.00  0.00    -0.494 OA
ENDBRANCH   1  18
BRANCH   9  19
ATOM     19  O   LIG A   1       1.267  -2.226  -2.050  0.00  0.00    -0.489 OA
ATOM     20  C   LIG A   1       1.314  -1.425  -3.225  0.00  0.00    +0.277 C 
ENDBRANCH   9  19
TORSDOF 2
