@<TRIPOS>MOLECULE
NuBBE_1144
 62 66 0 0 0
SMALL
GASTEIGER

@<TRIPOS>ATOM
      1 O          -4.2492   -1.3991    1.7485 O.2     1  LIG1       -0.2507
      2 C          -3.5325   -0.5952    1.1591 C.2     1  LIG1        0.3108
      3 C          -2.1931   -1.0022    0.6207 C.3     1  LIG1        0.0785
      4 C          -1.1383    0.1133    0.5185 C.3     1  LIG1        0.1099
      5 C          -1.7037    1.5622    0.7625 C.3     1  LIG1        0.0426
      6 C          -1.7104    1.8820    2.2824 C.3     1  LIG1       -0.0529
      7 C          -0.8078    2.6217    0.0260 C.3     1  LIG1       -0.0404
      8 C           0.6778    2.2233   -0.0413 C.3     1  LIG1       -0.0451
      9 C           0.9512    0.8111   -0.6748 C.3     1  LIG1       -0.0094
     10 C           1.8737   -0.1588    0.1763 C.3     1  LIG1        0.0049
     11 C           2.8892    0.7044    0.9895 C.3     1  LIG1       -0.0564
     12 C           0.9336   -0.9972    1.0894 C.3     1  LIG1        0.0727
     13 O          -0.1328   -0.1678    1.5555 O.3     1  LIG1       -0.3637
     14 C           1.6939   -1.6855    2.2053 C.3     1  LIG1        0.0327
     15 C           2.7019   -2.6259    1.5784 C.2     1  LIG1        0.1361
     16 C           3.4708   -2.1825    0.3335 C.3     1  LIG1        0.0098
     17 C           2.7272   -1.2187   -0.6406 C.3     1  LIG1       -0.0160
     18 C           1.9434   -2.0210   -1.7090 C.3     1  LIG1        0.0487
     19 C           2.8212   -2.9211   -2.5673 C.2     1  LIG1        0.3071
     20 O           2.4222   -4.2178   -2.4268 O.3     1  LIG1       -0.4679
     21 C           3.2477   -5.1862   -3.0786 C.3     1  LIG1        0.0817
     22 O           3.7495   -2.5282   -3.2505 O.2     1  LIG1       -0.2509
     23 O           2.9990   -3.6825    2.1403 O.2     1  LIG1       -0.2973
     24 C          -0.4170    0.1730   -0.8446 C.2     1  LIG1       -0.0404
     25 C          -0.9195   -0.1391   -2.0516 C.2     1  LIG1       -0.0964
     26 C          -3.1436    1.5834    0.1747 C.3     1  LIG1        0.1392
     27 H          -3.1319    1.2432   -0.8694 H       1  LIG1        0.0793
     28 C          -3.8224    2.9335    0.1615 C.ar    1  LIG1        0.0310
     29 C          -3.8259    3.8699   -0.8581 C.ar    1  LIG1        0.0984
     30 O          -4.5642    4.9584   -0.5220 O.2     1  LIG1       -0.4706
     31 C          -5.0642    4.7284    0.7167 C.ar    1  LIG1        0.0921
     32 C          -4.6492    3.5020    1.1774 C.ar    1  LIG1       -0.0172
     33 O          -3.9721    0.6482    0.8908 O.3     1  LIG1       -0.4557
     34 H          -2.3905   -1.4936   -0.3358 H       1  LIG1        0.0410
     35 H          -1.8259   -1.7883    1.2948 H       1  LIG1        0.0410
     36 H          -0.6932    1.9220    2.6885 H       1  LIG1        0.0237
     37 H          -2.2577    1.1276    2.8578 H       1  LIG1        0.0237
     38 H          -2.1650    2.8538    2.4951 H       1  LIG1        0.0237
     39 H          -0.8996    3.6029    0.5089 H       1  LIG1        0.0273
     40 H          -1.1547    2.7630   -1.0061 H       1  LIG1        0.0273
     41 H           1.0553    2.3167    0.9767 H       1  LIG1        0.0271
     42 H           1.2192    2.9766   -0.6275 H       1  LIG1        0.0271
     43 H           1.4322    0.9788   -1.6469 H       1  LIG1        0.0353
     44 H           2.4207    1.1979    1.8465 H       1  LIG1        0.0236
     45 H           3.3490    1.4654    0.3485 H       1  LIG1        0.0236
     46 H           3.7136    0.1311    1.4189 H       1  LIG1        0.0236
     47 H           0.4642   -1.8111    0.5238 H       1  LIG1        0.0606
     48 H           0.9964   -2.2686    2.8179 H       1  LIG1        0.0367
     49 H           2.1943   -0.9873    2.8822 H       1  LIG1        0.0367
     50 H           3.7940   -3.0896   -0.1882 H       1  LIG1        0.0345
     51 H           4.3914   -1.7046    0.6881 H       1  LIG1        0.0345
     52 H           3.5029   -0.6635   -1.1881 H       1  LIG1        0.0316
     53 H           1.1656   -2.6369   -1.2529 H       1  LIG1        0.0380
     54 H           1.4607   -1.3486   -2.4187 H       1  LIG1        0.0380
     55 H           3.5397   -4.8733   -4.0856 H       1  LIG1        0.0661
     56 H           2.6768   -6.1166   -3.1613 H       1  LIG1        0.0661
     57 H           4.1305   -5.3767   -2.4619 H       1  LIG1        0.0661
     58 H          -0.3433    0.0282   -2.9589 H       1  LIG1        0.0535
     59 H          -1.9238   -0.5211   -2.1997 H       1  LIG1        0.0535
     60 H          -3.3746    3.9161   -1.8403 H       1  LIG1        0.1033
     61 H          -5.6897    5.5112    1.1234 H       1  LIG1        0.1029
     62 H          -4.9131    3.0596    2.1283 H       1  LIG1        0.0653
@<TRIPOS>BOND
     1     2     3    1
     2     3     4    1
     3     4     5    1
     4     5     7    1
     5     7     8    1
     6     8     9    1
     7     9    10    1
     8    10    12    1
     9    12    13    1
    10     4    13    1
    11    12    14    1
    12    14    15    1
    13    15    16    1
    14    16    17    1
    15    10    17    1
    16    18    19    1
    17    19    20    1
    18    20    21    1
    19    19    22    2
    20     9    24    1
    21     4    24    1
    22     5    26    1
    23    28    29   ar
    24    29    30   ar
    25    30    31   ar
    26    31    32   ar
    27    28    32   ar
    28    26    33    1
    29     2    33    1
    30     1     2    2
    31     5     6    1
    32    10    11    1
    33    15    23    2
    34    17    18    1
    35    24    25    2
    36    26    27    1
    37    26    28    1
    38     3    34    1
    39     3    35    1
    40     6    36    1
    41     6    37    1
    42     6    38    1
    43     7    39    1
    44     7    40    1
    45     8    41    1
    46     8    42    1
    47     9    43    1
    48    11    44    1
    49    11    45    1
    50    11    46    1
    51    12    47    1
    52    14    48    1
    53    14    49    1
    54    16    50    1
    55    16    51    1
    56    17    52    1
    57    18    53    1
    58    18    54    1
    59    21    55    1
    60    21    56    1
    61    21    57    1
    62    25    58    1
    63    25    59    1
    64    29    60    1
    65    31    61    1
    66    32    62    1
