@<TRIPOS>MOLECULE
NuBBE_1873
 46 48 0 0 0
SMALL
GASTEIGER

@<TRIPOS>ATOM
      1 O          -3.0709   -0.8098    0.2189 O.2     1  LIG1       -0.2830
      2 C          -1.8662   -0.5936    0.0970 C.ar    1  LIG1        0.2382
      3 C          -0.9802   -1.7391   -0.0537 C.ar    1  LIG1        0.1128
      4 C          -1.4690   -3.0480   -0.2643 C.ar    1  LIG1        0.1769
      5 C          -0.5911   -4.1288   -0.4388 C.ar    1  LIG1        0.2043
      6 O          -1.0061   -5.4209   -0.6460 O.3     1  LIG1       -0.4885
      7 C          -2.1959   -5.6166   -1.4080 C.3     1  LIG1        0.0791
      8 C           0.7948   -3.8844   -0.3315 C.ar    1  LIG1        0.1687
      9 C           1.2632   -2.5766   -0.0916 C.ar    1  LIG1        0.0270
     10 C           0.3880   -1.5045    0.0361 C.ar    1  LIG1        0.1468
     11 O           0.9153   -0.2579    0.2507 O.2     1  LIG1       -0.4505
     12 C           0.0770    0.8405    0.1983 C.ar    1  LIG1        0.1844
     13 C           0.7750    2.1355    0.3252 C.ar    1  LIG1        0.0661
     14 C           1.1229    2.6822    1.5765 C.ar    1  LIG1        0.1313
     15 O           0.9342    2.0073    2.7546 O.3     1  LIG1       -0.5059
     16 C           1.6996    3.9555    1.6968 C.ar    1  LIG1        0.0259
     17 C           1.9675    4.7028    0.5554 C.ar    1  LIG1        0.1648
     18 C           1.6931    4.1349   -0.6937 C.ar    1  LIG1        0.1594
     19 O           1.9882    4.8337   -1.8348 O.3     1  LIG1       -0.5033
     20 C           1.1018    2.8758   -0.8208 C.ar    1  LIG1       -0.0022
     21 O           2.5345    5.9519    0.5297 O.3     1  LIG1       -0.4913
     22 C           2.2564    6.7820    1.6559 C.3     1  LIG1        0.0790
     23 C          -1.2805    0.7700    0.1017 C.ar    1  LIG1        0.2108
     24 O          -2.0616    1.9137    0.0653 O.3     1  LIG1       -0.4883
     25 C          -3.3021    1.7787   -0.6430 C.3     1  LIG1        0.0791
     26 O           1.8345   -4.7684   -0.4576 O.3     1  LIG1       -0.4912
     27 C           1.5661   -6.1565   -0.5770 C.3     1  LIG1        0.0790
     28 O          -2.8296   -3.2725   -0.2836 O.3     1  LIG1       -0.5027
     29 H          -2.2493   -4.9400   -2.2686 H       1  LIG1        0.0660
     30 H          -3.0862   -5.5411   -0.7761 H       1  LIG1        0.0660
     31 H          -2.1805   -6.6417   -1.7924 H       1  LIG1        0.0660
     32 H           2.3366   -2.4058   -0.0173 H       1  LIG1        0.0692
     33 H           0.7146    1.0821    2.5541 H       1  LIG1        0.2922
     34 H           1.9470    4.3197    2.6881 H       1  LIG1        0.0692
     35 H           2.3763    5.6756   -1.5227 H       1  LIG1        0.2923
     36 H           0.8948    2.4881   -1.8144 H       1  LIG1        0.0663
     37 H           2.7010    7.7644    1.4623 H       1  LIG1        0.0660
     38 H           2.7130    6.3948    2.5714 H       1  LIG1        0.0660
     39 H           1.1776    6.9247    1.7814 H       1  LIG1        0.0660
     40 H          -4.0359    1.2133   -0.0617 H       1  LIG1        0.0660
     41 H          -3.1533    1.3332   -1.6330 H       1  LIG1        0.0660
     42 H          -3.7231    2.7792   -0.7789 H       1  LIG1        0.0660
     43 H           2.5307   -6.6635   -0.6823 H       1  LIG1        0.0660
     44 H           0.9929   -6.3846   -1.4804 H       1  LIG1        0.0660
     45 H           1.0875   -6.5454    0.3275 H       1  LIG1        0.0660
     46 H          -3.3021   -2.4398   -0.0745 H       1  LIG1        0.2923
@<TRIPOS>BOND
     1     1     2    2
     2     2     3   ar
     3     3     4   ar
     4     4     5   ar
     5     5     6    1
     6     6     7    1
     7     5     8   ar
     8     8     9   ar
     9     9    10   ar
    10     3    10   ar
    11    10    11   ar
    12    11    12   ar
    13    12    13    1
    14    13    14   ar
    15    14    15    1
    16    14    16   ar
    17    16    17   ar
    18    17    18   ar
    19    18    19    1
    20    18    20   ar
    21    13    20   ar
    22    17    21    1
    23    21    22    1
    24    12    23   ar
    25     2    23   ar
    26    23    24    1
    27    24    25    1
    28     8    26    1
    29    26    27    1
    30     4    28    1
    31     7    29    1
    32     7    30    1
    33     7    31    1
    34     9    32    1
    35    15    33    1
    36    16    34    1
    37    19    35    1
    38    20    36    1
    39    22    37    1
    40    22    38    1
    41    22    39    1
    42    25    40    1
    43    25    41    1
    44    25    42    1
    45    27    43    1
    46    27    44    1
    47    27    45    1
    48    28    46    1
