REMARK  Name = NuBBE_1832
REMARK  7 active torsions:
REMARK  status: ('A' for Active; 'I' for Inactive)
REMARK    1  A    between atoms: O_1  and  C_2
REMARK    2  A    between atoms: C_3  and  O_4
REMARK    3  A    between atoms: O_4  and  C_5
REMARK    4  A    between atoms: C_10  and  C_11
REMARK    5  A    between atoms: C_20  and  C_21
REMARK    6  A    between atoms: C_22  and  C_23
REMARK    7  A    between atoms: C_23  and  C_24
REMARK                            x       y       z     vdW  Elec       q    Type
REMARK                         _______ _______ _______ _____ _____    ______ ____
ROOT
ATOM      1  C   LIG A   1      -3.275   1.061  -0.143  0.00  0.00    +0.166 A 
ATOM      2  C   LIG A   1      -2.814   2.388  -0.091  0.00  0.00    +0.162 A 
ATOM      3  C   LIG A   1      -1.442   2.644  -0.086  0.00  0.00    +0.061 A 
ATOM      4  C   LIG A   1      -0.547   1.560  -0.139  0.00  0.00    +0.028 A 
ATOM      5  C   LIG A   1      -1.055   0.269  -0.172  0.00  0.00    +0.143 A 
ATOM      6  O   LIG A   1      -0.024  -0.621  -0.217  0.00  0.00    -0.454 OA
ATOM      7  C   LIG A   1       1.148   0.086  -0.231  0.00  0.00    +0.139 A 
ATOM      8  C   LIG A   1       0.877   1.446  -0.178  0.00  0.00    +0.003 A 
ATOM      9  C   LIG A   1       1.829   2.587  -0.164  0.00  0.00    +0.048 C 
ATOM     10  C   LIG A   1      -2.419  -0.056  -0.176  0.00  0.00    +0.044 A 
ENDROOT
BRANCH   7  11
ATOM     11  C   LIG A   1       2.361  -0.725  -0.312  0.00  0.00    +0.021 A 
ATOM     12  C   LIG A   1       2.395  -2.013   0.250  0.00  0.00    +0.061 A 
ATOM     13  C   LIG A   1       3.562  -2.743   0.151  0.00  0.00    +0.167 A 
ATOM     14  C   LIG A   1       4.678  -2.245  -0.476  0.00  0.00    +0.166 A 
ATOM     15  C   LIG A   1       4.691  -0.990  -1.040  0.00  0.00    +0.050 A 
ATOM     16  C   LIG A   1       3.519  -0.230  -0.958  0.00  0.00    +0.015 A 
ATOM     17  O   LIG A   1       5.716  -3.122  -0.468  0.00  0.00    -0.453 OA
ATOM     18  C   LIG A   1       5.125  -4.233   0.238  0.00  0.00    +0.466 C 
ATOM     19  O   LIG A   1       3.758  -3.998   0.636  0.00  0.00    -0.453 OA
ENDBRANCH   7  11
BRANCH   1  20
ATOM     20  O   LIG A   1      -4.633   0.844  -0.204  0.00  0.00    -0.503 OA
ATOM     21  H   LIG A   1      -5.030   1.731  -0.298  0.00  0.00    +0.292 HD
ENDBRANCH   1  20
BRANCH   2  22
ATOM     22  O   LIG A   1      -3.793   3.353  -0.067  0.00  0.00    -0.491 OA
ATOM     23  C   LIG A   1      -3.341   4.704  -0.010  0.00  0.00    +0.277 C 
ENDBRANCH   2  22
BRANCH  10  24
ATOM     24  C   LIG A   1      -2.935  -1.470  -0.235  0.00  0.00    +0.069 C 
BRANCH  24  25
ATOM     25  C   LIG A   1      -3.119  -2.093   1.123  0.00  0.00    -0.030 C 
ATOM     26  C   LIG A   1      -4.283  -2.560   1.580  0.00  0.00    +0.004 C 
ENDBRANCH  24  25
ENDBRANCH  10  24
TORSDOF 5
