@<TRIPOS>MOLECULE
NuBBE_1722
 61 64 0 0 0
SMALL
GASTEIGER

@<TRIPOS>ATOM
      1 C          -2.5400   -0.5604    1.5604 C.3     1  LIG1       -0.0589
      2 C          -1.1371    0.1262    1.5874 C.3     1  LIG1       -0.0227
      3 C          -0.8791    0.9103    0.2580 C.3     1  LIG1       -0.0211
      4 H           0.1353    1.3137    0.3291 H       1  LIG1        0.0314
      5 C          -0.9123   -0.0086   -1.0193 C.3     1  LIG1        0.0194
      6 H          -1.9810   -0.0998   -1.2783 H       1  LIG1        0.0351
      7 C          -0.2964    0.7321   -2.2699 C.3     1  LIG1        0.0911
      8 H          -0.4737    0.1547   -3.1850 H       1  LIG1        0.0467
      9 C           1.2132    1.0037   -2.1580 C.2     1  LIG1        0.3148
     10 O           1.7271    2.0097   -1.7011 O.2     1  LIG1       -0.2502
     11 O           1.9132   -0.0755   -2.6185 O.3     1  LIG1       -0.4675
     12 C           3.3225   -0.0434   -2.3708 C.3     1  LIG1        0.0817
     13 C          -1.0355    2.0348   -2.4256 C.ar    1  LIG1        0.0076
     14 C          -1.6750    2.6385   -1.3651 C.ar    1  LIG1        0.1091
     15 C          -1.8001    2.1598    0.0353 C.3     1  LIG1        0.0095
     16 O          -2.2851    3.7851   -1.7454 O.2     1  LIG1       -0.4675
     17 C          -2.0273    3.9252   -3.0755 C.ar    1  LIG1        0.0924
     18 C          -1.2744    2.8684   -3.5440 C.ar    1  LIG1       -0.0197
     19 C          -0.5143   -1.4798   -0.7705 C.3     1  LIG1        0.1332
     20 H          -1.4187   -2.0562   -0.5522 H       1  LIG1        0.0763
     21 C           0.3903   -1.7144    0.4509 C.3     1  LIG1        0.0962
     22 H           1.4021   -1.4646    0.1395 H       1  LIG1        0.0633
     23 C          -0.0065   -0.9764    1.7777 C.3     1  LIG1       -0.0007
     24 H          -0.4781   -1.7260    2.4343 H       1  LIG1        0.0337
     25 C           1.2989   -0.5403    2.5966 C.3     1  LIG1       -0.0291
     26 C           1.9584   -1.7992    3.2180 C.3     1  LIG1       -0.0595
     27 C           2.3965    0.1526    1.7516 C.3     1  LIG1       -0.0595
     28 C           0.9462    0.4044    3.7664 C.3     1  LIG1       -0.0475
     29 C           0.1104    1.5867    3.3122 C.3     1  LIG1       -0.0521
     30 C          -1.2250    1.0713    2.8210 C.3     1  LIG1       -0.0470
     31 O           0.4481   -3.1285    0.7281 O.3     1  LIG1       -0.3878
     32 O           0.0543   -2.0782   -1.9586 O.3     1  LIG1       -0.4586
     33 C          -0.8451   -2.5689   -2.8528 C.2     1  LIG1        0.3043
     34 O          -2.0607   -2.5757   -2.6891 O.2     1  LIG1       -0.2512
     35 C          -0.1895   -3.0890   -4.0907 C.3     1  LIG1        0.0332
     36 H          -2.6940   -1.2399    0.7252 H       1  LIG1        0.0235
     37 H          -3.3477    0.1784    1.5189 H       1  LIG1        0.0235
     38 H          -2.7021   -1.1507    2.4711 H       1  LIG1        0.0235
     39 H           3.5551    0.3898   -1.3928 H       1  LIG1        0.0661
     40 H           3.8420    0.4993   -3.1662 H       1  LIG1        0.0661
     41 H           3.6730   -1.0794   -2.3696 H       1  LIG1        0.0661
     42 H          -2.8488    1.9087    0.2219 H       1  LIG1        0.0347
     43 H          -1.5159    2.9679    0.7173 H       1  LIG1        0.0347
     44 H          -2.4422    4.8102   -3.5378 H       1  LIG1        0.1029
     45 H          -0.9410    2.7311   -4.5629 H       1  LIG1        0.0652
     46 H           1.2541   -2.3472    3.8542 H       1  LIG1        0.0235
     47 H           2.8181   -1.5265    3.8418 H       1  LIG1        0.0235
     48 H           2.3228   -2.4880    2.4494 H       1  LIG1        0.0235
     49 H           2.0089    0.9692    1.1430 H       1  LIG1        0.0235
     50 H           2.9198   -0.5452    1.0909 H       1  LIG1        0.0235
     51 H           3.1741    0.5770    2.3987 H       1  LIG1        0.0235
     52 H           1.8587    0.7765    4.2502 H       1  LIG1        0.0271
     53 H           0.4005   -0.1470    4.5441 H       1  LIG1        0.0271
     54 H          -0.0508    2.2617    4.1607 H       1  LIG1        0.0266
     55 H           0.6174    2.1717    2.5388 H       1  LIG1        0.0266
     56 H          -1.8918    1.9181    2.6264 H       1  LIG1        0.0271
     57 H          -1.6965    0.5352    3.6578 H       1  LIG1        0.0271
     58 H          -0.4480   -3.4376    0.9512 H       1  LIG1        0.2099
     59 H           0.7056   -2.5101   -4.3311 H       1  LIG1        0.0342
     60 H          -0.8889   -2.9700   -4.9260 H       1  LIG1        0.0342
     61 H           0.0565   -4.1456   -3.9711 H       1  LIG1        0.0342
@<TRIPOS>BOND
     1     2     3    1
     2     3     5    1
     3     5     7    1
     4     9    10    2
     5     9    11    1
     6    11    12    1
     7     7    13    1
     8    13    14   ar
     9    14    15    1
    10     3    15    1
    11    14    16   ar
    12    16    17   ar
    13    17    18   ar
    14    13    18   ar
    15     5    19    1
    16    19    21    1
    17    21    23    1
    18     2    23    1
    19    23    25    1
    20    25    28    1
    21    28    29    1
    22    29    30    1
    23     2    30    1
    24    32    33    1
    25    33    34    2
    26    33    35    1
    27     1     2    1
    28     3     4    1
    29     5     6    1
    30    21    22    1
    31    21    31    1
    32    23    24    1
    33    25    26    1
    34    25    27    1
    35     7     9    1
    36     7     8    1
    37    19    32    1
    38    19    20    1
    39     1    36    1
    40     1    37    1
    41     1    38    1
    42    12    39    1
    43    12    40    1
    44    12    41    1
    45    15    42    1
    46    15    43    1
    47    17    44    1
    48    18    45    1
    49    26    46    1
    50    26    47    1
    51    26    48    1
    52    27    49    1
    53    27    50    1
    54    27    51    1
    55    28    52    1
    56    28    53    1
    57    29    54    1
    58    29    55    1
    59    30    56    1
    60    30    57    1
    61    31    58    1
    62    35    59    1
    63    35    60    1
    64    35    61    1
