REMARK  Name = NuBBE_1460
REMARK  7 active torsions:
REMARK  status: ('A' for Active; 'I' for Inactive)
REMARK    1  A    between atoms: C_4  and  O_5
REMARK    2  A    between atoms: C_9  and  C_10
REMARK    3  A    between atoms: C_9  and  C_11
REMARK    4  A    between atoms: C_21  and  O_22
REMARK    5  A    between atoms: O_22  and  C_23
REMARK    6  A    between atoms: C_24  and  O_25
REMARK    7  A    between atoms: O_25  and  C_26
REMARK                            x       y       z     vdW  Elec       q    Type
REMARK                         _______ _______ _______ _____ _____    ______ ____
ROOT
ATOM      1  O   LIG A   1      -1.902  -0.259   0.089  0.00  0.00    -0.286 OA
ATOM      2  C   LIG A   1      -0.713   0.044   0.159  0.00  0.00    +0.204 A 
ATOM      3  C   LIG A   1       0.295  -1.029   0.182  0.00  0.00    +0.107 A 
ATOM      4  C   LIG A   1      -0.065  -2.386   0.133  0.00  0.00    +0.142 A 
ATOM      5  C   LIG A   1       0.927  -3.382   0.141  0.00  0.00    +0.059 A 
ATOM      6  C   LIG A   1       2.272  -3.000   0.199  0.00  0.00    +0.136 A 
ATOM      7  O   LIG A   1       3.316  -3.881   0.223  0.00  0.00    -0.481 OA
ATOM      8  C   LIG A   1       3.054  -5.274  -0.049  0.00  0.00    +0.123 C 
ATOM      9  C   LIG A   1       3.618  -5.572  -1.444  0.00  0.00    +0.060 C 
ATOM     10  C   LIG A   1       3.841  -6.063   1.005  0.00  0.00    +0.060 C 
ATOM     11  C   LIG A   1       1.601  -5.681   0.007  0.00  0.00    +0.020 C 
ATOM     12  C   LIG A   1       0.600  -4.802   0.100  0.00  0.00    +0.015 C 
ATOM     13  C   LIG A   1       2.625  -1.651   0.261  0.00  0.00    +0.093 A 
ATOM     14  C   LIG A   1       1.636  -0.670   0.246  0.00  0.00    +0.146 A 
ATOM     15  O   LIG A   1       2.059   0.631   0.293  0.00  0.00    -0.455 OA
ATOM     16  C   LIG A   1       1.110   1.635   0.253  0.00  0.00    +0.154 A 
ATOM     17  C   LIG A   1      -0.220   1.445   0.202  0.00  0.00    +0.075 A 
ATOM     18  C   LIG A   1      -1.064   2.653   0.177  0.00  0.00    +0.035 A 
ATOM     19  C   LIG A   1      -2.442   2.643   0.435  0.00  0.00    +0.061 A 
ATOM     20  C   LIG A   1      -3.206   3.816   0.340  0.00  0.00    +0.162 A 
ATOM     21  C   LIG A   1      -2.588   5.029  -0.005  0.00  0.00    +0.165 A 
ATOM     22  C   LIG A   1      -1.213   5.056  -0.237  0.00  0.00    +0.095 A 
ATOM     23  C   LIG A   1      -0.464   3.882  -0.131  0.00  0.00    +0.133 A 
ATOM     24  O   LIG A   1       0.879   4.006  -0.382  0.00  0.00    -0.484 OA
ATOM     25  C   LIG A   1       1.694   3.019   0.260  0.00  0.00    +0.303 C 
ENDROOT
BRANCH   4  26
ATOM     26  O   LIG A   1      -1.381  -2.781   0.072  0.00  0.00    -0.505 OA
ATOM     27  H   LIG A   1      -1.947  -1.976   0.056  0.00  0.00    +0.292 HD
ENDBRANCH   4  26
BRANCH  20  28
ATOM     28  O   LIG A   1      -4.554   3.863   0.597  0.00  0.00    -0.491 OA
ATOM     29  C   LIG A   1      -5.282   2.669   0.333  0.00  0.00    +0.277 C 
ENDBRANCH  20  28
BRANCH  21  30
ATOM     30  O   LIG A   1      -3.393   6.139  -0.059  0.00  0.00    -0.491 OA
ATOM     31  C   LIG A   1      -2.960   7.186  -0.920  0.00  0.00    +0.277 C 
ENDBRANCH  21  30
TORSDOF 3
