@<TRIPOS>MOLECULE
NuBBE_2298
 44 47 0 0 0
SMALL
GASTEIGER

@<TRIPOS>ATOM
      1 C          -1.5521    1.2658   -1.4962 C.3     1  LIG1       -0.0590
      2 C          -0.5082    0.3334   -0.8741 C.3     1  LIG1       -0.0017
      3 H          -1.0761   -0.5294   -0.5085 H       1  LIG1        0.0334
      4 C           0.6593   -0.1327   -1.8022 C.3     1  LIG1        0.0443
      5 C           1.7851    0.8214   -1.3542 C.3     1  LIG1        0.2390
      6 O           3.0715    0.2646   -1.5694 O.3     1  LIG1       -0.3582
      7 O           1.6112    0.9664    0.0518 O.3     1  LIG1       -0.3337
      8 C           0.1988    1.0375    0.3123 C.3     1  LIG1        0.0907
      9 H          -0.0483    2.1073    0.3397 H       1  LIG1        0.0650
     10 C          -0.1187    0.4569    1.6797 C.ar    1  LIG1       -0.0148
     11 C          -1.2785    0.8618    2.3703 C.ar    1  LIG1       -0.0105
     12 C          -1.5247    0.3210    3.6196 C.ar    1  LIG1        0.1666
     13 O          -2.5762    0.6241    4.4301 O.3     1  LIG1       -0.4526
     14 C          -2.2692   -0.1829    5.5884 C.3     1  LIG1        0.2332
     15 O          -1.1086   -1.0192    5.4110 O.3     1  LIG1       -0.4526
     16 C          -0.6852   -0.6075    4.1863 C.ar    1  LIG1        0.1662
     17 C           0.4570   -1.0311    3.5482 C.ar    1  LIG1       -0.0158
     18 C           0.7443   -0.4824    2.2937 C.ar    1  LIG1       -0.0524
     19 C           1.0554   -1.6186   -1.4668 C.3     1  LIG1       -0.0234
     20 C          -0.0295   -2.6526   -1.6574 C.2     1  LIG1       -0.0904
     21 C          -0.4929   -3.4309   -0.6702 C.2     1  LIG1       -0.1026
     22 C           0.4225   -0.0648   -3.3316 C.3     1  LIG1       -0.0227
     23 C           0.6141    1.2708   -3.9831 C.2     1  LIG1       -0.0798
     24 C           1.2223    2.3152   -3.4175 C.2     1  LIG1       -0.0176
     25 C           1.7642    2.2166   -2.0443 C.2     1  LIG1        0.2150
     26 O           2.2181    3.2298   -1.5224 O.2     1  LIG1       -0.2869
     27 H          -1.1202    2.2146   -1.8248 H       1  LIG1        0.0234
     28 H          -2.3295    1.5059   -0.7627 H       1  LIG1        0.0234
     29 H          -2.0506    0.7959   -2.3489 H       1  LIG1        0.0234
     30 H           3.6706    0.8970   -1.1296 H       1  LIG1        0.2132
     31 H          -1.9622    1.5956    1.9560 H       1  LIG1        0.0659
     32 H          -3.1326   -0.8193    5.8142 H       1  LIG1        0.1166
     33 H          -2.0910    0.4791    6.4448 H       1  LIG1        0.1166
     34 H           1.1211   -1.7522    4.0101 H       1  LIG1        0.0655
     35 H           1.6667   -0.7782    1.7972 H       1  LIG1        0.0622
     36 H           1.8846   -1.9260   -2.1203 H       1  LIG1        0.0315
     37 H           1.4532   -1.6860   -0.4481 H       1  LIG1        0.0315
     38 H          -0.4198   -2.8005   -2.6622 H       1  LIG1        0.0566
     39 H          -0.1240   -3.3429    0.3478 H       1  LIG1        0.0532
     40 H          -1.2514   -4.1847   -0.8600 H       1  LIG1        0.0532
     41 H          -0.5832   -0.4309   -3.5683 H       1  LIG1        0.0315
     42 H           1.1137   -0.7433   -3.8504 H       1  LIG1        0.0315
     43 H           0.2497    1.3699   -5.0047 H       1  LIG1        0.0573
     44 H           1.3492    3.2654   -3.9232 H       1  LIG1        0.0651
@<TRIPOS>BOND
     1     2     4    1
     2     4     5    1
     3     5     7    1
     4     7     8    1
     5     2     8    1
     6    10    11   ar
     7    11    12   ar
     8    12    13    1
     9    13    14    1
    10    14    15    1
    11    12    16   ar
    12    15    16    1
    13    16    17   ar
    14    17    18   ar
    15    10    18   ar
    16    19    20    1
    17    20    21    2
    18     4    22    1
    19    22    23    1
    20    23    24    2
    21    24    25    1
    22     5    25    1
    23     1     2    1
    24     2     3    1
    25     4    19    1
    26     5     6    1
    27     8     9    1
    28     8    10    1
    29    25    26    2
    30     1    27    1
    31     1    28    1
    32     1    29    1
    33     6    30    1
    34    11    31    1
    35    14    32    1
    36    14    33    1
    37    17    34    1
    38    18    35    1
    39    19    36    1
    40    19    37    1
    41    20    38    1
    42    21    39    1
    43    21    40    1
    44    22    41    1
    45    22    42    1
    46    23    43    1
    47    24    44    1
