@<TRIPOS>MOLECULE
NuBBE_571
 52 55 0 0 0
SMALL
GASTEIGER

@<TRIPOS>ATOM
      1 O          -1.3530    1.8782    1.5870 O.2     1  LIG1       -0.2937
      2 C          -0.1962    1.5189    1.3449 C.2     1  LIG1        0.1721
      3 C           0.6565    2.2731    0.3118 C.3     1  LIG1        0.1547
      4 C           0.3497    3.6775   -0.1435 C.2     1  LIG1       -0.0387
      5 C           1.2904    4.0378   -1.0609 C.2     1  LIG1       -0.0084
      6 C           2.7809    4.1736   -0.7404 C.3     1  LIG1       -0.0366
      7 C           1.1852    2.7993   -1.8781 C.2     1  LIG1        0.1679
      8 O           1.2089    2.8764   -3.1238 O.2     1  LIG1       -0.2919
      9 O           1.7967    2.5549    1.1692 O.3     1  LIG1       -0.3761
     10 C           0.9856    1.5368   -1.0309 C.3     1  LIG1        0.0898
     11 H           1.9424    1.0132   -0.9770 H       1  LIG1        0.0443
     12 C          -0.0980    0.7132   -1.7203 C.3     1  LIG1        0.1013
     13 H          -0.9828    1.3339   -1.8543 H       1  LIG1        0.0633
     14 C          -0.2912   -0.7604   -2.2903 C.3     1  LIG1        0.0940
     15 C          -1.5464   -1.0185   -3.0956 C.3     1  LIG1       -0.0333
     16 O           0.5163    0.1892   -2.9379 O.3     1  LIG1       -0.3642
     17 C           0.4675   -2.0103   -1.8921 C.3     1  LIG1       -0.0212
     18 C          -0.2489   -2.8013   -0.7836 C.3     1  LIG1       -0.0468
     19 C          -0.1568   -2.0192    0.4899 C.3     1  LIG1       -0.0322
     20 H           0.8576   -2.3732    0.7271 H       1  LIG1        0.0309
     21 C          -0.5067   -1.8816    2.0042 C.3     1  LIG1       -0.0317
     22 H          -0.2035   -2.7247    2.6252 H       1  LIG1        0.0309
     23 C          -1.6048   -2.0585    1.0728 C.3     1  LIG1       -0.0287
     24 C          -2.3664   -3.3392    1.3131 C.3     1  LIG1       -0.0593
     25 C          -2.4768   -0.9176    0.6139 C.3     1  LIG1       -0.0593
     26 C          -0.3826   -0.6098    2.7997 C.3     1  LIG1       -0.0400
     27 C           0.5424    0.4760    2.2458 C.3     1  LIG1        0.0182
     28 H           0.8352    1.0801    3.1194 H       1  LIG1        0.0376
     29 C           1.8548   -0.1026    1.6933 C.3     1  LIG1       -0.0556
     30 H          -0.6997    3.8546   -0.3956 H       1  LIG1        0.0609
     31 H           2.9394    4.7598    0.1699 H       1  LIG1        0.0279
     32 H           3.3166    4.6460   -1.5642 H       1  LIG1        0.0279
     33 H           3.2633    3.1946   -0.5861 H       1  LIG1        0.0279
     34 H           1.4934    3.2242    1.8189 H       1  LIG1        0.2112
     35 H          -1.8157   -0.1440   -3.7000 H       1  LIG1        0.0258
     36 H          -2.3888   -1.2418   -2.4385 H       1  LIG1        0.0258
     37 H          -1.4114   -1.8571   -3.7873 H       1  LIG1        0.0258
     38 H           1.4995   -1.7821   -1.6051 H       1  LIG1        0.0294
     39 H           0.5333   -2.6680   -2.7714 H       1  LIG1        0.0294
     40 H           0.2226   -3.7870   -0.6650 H       1  LIG1        0.0269
     41 H          -1.2777   -2.9972   -1.1080 H       1  LIG1        0.0269
     42 H          -1.6949   -4.1971    1.4275 H       1  LIG1        0.0235
     43 H          -3.0530   -3.5503    0.4892 H       1  LIG1        0.0235
     44 H          -2.9521   -3.2426    2.2341 H       1  LIG1        0.0235
     45 H          -1.8813   -0.0940    0.2196 H       1  LIG1        0.0235
     46 H          -3.1035   -0.5413    1.4254 H       1  LIG1        0.0235
     47 H          -3.1243   -1.2389   -0.2065 H       1  LIG1        0.0235
     48 H           0.0184   -0.8974    3.7822 H       1  LIG1        0.0275
     49 H          -1.3769   -0.2066    3.0192 H       1  LIG1        0.0275
     50 H           1.7590   -0.4088    0.6518 H       1  LIG1        0.0236
     51 H           2.2002   -0.9565    2.2816 H       1  LIG1        0.0236
     52 H           2.6778    0.6165    1.7199 H       1  LIG1        0.0236
@<TRIPOS>BOND
     1     2     3    1
     2     3     4    1
     3     4     5    2
     4     5     7    1
     5     3    10    1
     6     7    10    1
     7    10    12    1
     8    12    14    1
     9    14    16    1
    10    12    16    1
    11    14    17    1
    12    17    18    1
    13    18    19    1
    14    19    21    1
    15    21    23    1
    16    19    23    1
    17    21    26    1
    18    26    27    1
    19     2    27    1
    20     1     2    2
    21     3     9    1
    22     5     6    1
    23     7     8    2
    24    10    11    1
    25    12    13    1
    26    14    15    1
    27    19    20    1
    28    21    22    1
    29    23    24    1
    30    23    25    1
    31    27    28    1
    32    27    29    1
    33     4    30    1
    34     6    31    1
    35     6    32    1
    36     6    33    1
    37     9    34    1
    38    15    35    1
    39    15    36    1
    40    15    37    1
    41    17    38    1
    42    17    39    1
    43    18    40    1
    44    18    41    1
    45    24    42    1
    46    24    43    1
    47    24    44    1
    48    25    45    1
    49    25    46    1
    50    25    47    1
    51    26    48    1
    52    26    49    1
    53    29    50    1
    54    29    51    1
    55    29    52    1
