REMARK  Name = NuBBE_664
REMARK  9 active torsions:
REMARK  status: ('A' for Active; 'I' for Inactive)
REMARK    1  A    between atoms: C_6  and  C_7
REMARK    2  A    between atoms: C_9  and  O_11
REMARK    3  A    between atoms: O_11  and  C_12
REMARK    4  A    between atoms: C_12  and  C_13
REMARK    5  A    between atoms: C_13  and  C_14
REMARK    6  A    between atoms: C_15  and  C_16
REMARK    7  A    between atoms: C_20  and  O_22
REMARK    8  A    between atoms: C_24  and  C_25
REMARK    9  A    between atoms: C_25  and  O_26
REMARK                            x       y       z     vdW  Elec       q    Type
REMARK                         _______ _______ _______ _____ _____    ______ ____
ROOT
ATOM      1  O   LIG A   1      -1.505   3.265   2.480  0.00  0.00    -0.294 OA
ATOM      2  C   LIG A   1      -1.486   2.381   1.633  0.00  0.00    +0.168 C 
ATOM      3  C   LIG A   1      -2.130   2.500   0.278  0.00  0.00    +0.117 C 
ATOM      4  C   LIG A   1      -1.359   1.370  -0.390  0.00  0.00    +0.109 C 
ATOM      5  O   LIG A   1      -1.364   0.356   0.635  0.00  0.00    -0.354 OA
ATOM      6  C   LIG A   1      -0.797   1.025   1.787  0.00  0.00    +0.129 C 
ATOM      7  C   LIG A   1      -1.213   0.313   3.057  0.00  0.00    +0.050 C 
ATOM      8  C   LIG A   1       0.728   1.132   1.600  0.00  0.00    +0.087 C 
ATOM      9  C   LIG A   1       1.124   1.024   0.110  0.00  0.00    +0.189 C 
ATOM     10  C   LIG A   1       0.104   1.812  -0.732  0.00  0.00    +0.099 C 
ATOM     11  C   LIG A   1       0.239   1.641  -2.249  0.00  0.00    +0.147 C 
ATOM     12  C   LIG A   1      -1.014   0.960  -2.666  0.00  0.00    +0.009 C 
ATOM     13  C   LIG A   1      -1.894   0.804  -1.666  0.00  0.00    -0.014 C 
ENDROOT
BRANCH  11  14
ATOM     14  O   LIG A   1       0.232   2.912  -2.885  0.00  0.00    -0.387 OA
ATOM     15  H   LIG A   1       1.099   3.324  -2.734  0.00  0.00    +0.210 HD
ENDBRANCH  11  14
BRANCH   9  16
ATOM     16  O   LIG A   1       1.122  -0.363  -0.291  0.00  0.00    -0.458 OA
BRANCH  16  17
ATOM     17  C   LIG A   1       2.184  -1.127   0.072  0.00  0.00    +0.335 C 
ATOM     18  O   LIG A   1       3.212  -0.705   0.594  0.00  0.00    -0.245 OA
BRANCH  17  19
ATOM     19  C   LIG A   1       1.894  -2.555  -0.251  0.00  0.00    +0.029 C 
ATOM     20  C   LIG A   1       0.881  -2.807  -1.331  0.00  0.00    +0.051 C 
ATOM     21  C   LIG A   1       2.511  -3.586   0.371  0.00  0.00    -0.020 C 
ATOM     22  C   LIG A   1       3.500  -3.543   1.491  0.00  0.00    +0.035 C 
ENDBRANCH  17  19
ENDBRANCH  16  17
ENDBRANCH   9  16
BRANCH  13  23
ATOM     23  C   LIG A   1      -3.236   0.168  -1.796  0.00  0.00    +0.189 C 
BRANCH  23  24
ATOM     24  O   LIG A   1      -3.342  -0.970  -0.956  0.00  0.00    -0.391 OA
ATOM     25  H   LIG A   1      -2.890  -0.759  -0.117  0.00  0.00    +0.210 HD
ENDBRANCH  23  24
ENDBRANCH  13  23
TORSDOF 6
