REMARK  Name = NuBBE_1115
REMARK  7 active torsions:
REMARK  status: ('A' for Active; 'I' for Inactive)
REMARK    1  A    between atoms: O_1  and  C_2
REMARK    2  A    between atoms: C_2  and  C_3
REMARK    3  A    between atoms: C_5  and  O_6
REMARK    4  A    between atoms: O_6  and  C_7
REMARK    5  A    between atoms: C_8  and  O_9
REMARK    6  A    between atoms: C_10  and  O_11
REMARK    7  A    between atoms: O_11  and  C_12
REMARK                            x       y       z     vdW  Elec       q    Type
REMARK                         _______ _______ _______ _____ _____    ______ ____
ROOT
ATOM      1  C   LIG A   1      -1.147   0.159   1.286  0.00  0.00    +0.066 A 
ATOM      2  C   LIG A   1      -0.743   1.372   0.715  0.00  0.00    +0.064 A 
ATOM      3  C   LIG A   1       0.195   1.396  -0.325  0.00  0.00    +0.166 A 
ATOM      4  C   LIG A   1       0.751   0.187  -0.751  0.00  0.00    +0.201 A 
ATOM      5  C   LIG A   1       0.360  -1.036  -0.176  0.00  0.00    +0.166 A 
ATOM      6  C   LIG A   1      -0.592  -1.048   0.840  0.00  0.00    +0.064 A 
ENDROOT
BRANCH   1   7
ATOM      7  C   LIG A   1      -2.118   0.101   2.406  0.00  0.00    +0.337 C 
ATOM      8  O   LIG A   1      -2.097  -0.787   3.247  0.00  0.00    -0.245 OA
BRANCH   7   9
ATOM      9  O   LIG A   1      -3.048   1.075   2.389  0.00  0.00    -0.477 OA
ATOM     10  H   LIG A   1      -3.066   1.628   1.585  0.00  0.00    +0.295 HD
ENDBRANCH   7   9
ENDBRANCH   1   7
BRANCH   3  11
ATOM     11  O   LIG A   1       0.450   2.659  -0.788  0.00  0.00    -0.491 OA
ATOM     12  C   LIG A   1       1.361   2.794  -1.871  0.00  0.00    +0.277 C 
ENDBRANCH   3  11
BRANCH   4  13
ATOM     13  O   LIG A   1       1.715   0.136  -1.726  0.00  0.00    -0.501 OA
ATOM     14  H   LIG A   1       1.965  -0.807  -1.796  0.00  0.00    +0.292 HD
ENDBRANCH   4  13
BRANCH   5  15
ATOM     15  O   LIG A   1       0.998  -2.137  -0.694  0.00  0.00    -0.491 OA
ATOM     16  C   LIG A   1       0.624  -3.402  -0.159  0.00  0.00    +0.277 C 
ENDBRANCH   5  15
TORSDOF 5
