@<TRIPOS>MOLECULE
NuBBE_332
 67 68 0 0 0
SMALL
GASTEIGER

@<TRIPOS>ATOM
      1 O           3.6971    3.1376    2.1922 O.2     1  LIG1       -0.2452
      2 C           3.6375    2.3675    1.2587 C.2     1  LIG1        0.3381
      3 C           2.4265    1.5468    0.9303 C.2     1  LIG1        0.0749
      4 C           2.5326    0.5241    0.0776 C.2     1  LIG1        0.0981
      5 O           1.5529   -0.3539   -0.2709 O.2     1  LIG1       -0.4701
      6 C           0.2833   -0.3209    0.4063 C.3     1  LIG1        0.2102
      7 C           0.3685    0.4618    1.7690 C.3     1  LIG1        0.0659
      8 H           1.0720   -0.1644    2.3538 H       1  LIG1        0.0403
      9 C           1.1380    1.8151    1.6707 C.3     1  LIG1        0.0157
     10 C           0.4332    3.1201    1.2287 C.3     1  LIG1        0.0525
     11 C          -0.1826    3.2619   -0.1438 C.2     1  LIG1        0.3053
     12 O          -0.7208    4.4983   -0.3011 O.3     1  LIG1       -0.4806
     13 O          -0.2133    2.4857   -1.0642 O.2     1  LIG1       -0.2510
     14 H           1.4455    2.0239    2.7104 H       1  LIG1        0.0363
     15 C          -0.9410    0.4160    2.5924 C.3     1  LIG1        0.1097
     16 H          -1.7942    0.7067    1.9794 H       1  LIG1        0.0736
     17 C          -0.9487    1.2913    3.8554 C.3     1  LIG1       -0.0272
     18 O          -1.0899   -0.9549    3.0644 O.3     1  LIG1       -0.4579
     19 C          -1.8907   -1.7970    2.3578 C.2     1  LIG1        0.3348
     20 C          -1.6133   -3.2222    2.7436 C.2     1  LIG1        0.0293
     21 C          -0.5172   -3.5148    3.7240 C.3     1  LIG1       -0.0333
     22 C          -2.3374   -4.1790    2.1344 C.2     1  LIG1       -0.0774
     23 C          -2.1300   -5.6562    2.2712 C.3     1  LIG1       -0.0461
     24 O          -2.6276   -1.4722    1.4583 O.2     1  LIG1       -0.2453
     25 O          -0.8009    0.0847   -0.4572 O.3     1  LIG1       -0.3094
     26 C          -1.0920   -0.8644   -1.5172 C.3     1  LIG1        0.1918
     27 H          -1.2763   -1.8376   -1.0449 H       1  LIG1        0.0939
     28 O           0.0554   -1.0328   -2.3345 O.3     1  LIG1       -0.3404
     29 C          -0.0169   -0.7927   -3.7386 C.3     1  LIG1        0.1130
     30 H          -0.3859   -1.6949   -4.2430 H       1  LIG1        0.0647
     31 C          -0.8294    0.4438   -4.1489 C.3     1  LIG1        0.1119
     32 H          -0.2457    1.3472   -3.9510 H       1  LIG1        0.0647
     33 C          -2.1589    0.5783   -3.3933 C.3     1  LIG1        0.1141
     34 H          -2.9829    0.5273   -4.1190 H       1  LIG1        0.0648
     35 O          -2.2513    1.8862   -2.8148 O.3     1  LIG1       -0.3864
     36 O          -1.0357    0.4671   -5.5760 O.3     1  LIG1       -0.3865
     37 C           1.4568   -0.5722   -4.1214 C.3     1  LIG1        0.0730
     38 O           1.9700    0.5540   -3.3932 O.3     1  LIG1       -0.3924
     39 C          -2.3772   -0.5004   -2.3216 C.3     1  LIG1        0.1342
     40 H          -3.1603   -0.1826   -1.6241 H       1  LIG1        0.0671
     41 O          -2.8734   -1.6742   -3.0119 O.3     1  LIG1       -0.3841
     42 O           4.5833    2.1805    0.3007 O.3     1  LIG1       -0.4646
     43 C           5.5644    3.2061    0.1649 C.3     1  LIG1        0.0820
     44 H           3.4471    0.2576   -0.4428 H       1  LIG1        0.1029
     45 H           0.1013   -1.3679    0.6713 H       1  LIG1        0.1060
     46 H           1.1767    3.9293    1.2723 H       1  LIG1        0.0384
     47 H          -0.3397    3.3920    1.9524 H       1  LIG1        0.0384
     48 H          -1.0284    4.5121   -1.2331 H       1  LIG1        0.2951
     49 H          -0.1801    1.0113    4.5861 H       1  LIG1        0.0265
     50 H          -1.9125    1.1956    4.3693 H       1  LIG1        0.0265
     51 H          -0.8237    2.3485    3.6240 H       1  LIG1        0.0265
     52 H          -0.2746   -2.6610    4.3619 H       1  LIG1        0.0280
     53 H           0.3953   -3.8081    3.1943 H       1  LIG1        0.0280
     54 H          -0.8070   -4.3185    4.4083 H       1  LIG1        0.0280
     55 H          -3.1322   -3.9017    1.4366 H       1  LIG1        0.0574
     56 H          -1.2298   -5.9046    2.8393 H       1  LIG1        0.0272
     57 H          -2.0167   -6.1030    1.2778 H       1  LIG1        0.0272
     58 H          -2.9893   -6.1193    2.7637 H       1  LIG1        0.0272
     59 H          -1.4130    2.0292   -2.3185 H       1  LIG1        0.2100
     60 H          -1.6423   -0.2499   -5.8264 H       1  LIG1        0.2100
     61 H           2.0631   -1.4321   -3.8199 H       1  LIG1        0.0584
     62 H           1.5943   -0.3928   -5.1907 H       1  LIG1        0.0584
     63 H           1.5739    0.4787   -2.4973 H       1  LIG1        0.2095
     64 H          -3.7484   -1.4375   -3.3738 H       1  LIG1        0.2101
     65 H           5.6631    3.3988   -0.9074 H       1  LIG1        0.0661
     66 H           6.5270    2.8580    0.5479 H       1  LIG1        0.0661
     67 H           5.2724    4.1406    0.6511 H       1  LIG1        0.0661
@<TRIPOS>BOND
     1     1     2    2
     2     2     3    1
     3     3     4    2
     4     4     5    1
     5     5     6    1
     6     6     7    1
     7     7     9    1
     8     9    10    1
     9    10    11    1
    10    11    12    1
    11    11    13    2
    12     3     9    1
    13     9    14    1
    14    15    18    1
    15    18    19    1
    16    19    20    1
    17    20    21    1
    18    20    22    2
    19    22    23    1
    20    19    24    2
    21     6    25    1
    22    25    26    1
    23    26    27    1
    24    26    28    1
    25    28    29    1
    26    29    31    1
    27    31    32    1
    28    31    33    1
    29    31    36    1
    30    37    38    1
    31    26    39    1
    32    33    39    1
    33     2    42    1
    34    42    43    1
    35     7    15    1
    36     7     8    1
    37    15    17    1
    38    15    16    1
    39    33    35    1
    40    33    34    1
    41    29    37    1
    42    29    30    1
    43    39    41    1
    44    39    40    1
    45     4    44    1
    46     6    45    1
    47    10    46    1
    48    10    47    1
    49    12    48    1
    50    17    49    1
    51    17    50    1
    52    17    51    1
    53    21    52    1
    54    21    53    1
    55    21    54    1
    56    22    55    1
    57    23    56    1
    58    23    57    1
    59    23    58    1
    60    35    59    1
    61    36    60    1
    62    37    61    1
    63    37    62    1
    64    38    63    1
    65    41    64    1
    66    43    65    1
    67    43    66    1
    68    43    67    1
