@<TRIPOS>MOLECULE
NuBBE_1649
 60 59 0 0 0
SMALL
GASTEIGER

@<TRIPOS>ATOM
      1 C           0.7369    5.4562   -1.7069 C.3     1  LIG1       -0.0430
      2 C          -0.4294    4.9849   -0.8245 C.3     1  LIG1       -0.0526
      3 C          -0.5881    3.5106   -0.4397 C.3     1  LIG1       -0.0530
      4 C          -0.9699    2.5896   -1.5759 C.3     1  LIG1       -0.0528
      5 C          -1.2114    1.0947   -1.3858 C.3     1  LIG1       -0.0496
      6 C          -2.4241    0.7137   -0.5522 C.3     1  LIG1       -0.0348
      7 C          -2.4251    1.2093    0.8630 C.2     1  LIG1       -0.0879
      8 C          -2.3379    0.5312    2.0158 C.2     1  LIG1       -0.0879
      9 C          -2.1485   -0.9443    2.1494 C.3     1  LIG1       -0.0348
     10 C          -2.2298   -1.4415    3.6020 C.3     1  LIG1       -0.0496
     11 C          -2.0143   -2.9725    3.7050 C.3     1  LIG1       -0.0528
     12 C          -0.6198   -3.4040    3.1693 C.3     1  LIG1       -0.0530
     13 C          -0.2670   -4.9029    3.2391 C.3     1  LIG1       -0.0531
     14 C           1.1225   -5.3144    2.6597 C.3     1  LIG1       -0.0533
     15 C           1.2735   -5.3468    1.1270 C.3     1  LIG1       -0.0559
     16 C           2.6720   -5.7832    0.6616 C.3     1  LIG1       -0.0653
     17 C           0.8934    5.0735   -3.1876 C.3     1  LIG1        0.0449
     18 C           1.1609    3.6916   -3.7109 C.2     1  LIG1        0.3071
     19 O           0.2478    2.8597   -3.9791 O.2     1  LIG1       -0.2509
     20 O           2.4494    3.4522   -4.0177 O.3     1  LIG1       -0.4649
     21 C           2.7093    2.1113   -4.4739 C.3     1  LIG1        0.0896
     22 C           3.2666    1.3427   -3.2992 C.3     1  LIG1       -0.0306
     23 H           1.6830    5.3151   -1.1727 H       1  LIG1        0.0270
     24 H           0.6031    6.5529   -1.7335 H       1  LIG1        0.0270
     25 H          -1.3772    5.3759   -1.2137 H       1  LIG1        0.0265
     26 H          -0.2885    5.5006    0.1407 H       1  LIG1        0.0265
     27 H          -1.3431    3.5060    0.3360 H       1  LIG1        0.0265
     28 H           0.3426    3.1412    0.0024 H       1  LIG1        0.0265
     29 H          -0.0133    2.5408   -2.0519 H       1  LIG1        0.0265
     30 H          -1.7235    3.0262   -2.2473 H       1  LIG1        0.0265
     31 H          -0.2945    0.6229   -1.0111 H       1  LIG1        0.0268
     32 H          -1.3459    0.6632   -2.3953 H       1  LIG1        0.0268
     33 H          -2.5434   -0.3742   -0.5917 H       1  LIG1        0.0307
     34 H          -3.3043    1.1447   -1.0419 H       1  LIG1        0.0307
     35 H          -2.5895    2.2735    0.9715 H       1  LIG1        0.0569
     36 H          -2.4002    1.1142    2.9332 H       1  LIG1        0.0569
     37 H          -1.1598   -1.1683    1.7420 H       1  LIG1        0.0307
     38 H          -2.9011   -1.4711    1.5523 H       1  LIG1        0.0307
     39 H          -3.2108   -1.1782    4.0250 H       1  LIG1        0.0268
     40 H          -1.4861   -0.9224    4.2220 H       1  LIG1        0.0268
     41 H          -2.8226   -3.4678    3.1522 H       1  LIG1        0.0265
     42 H          -2.1307   -3.2631    4.7579 H       1  LIG1        0.0265
     43 H           0.1265   -2.8511    3.7504 H       1  LIG1        0.0265
     44 H          -0.5356   -3.0931    2.1272 H       1  LIG1        0.0265
     45 H          -1.0495   -5.5065    2.7662 H       1  LIG1        0.0265
     46 H          -0.2480   -5.1800    4.3005 H       1  LIG1        0.0265
     47 H           1.3098   -6.3397    3.0083 H       1  LIG1        0.0265
     48 H           1.9121   -4.6947    3.1004 H       1  LIG1        0.0265
     49 H           1.0532   -4.3688    0.6881 H       1  LIG1        0.0263
     50 H           0.5538   -6.0637    0.7163 H       1  LIG1        0.0263
     51 H           3.3661   -4.9357    0.6320 H       1  LIG1        0.0230
     52 H           2.6256   -6.1915   -0.3563 H       1  LIG1        0.0230
     53 H           3.1063   -6.5573    1.3034 H       1  LIG1        0.0230
     54 H           1.7474    5.6655   -3.5464 H       1  LIG1        0.0377
     55 H           0.0316    5.4493   -3.7549 H       1  LIG1        0.0377
     56 H           3.4156    2.1536   -5.3048 H       1  LIG1        0.0694
     57 H           1.8143    1.5992   -4.8682 H       1  LIG1        0.0694
     58 H           4.0599    1.9210   -2.8154 H       1  LIG1        0.0262
     59 H           3.6589    0.3756   -3.6181 H       1  LIG1        0.0262
     60 H           2.4906    1.1740   -2.5434 H       1  LIG1        0.0262
@<TRIPOS>BOND
     1     1     2    1
     2     2     3    1
     3     3     4    1
     4     4     5    1
     5     5     6    1
     6     6     7    1
     7     7     8    2
     8     8     9    1
     9     9    10    1
    10    10    11    1
    11    11    12    1
    12    12    13    1
    13    13    14    1
    14    14    15    1
    15    15    16    1
    16     1    17    1
    17    17    18    1
    18    18    19    2
    19    18    20    1
    20    20    21    1
    21    21    22    1
    22     1    23    1
    23     1    24    1
    24     2    25    1
    25     2    26    1
    26     3    27    1
    27     3    28    1
    28     4    29    1
    29     4    30    1
    30     5    31    1
    31     5    32    1
    32     6    33    1
    33     6    34    1
    34     7    35    1
    35     8    36    1
    36     9    37    1
    37     9    38    1
    38    10    39    1
    39    10    40    1
    40    11    41    1
    41    11    42    1
    42    12    43    1
    43    12    44    1
    44    13    45    1
    45    13    46    1
    46    14    47    1
    47    14    48    1
    48    15    49    1
    49    15    50    1
    50    16    51    1
    51    16    52    1
    52    16    53    1
    53    17    54    1
    54    17    55    1
    55    21    56    1
    56    21    57    1
    57    22    58    1
    58    22    59    1
    59    22    60    1
