@<TRIPOS>MOLECULE
NuBBE_320
 30 32 0 0 0
SMALL
GASTEIGER

@<TRIPOS>ATOM
      1 O          -5.9391   -0.1468    1.2926 O.3     1  LIG1       -0.5068
      2 C          -4.6086   -0.2624    1.0219 C.ar    1  LIG1        0.1169
      3 C          -3.8273   -1.2407    1.6256 C.ar    1  LIG1       -0.0195
      4 C          -2.4652   -1.3212    1.3170 C.ar    1  LIG1       -0.0476
      5 C          -4.0510    0.6354    0.1214 C.ar    1  LIG1       -0.0195
      6 C          -2.6904    0.5543   -0.1853 C.ar    1  LIG1       -0.0476
      7 C          -1.8804   -0.4304    0.4014 C.ar    1  LIG1        0.0176
      8 C          -0.4429   -0.4938    0.0717 C.ar    1  LIG1        0.1392
      9 C           0.1768   -1.6614   -0.1548 C.ar    1  LIG1        0.0288
     10 C           1.6079   -1.6554   -0.4889 C.ar    1  LIG1        0.1966
     11 C           2.2718   -0.3494   -0.5648 C.ar    1  LIG1        0.1055
     12 C           3.6303   -0.2322   -0.8779 C.ar    1  LIG1        0.1347
     13 O           4.4325   -1.3120   -1.1325 O.3     1  LIG1       -0.5058
     14 C           4.2294    1.0237   -0.9433 C.ar    1  LIG1        0.0223
     15 C           3.4591    2.1565   -0.6933 C.ar    1  LIG1        0.1239
     16 O           4.0007    3.4068   -0.7461 O.3     1  LIG1       -0.5065
     17 C           2.1064    2.0515   -0.3803 C.ar    1  LIG1        0.0231
     18 C           1.5122    0.7916   -0.3163 C.ar    1  LIG1        0.1462
     19 O           0.1764    0.7448   -0.0049 O.2     1  LIG1       -0.4544
     20 O           2.2252   -2.6946   -0.6950 O.2     1  LIG1       -0.2869
     21 H          -6.1872   -0.8290    1.9377 H       1  LIG1        0.2921
     22 H          -4.2528   -1.9414    2.3371 H       1  LIG1        0.0654
     23 H          -1.8645   -2.0808    1.8126 H       1  LIG1        0.0626
     24 H          -4.6711    1.3984   -0.3408 H       1  LIG1        0.0654
     25 H          -2.2703    1.2658   -0.8932 H       1  LIG1        0.0626
     26 H          -0.3123   -2.6260   -0.1192 H       1  LIG1        0.0693
     27 H           3.8849   -2.1263   -1.0539 H       1  LIG1        0.2922
     28 H           5.2844    1.0968   -1.1880 H       1  LIG1        0.0691
     29 H           4.9432    3.3315   -0.9730 H       1  LIG1        0.2921
     30 H           1.5220    2.9469   -0.1876 H       1  LIG1        0.0691
@<TRIPOS>BOND
     1     1     2    1
     2     2     3   ar
     3     3     4   ar
     4     2     5   ar
     5     5     6   ar
     6     6     7   ar
     7     4     7   ar
     8     7     8    1
     9     8     9   ar
    10     9    10   ar
    11    10    11   ar
    12    11    12   ar
    13    12    13    1
    14    12    14   ar
    15    14    15   ar
    16    15    16    1
    17    15    17   ar
    18    17    18   ar
    19    11    18   ar
    20    18    19   ar
    21     8    19   ar
    22    10    20    2
    23     1    21    1
    24     3    22    1
    25     4    23    1
    26     5    24    1
    27     6    25    1
    28     9    26    1
    29    13    27    1
    30    14    28    1
    31    16    29    1
    32    17    30    1
