REMARK  Name = NuBBE_1810
REMARK  14 active torsions:
REMARK  status: ('A' for Active; 'I' for Inactive)
REMARK    1  A    between atoms: C_1  and  O_2
REMARK    2  A    between atoms: O_2  and  O_3
REMARK    3  A    between atoms: O_3  and  C_4
REMARK    4  A    between atoms: C_4  and  C_5
REMARK    5  A    between atoms: C_5  and  C_6
REMARK    6  A    between atoms: C_6  and  C_7
REMARK    7  A    between atoms: C_7  and  C_8
REMARK    8  A    between atoms: C_8  and  C_9
REMARK    9  A    between atoms: C_9  and  C_10
REMARK   10  A    between atoms: C_10  and  C_11
REMARK   11  A    between atoms: C_11  and  C_12
REMARK   12  A    between atoms: C_12  and  O_13
REMARK   13  A    between atoms: O_13  and  O_14
REMARK   14  A    between atoms: O_14  and  C_15
REMARK                            x       y       z     vdW  Elec       q    Type
REMARK                         _______ _______ _______ _____ _____    ______ ____
ROOT
ATOM      1  C   LIG A   1       1.266   0.305   1.045  0.00  0.00    -0.000 C 
ENDROOT
BRANCH   1   2
ATOM      2  C   LIG A   1       0.664   0.686   2.399  0.00  0.00    +0.000 C 
BRANCH   2   3
ATOM      3  C   LIG A   1      -0.869   0.733   2.448  0.00  0.00    +0.002 C 
BRANCH   3   4
ATOM      4  C   LIG A   1      -1.535  -0.603   2.096  0.00  0.00    +0.031 C 
BRANCH   4   5
ATOM      5  C   LIG A   1      -3.058  -0.525   2.168  0.00  0.00    +0.201 C 
BRANCH   5   6
ATOM      6  O   LIG A   1      -3.508   0.401   1.183  0.00  0.00    -0.235 OA
BRANCH   6   8
ATOM      7  C   LIG A   1      -5.333   1.576   0.492  0.00  0.00    +0.238 C 
ATOM      8  O   LIG A   1      -4.912   0.643   1.477  0.00  0.00    -0.238 OA
ENDBRANCH   6   8
ENDBRANCH   5   6
ENDBRANCH   4   5
ENDBRANCH   3   4
ENDBRANCH   2   3
ENDBRANCH   1   2
BRANCH   1   9
ATOM      9  C   LIG A   1       0.963   1.303  -0.077  0.00  0.00    +0.000 C 
BRANCH   9  10
ATOM     10  C   LIG A   1       1.550   0.895  -1.435  0.00  0.00    +0.002 C 
BRANCH  10  11
ATOM     11  C   LIG A   1       1.000  -0.437  -1.946  0.00  0.00    +0.031 C 
BRANCH  11  12
ATOM     12  C   LIG A   1       1.576  -0.846  -3.303  0.00  0.00    +0.201 C 
BRANCH  12  13
ATOM     13  O   LIG A   1       2.996  -0.980  -3.261  0.00  0.00    -0.235 OA
BRANCH  13  14
ATOM     14  O   LIG A   1       3.267  -2.099  -2.363  0.00  0.00    -0.238 OA
ATOM     15  C   LIG A   1       4.681  -2.213  -2.314  0.00  0.00    +0.238 C 
ENDBRANCH  13  14
ENDBRANCH  12  13
ENDBRANCH  11  12
ENDBRANCH  10  11
ENDBRANCH   9  10
ENDBRANCH   1   9
TORSDOF 12
