@<TRIPOS>MOLECULE
NuBBE_957
 83 88 0 0 0
SMALL
GASTEIGER

@<TRIPOS>ATOM
      1 H          -0.1216    0.0894    0.1380 H       1  LIG1        0.0339
      2 C           0.9043   -0.1602    0.4249 C.3     1  LIG1        0.0033
      3 C           1.6360    1.2559    0.7654 C.3     1  LIG1        0.0361
      4 C           2.3805    1.1624    2.1139 C.3     1  LIG1       -0.0522
      5 C           0.6467    2.5322    0.6313 C.3     1  LIG1       -0.0100
      6 H          -0.3697    2.1334    0.7541 H       1  LIG1        0.0322
      7 C           0.8181    3.6221    1.7275 C.3     1  LIG1        0.0492
      8 C           0.2231    3.2997    3.0828 C.2     1  LIG1        0.3071
      9 O           0.4351    4.3628    3.9093 O.3     1  LIG1       -0.4679
     10 C          -0.2143    4.3453    5.1840 C.3     1  LIG1        0.0817
     11 O          -0.3980    2.2854    3.3601 O.2     1  LIG1       -0.2509
     12 C           0.6867    3.2470   -0.8270 C.3     1  LIG1        0.0071
     13 C          -0.6413    4.0281   -1.0497 C.3     1  LIG1       -0.0561
     14 C           1.7870    4.3394   -0.9803 C.3     1  LIG1       -0.0561
     15 C           0.9013    2.1609   -1.9485 C.3     1  LIG1        0.1204
     16 H           1.0377    2.6598   -2.9167 H       1  LIG1        0.0747
     17 O          -0.3018    1.3451   -2.0062 O.3     1  LIG1       -0.4598
     18 C          -1.2493    1.7127   -2.9238 C.2     1  LIG1        0.3102
     19 C          -2.6429    1.1517   -2.6094 C.3     1  LIG1        0.0534
     20 C          -2.7863    0.6743   -1.1521 C.3     1  LIG1       -0.0432
     21 C          -4.1302    0.0400   -0.8236 C.3     1  LIG1       -0.0645
     22 C          -3.6939    2.2210   -2.9471 C.3     1  LIG1       -0.0523
     23 O          -1.0229    2.4451   -3.8809 O.2     1  LIG1       -0.2505
     24 C           1.4633   -0.9700   -0.7673 C.3     1  LIG1        0.1044
     25 C           0.8220   -2.3220   -1.0804 C.3     1  LIG1        0.0100
     26 C           1.5217   -3.1524   -2.1568 C.3     1  LIG1        0.0511
     27 C           0.8092   -4.4482   -2.4669 C.2     1  LIG1        0.3081
     28 O           0.1671   -5.0664   -1.4491 O.3     1  LIG1       -0.4559
     29 C          -0.3914   -4.3225   -0.3422 C.3     1  LIG1        0.1366
     30 H          -1.2823   -3.8303   -0.7559 H       1  LIG1        0.0792
     31 C          -0.9100   -5.2662    0.7082 C.ar    1  LIG1        0.0309
     32 C          -2.0043   -5.0565    1.5303 C.ar    1  LIG1        0.0984
     33 O          -2.2221   -6.1220    2.3371 O.2     1  LIG1       -0.4706
     34 C          -1.2804   -7.0492    2.0314 C.ar    1  LIG1        0.0921
     35 C          -0.4488   -6.5750    1.0356 C.ar    1  LIG1       -0.0172
     36 O           0.9082   -4.9786   -3.5653 O.2     1  LIG1       -0.2508
     37 H          -0.1692   -2.0529   -1.4880 H       1  LIG1        0.0341
     38 C           0.5927   -3.2224    0.1666 C.3     1  LIG1        0.0153
     39 C          -0.0406   -2.3757    1.2946 C.3     1  LIG1       -0.0432
     40 C           0.7555   -1.1113    1.6305 C.3     1  LIG1       -0.0460
     41 C           1.8979   -3.8815    0.6906 C.3     1  LIG1       -0.0555
     42 O           2.8723   -0.9329   -0.9813 O.3     1  LIG1       -0.3633
     43 C           2.0610   -0.1488   -1.8910 C.3     1  LIG1        0.1019
     44 H           2.0385   -0.4581   -2.9240 H       1  LIG1        0.0633
     45 C           2.2009    1.3277   -1.7092 C.3     1  LIG1        0.0844
     46 H           2.9894    1.7071   -2.3713 H       1  LIG1        0.0441
     47 C           2.6833    1.5451   -0.2944 C.2     1  LIG1        0.1490
     48 O           3.8110    1.9678   -0.0466 O.2     1  LIG1       -0.2963
     49 H           3.1093    0.3428    2.0938 H       1  LIG1        0.0239
     50 H           1.7075    0.9840    2.9547 H       1  LIG1        0.0239
     51 H           2.9587    2.0634    2.3406 H       1  LIG1        0.0239
     52 H           1.8698    3.9000    1.8427 H       1  LIG1        0.0381
     53 H           0.2743    4.5236    1.4245 H       1  LIG1        0.0381
     54 H           0.5462    4.2962    5.9678 H       1  LIG1        0.0661
     55 H          -0.9223    3.5210    5.3046 H       1  LIG1        0.0661
     56 H          -0.7595    5.2880    5.2911 H       1  LIG1        0.0661
     57 H          -1.5216    3.4345   -0.7987 H       1  LIG1        0.0236
     58 H          -0.7306    4.3621   -2.0904 H       1  LIG1        0.0236
     59 H          -0.6959    4.9355   -0.4384 H       1  LIG1        0.0236
     60 H           1.5474    5.2448   -0.4112 H       1  LIG1        0.0236
     61 H           2.7774    4.0258   -0.6571 H       1  LIG1        0.0236
     62 H           1.8721    4.6489   -2.0297 H       1  LIG1        0.0236
     63 H          -2.7869    0.2934   -3.2742 H       1  LIG1        0.0410
     64 H          -2.6087    1.5018   -0.4569 H       1  LIG1        0.0270
     65 H          -2.0189   -0.0800   -0.9490 H       1  LIG1        0.0270
     66 H          -4.9395    0.7761   -0.8290 H       1  LIG1        0.0230
     67 H          -4.0970   -0.3976    0.1798 H       1  LIG1        0.0230
     68 H          -4.3727   -0.7556   -1.5334 H       1  LIG1        0.0230
     69 H          -3.5254    3.1418   -2.3773 H       1  LIG1        0.0238
     70 H          -4.7119    1.8776   -2.7427 H       1  LIG1        0.0238
     71 H          -3.6576    2.4843   -4.0101 H       1  LIG1        0.0238
     72 H           2.5547   -3.4004   -1.8746 H       1  LIG1        0.0381
     73 H           1.5763   -2.5912   -3.0935 H       1  LIG1        0.0381
     74 H          -2.6982   -4.2378    1.6525 H       1  LIG1        0.1033
     75 H          -1.3367   -7.9749    2.5837 H       1  LIG1        0.1029
     76 H           0.3645   -7.1210    0.5862 H       1  LIG1        0.0653
     77 H          -0.1230   -2.9721    2.2118 H       1  LIG1        0.0272
     78 H          -1.0621   -2.0878    1.0150 H       1  LIG1        0.0272
     79 H           1.7379   -1.4115    2.0089 H       1  LIG1        0.0269
     80 H           0.2304   -0.5965    2.4435 H       1  LIG1        0.0269
     81 H           2.7109   -3.1555    0.7975 H       1  LIG1        0.0236
     82 H           2.2612   -4.6787    0.0342 H       1  LIG1        0.0236
     83 H           1.7405   -4.3431    1.6721 H       1  LIG1        0.0236
@<TRIPOS>BOND
     1     2     3    1
     2     3     5    1
     3     7     8    1
     4     8     9    1
     5     9    10    1
     6     8    11    2
     7     5    12    1
     8    12    15    1
     9    17    18    1
    10    18    19    1
    11    19    20    1
    12    20    21    1
    13    19    22    1
    14    18    23    2
    15     2    24    1
    16    24    25    1
    17    25    26    1
    18    26    27    1
    19    27    28    1
    20    28    29    1
    21    31    32   ar
    22    32    33   ar
    23    33    34   ar
    24    34    35   ar
    25    31    35   ar
    26    25    38    1
    27    38    39    1
    28    39    40    1
    29     2    40    1
    30    29    38    1
    31    24    42    1
    32    42    43    1
    33    24    43    1
    34    43    45    1
    35    15    45    1
    36    45    47    1
    37     3    47    1
    38     1     2    1
    39     3     4    1
    40    12    13    1
    41    12    14    1
    42    15    16    1
    43    15    17    1
    44    25    37    1
    45    27    36    2
    46    38    41    1
    47    43    44    1
    48    45    46    1
    49    47    48    2
    50     5     7    1
    51     5     6    1
    52    29    31    1
    53    29    30    1
    54     4    49    1
    55     4    50    1
    56     4    51    1
    57     7    52    1
    58     7    53    1
    59    10    54    1
    60    10    55    1
    61    10    56    1
    62    13    57    1
    63    13    58    1
    64    13    59    1
    65    14    60    1
    66    14    61    1
    67    14    62    1
    68    19    63    1
    69    20    64    1
    70    20    65    1
    71    21    66    1
    72    21    67    1
    73    21    68    1
    74    22    69    1
    75    22    70    1
    76    22    71    1
    77    26    72    1
    78    26    73    1
    79    32    74    1
    80    34    75    1
    81    35    76    1
    82    39    77    1
    83    39    78    1
    84    40    79    1
    85    40    80    1
    86    41    81    1
    87    41    82    1
    88    41    83    1
