REMARK  Name = NuBBE_1329
REMARK  8 active torsions:
REMARK  status: ('A' for Active; 'I' for Inactive)
REMARK    1  A    between atoms: C_4  and  C_5
REMARK    2  A    between atoms: C_8  and  O_9
REMARK    3  A    between atoms: O_9  and  C_10
REMARK    4  A    between atoms: C_13  and  O_14
REMARK    5  A    between atoms: C_20  and  C_21
REMARK    6  A    between atoms: C_20  and  C_22
REMARK    7  A    between atoms: C_26  and  O_27
REMARK    8  A    between atoms: O_27  and  C_28
REMARK                            x       y       z     vdW  Elec       q    Type
REMARK                         _______ _______ _______ _____ _____    ______ ____
ROOT
ATOM      1  O   LIG A   1      -3.826  -0.362   0.527  0.00  0.00    -0.244 OA
ATOM      2  C   LIG A   1      -2.625  -0.300   0.324  0.00  0.00    +0.349 A 
ATOM      3  O   LIG A   1      -1.865  -1.453   0.209  0.00  0.00    -0.421 OA
ATOM      4  C   LIG A   1      -1.903   0.988   0.141  0.00  0.00    +0.109 A 
ATOM      5  C   LIG A   1      -0.558   1.009   0.043  0.00  0.00    +0.146 A 
ATOM      6  C   LIG A   1       0.258  -0.233   0.132  0.00  0.00    +0.102 A 
ATOM      7  C   LIG A   1      -0.461  -1.426   0.160  0.00  0.00    +0.150 A 
ATOM      8  C   LIG A   1       0.154  -2.670   0.187  0.00  0.00    +0.093 A 
ATOM      9  C   LIG A   1       1.541  -2.751   0.228  0.00  0.00    +0.136 A 
ATOM     10  O   LIG A   1       2.013  -4.035   0.285  0.00  0.00    -0.481 OA
ATOM     11  C   LIG A   1       3.428  -4.276   0.217  0.00  0.00    +0.123 C 
ATOM     12  C   LIG A   1       3.721  -4.926  -1.139  0.00  0.00    +0.060 C 
ATOM     13  C   LIG A   1       3.747  -5.268   1.344  0.00  0.00    +0.060 C 
ATOM     14  C   LIG A   1       4.273  -3.048   0.402  0.00  0.00    +0.020 C 
ATOM     15  C   LIG A   1       3.770  -1.810   0.454  0.00  0.00    +0.015 C 
ATOM     16  C   LIG A   1       2.334  -1.588   0.263  0.00  0.00    +0.059 A 
ATOM     17  C   LIG A   1       1.685  -0.318   0.188  0.00  0.00    +0.145 A 
ENDROOT
BRANCH   4  18
ATOM     18  C   LIG A   1      -2.717   2.226   0.076  0.00  0.00    -0.007 A 
ATOM     19  C   LIG A   1      -2.978   2.966   1.235  0.00  0.00    +0.012 A 
ATOM     20  C   LIG A   1      -3.803   4.096   1.184  0.00  0.00    +0.046 A 
ATOM     21  C   LIG A   1      -4.394   4.494  -0.016  0.00  0.00    +0.120 A 
ATOM     22  C   LIG A   1      -4.128   3.771  -1.179  0.00  0.00    +0.046 A 
ATOM     23  C   LIG A   1      -3.294   2.643  -1.132  0.00  0.00    +0.012 A 
BRANCH  21  24
ATOM     24  O   LIG A   1      -5.169   5.619   0.058  0.00  0.00    -0.495 OA
ATOM     25  C   LIG A   1      -6.247   5.693  -0.868  0.00  0.00    +0.277 C 
ENDBRANCH  21  24
ENDBRANCH   4  18
BRANCH   5  26
ATOM     26  O   LIG A   1       0.105   2.204  -0.178  0.00  0.00    -0.505 OA
ATOM     27  H   LIG A   1       1.064   2.029  -0.137  0.00  0.00    +0.292 HD
ENDBRANCH   5  26
BRANCH  17  28
ATOM     28  O   LIG A   1       2.313   0.909   0.280  0.00  0.00    -0.494 OA
ATOM     29  C   LIG A   1       3.566   1.110  -0.364  0.00  0.00    +0.277 C 
ENDBRANCH  17  28
TORSDOF 4
