REMARK  Name = NuBBE_309
REMARK  4 active torsions:
REMARK  status: ('A' for Active; 'I' for Inactive)
REMARK    1  A    between atoms: O_1  and  C_2
REMARK    2  A    between atoms: C_2  and  C_3
REMARK    3  A    between atoms: C_3  and  C_5
REMARK    4  A    between atoms: C_3  and  O_11
REMARK                            x       y       z     vdW  Elec       q    Type
REMARK                         _______ _______ _______ _____ _____    ______ ____
ROOT
ATOM      1  C   LIG A   1       0.425   1.378   0.092  0.00  0.00    +0.170 C 
ENDROOT
BRANCH   1   2
ATOM      2  C   LIG A   1      -0.043  -0.010  -0.274  0.00  0.00    -0.017 A 
ATOM      3  C   LIG A   1       0.545  -1.147   0.305  0.00  0.00    +0.006 A 
ATOM      4  C   LIG A   1       0.097  -2.426  -0.027  0.00  0.00    +0.000 A 
ATOM      5  C   LIG A   1      -0.940  -2.586  -0.943  0.00  0.00    +0.000 A 
ATOM      6  C   LIG A   1      -1.528  -1.467  -1.530  0.00  0.00    +0.000 A 
ATOM      7  C   LIG A   1      -1.083  -0.186  -1.197  0.00  0.00    +0.006 A 
ENDBRANCH   1   2
BRANCH   1   8
ATOM      8  O   LIG A   1       1.840   1.494  -0.128  0.00  0.00    -0.385 OA
ATOM      9  H   LIG A   1       2.043   0.956  -0.914  0.00  0.00    +0.210 HD
ENDBRANCH   1   8
BRANCH   1  10
ATOM     10  C   LIG A   1       0.133   1.748   1.553  0.00  0.00    +0.192 C 
BRANCH  10  11
ATOM     11  O   LIG A   1       0.603   3.072   1.821  0.00  0.00    -0.392 OA
ATOM     12  H   LIG A   1       1.506   3.098   1.446  0.00  0.00    +0.209 HD
ENDBRANCH  10  11
ENDBRANCH   1  10
TORSDOF 4
