REMARK  Name = NuBBE_2427
REMARK  8 active torsions:
REMARK  status: ('A' for Active; 'I' for Inactive)
REMARK    1  A    between atoms: C_7  and  C_8
REMARK    2  A    between atoms: C_10  and  O_11
REMARK    3  A    between atoms: O_11  and  C_12
REMARK    4  A    between atoms: C_13  and  O_14
REMARK    5  A    between atoms: C_15  and  O_16
REMARK    6  A    between atoms: O_16  and  C_17
REMARK    7  A    between atoms: C_19  and  O_20
REMARK    8  A    between atoms: C_22  and  O_23
REMARK                            x       y       z     vdW  Elec       q    Type
REMARK                         _______ _______ _______ _____ _____    ______ ____
ROOT
ATOM      1  O   LIG A   1      -0.592  -1.371  -0.481  0.00  0.00    -0.454 OA
ATOM      2  C   LIG A   1      -1.736  -2.127  -0.594  0.00  0.00    +0.146 A 
ATOM      3  C   LIG A   1      -2.933  -1.791   0.036  0.00  0.00    +0.105 A 
ATOM      4  C   LIG A   1      -2.968  -0.575   0.848  0.00  0.00    +0.197 A 
ATOM      5  O   LIG A   1      -3.991  -0.226   1.433  0.00  0.00    -0.287 OA
ATOM      6  C   LIG A   1      -1.735   0.213   0.927  0.00  0.00    +0.098 A 
ATOM      7  C   LIG A   1      -0.637  -0.206   0.277  0.00  0.00    +0.140 A 
ATOM      8  C   LIG A   1      -4.064  -2.603  -0.112  0.00  0.00    +0.135 A 
ATOM      9  C   LIG A   1      -4.004  -3.752  -0.894  0.00  0.00    +0.091 A 
ATOM     10  C   LIG A   1      -2.805  -4.079  -1.523  0.00  0.00    +0.124 A 
ATOM     11  C   LIG A   1      -1.672  -3.279  -1.380  0.00  0.00    +0.092 A 
ENDROOT
BRANCH   7  12
ATOM     12  C   LIG A   1       0.635   0.559   0.330  0.00  0.00    +0.025 A 
ATOM     13  C   LIG A   1       0.630   1.961   0.461  0.00  0.00    +0.061 A 
ATOM     14  C   LIG A   1       1.822   2.684   0.513  0.00  0.00    +0.166 A 
ATOM     15  C   LIG A   1       3.047   2.008   0.412  0.00  0.00    +0.201 A 
ATOM     16  C   LIG A   1       3.088   0.622   0.256  0.00  0.00    +0.166 A 
ATOM     17  C   LIG A   1       1.878  -0.091   0.232  0.00  0.00    +0.061 A 
BRANCH  14  18
ATOM     18  O   LIG A   1       1.928   4.045   0.666  0.00  0.00    -0.491 OA
ATOM     19  C   LIG A   1       0.713   4.776   0.780  0.00  0.00    +0.277 C 
ENDBRANCH  14  18
BRANCH  15  20
ATOM     20  O   LIG A   1       4.189   2.762   0.502  0.00  0.00    -0.501 OA
ATOM     21  H   LIG A   1       3.883   3.678   0.652  0.00  0.00    +0.292 HD
ENDBRANCH  15  20
BRANCH  16  22
ATOM     22  O   LIG A   1       4.208  -0.163   0.168  0.00  0.00    -0.491 OA
ATOM     23  C   LIG A   1       5.358   0.442  -0.417  0.00  0.00    +0.277 C 
ENDBRANCH  16  22
ENDBRANCH   7  12
BRANCH   8  24
ATOM     24  O   LIG A   1      -5.266  -2.325   0.484  0.00  0.00    -0.506 OA
ATOM     25  H   LIG A   1      -5.166  -1.496   1.005  0.00  0.00    +0.292 HD
ENDBRANCH   8  24
BRANCH  10  26
ATOM     26  O   LIG A   1      -2.701  -5.194  -2.301  0.00  0.00    -0.506 OA
ATOM     27  H   LIG A   1      -3.561  -5.649  -2.315  0.00  0.00    +0.292 HD
ENDBRANCH  10  26
TORSDOF 6
