REMARK  Name = NuBBE_2511
REMARK  3 active torsions:
REMARK  status: ('A' for Active; 'I' for Inactive)
REMARK    1  A    between atoms: C_10  and  O_11
REMARK    2  A    between atoms: C_17  and  O_18
REMARK    3  A    between atoms: C_19  and  O_20
REMARK                            x       y       z     vdW  Elec       q    Type
REMARK                         _______ _______ _______ _____ _____    ______ ____
ROOT
ATOM      1  O   LIG A   1      -1.841  -0.125   3.279  0.00  0.00    -0.289 OA
ATOM      2  C   LIG A   1      -1.109  -0.347   2.317  0.00  0.00    +0.199 C 
ATOM      3  C   LIG A   1      -0.615   0.733   1.388  0.00  0.00    +0.234 C 
ATOM      4  C   LIG A   1      -0.671   0.158  -0.030  0.00  0.00    +0.240 C 
ATOM      5  O   LIG A   1       0.153  -1.011  -0.189  0.00  0.00    -0.480 OA
ATOM      6  C   LIG A   1      -0.035  -1.960   0.782  0.00  0.00    +0.136 A 
ATOM      7  C   LIG A   1       0.453  -3.240   0.504  0.00  0.00    +0.091 A 
ATOM      8  C   LIG A   1       0.274  -4.259   1.440  0.00  0.00    +0.120 A 
ATOM      9  C   LIG A   1      -0.368  -4.020   2.651  0.00  0.00    +0.046 A 
ATOM     10  C   LIG A   1      -0.837  -2.740   2.942  0.00  0.00    +0.019 A 
ATOM     11  C   LIG A   1      -0.657  -1.714   2.008  0.00  0.00    +0.062 A 
ATOM     12  C   LIG A   1      -0.161   1.216  -0.987  0.00  0.00    +0.005 A 
ATOM     13  C   LIG A   1      -0.579   1.233  -2.328  0.00  0.00    +0.057 A 
ATOM     14  C   LIG A   1      -0.146   2.257  -3.163  0.00  0.00    +0.159 A 
ATOM     15  C   LIG A   1       0.713   3.243  -2.684  0.00  0.00    +0.159 A 
ATOM     16  C   LIG A   1       1.159   3.225  -1.370  0.00  0.00    +0.055 A 
ATOM     17  C   LIG A   1       0.725   2.209  -0.507  0.00  0.00    -0.011 A 
ATOM     18  C   LIG A   1       1.154   2.238   0.945  0.00  0.00    +0.196 C 
ATOM     19  O   LIG A   1       0.722   1.110   1.714  0.00  0.00    -0.360 OA
ENDROOT
BRANCH   8  20
ATOM     20  O   LIG A   1       0.718  -5.527   1.204  0.00  0.00    -0.507 OA
ATOM     21  H   LIG A   1       1.147  -5.555   0.332  0.00  0.00    +0.292 HD
ENDBRANCH   8  20
BRANCH  14  22
ATOM     22  O   LIG A   1      -0.554   2.352  -4.465  0.00  0.00    -0.503 OA
ATOM     23  H   LIG A   1      -1.159   1.613  -4.649  0.00  0.00    +0.292 HD
ENDBRANCH  14  22
BRANCH  15  24
ATOM     24  O   LIG A   1       1.114   4.257  -3.506  0.00  0.00    -0.503 OA
ATOM     25  H   LIG A   1       0.671   4.072  -4.358  0.00  0.00    +0.292 HD
ENDBRANCH  15  24
TORSDOF 3
