REMARK  Name = NuBBE_2362
REMARK  7 active torsions:
REMARK  status: ('A' for Active; 'I' for Inactive)
REMARK    1  A    between atoms: C_1  and  C_2
REMARK    2  A    between atoms: C_2  and  C_3
REMARK    3  A    between atoms: C_7  and  C_8
REMARK    4  A    between atoms: C_16  and  O_17
REMARK    5  A    between atoms: C_18  and  C_19
REMARK    6  A    between atoms: C_19  and  C_20
REMARK    7  A    between atoms: C_19  and  C_21
REMARK                            x       y       z     vdW  Elec       q    Type
REMARK                         _______ _______ _______ _____ _____    ______ ____
ROOT
ATOM      1  C   LIG A   1      -3.916  -1.600   1.970  0.00  0.00    +0.011 C 
ATOM      2  C   LIG A   1      -2.370  -1.667   1.913  0.00  0.00    -0.031 C 
ATOM      3  C   LIG A   1      -2.004  -3.129   1.558  0.00  0.00    +0.011 C 
ATOM      4  C   LIG A   1      -1.839  -1.356   3.323  0.00  0.00    +0.007 C 
ATOM      5  C   LIG A   1      -0.319  -1.295   3.403  0.00  0.00    +0.001 C 
ATOM      6  C   LIG A   1       0.375  -0.871   2.109  0.00  0.00    +0.012 C 
ATOM      7  C   LIG A   1      -0.450   0.077   1.203  0.00  0.00    -0.003 C 
ATOM      8  C   LIG A   1      -0.714   1.415   1.951  0.00  0.00    +0.016 C 
ATOM      9  C   LIG A   1      -1.848  -0.599   0.866  0.00  0.00    +0.005 C 
ATOM     10  C   LIG A   1      -1.903  -1.155  -0.569  0.00  0.00    +0.009 C 
ATOM     11  C   LIG A   1      -1.552  -0.080  -1.579  0.00  0.00    +0.036 C 
ATOM     12  C   LIG A   1      -0.152   0.403  -1.343  0.00  0.00    -0.043 A 
ATOM     13  C   LIG A   1       0.382   0.469  -0.046  0.00  0.00    -0.035 A 
ATOM     14  C   LIG A   1       1.696   0.963   0.089  0.00  0.00    +0.050 A 
ATOM     15  C   LIG A   1       2.448   1.363  -1.021  0.00  0.00    +0.121 A 
ATOM     16  C   LIG A   1       1.921   1.305  -2.311  0.00  0.00    -0.003 A 
ATOM     17  C   LIG A   1       0.610   0.827  -2.450  0.00  0.00    +0.011 A 
ENDROOT
BRANCH  16  18
ATOM     18  C   LIG A   1       2.681   1.729  -3.557  0.00  0.00    +0.016 C 
ATOM     19  C   LIG A   1       3.914   0.857  -3.811  0.00  0.00    +0.012 C 
ATOM     20  C   LIG A   1       3.043   3.216  -3.545  0.00  0.00    +0.012 C 
ENDBRANCH  16  18
BRANCH  15  21
ATOM     21  O   LIG A   1       3.720   1.827  -0.834  0.00  0.00    -0.506 OA
ATOM     22  H   LIG A   1       3.934   1.787   0.112  0.00  0.00    +0.292 HD
ENDBRANCH  15  21
TORSDOF 2
