REMARK  Name = NuBBE_2136
REMARK  6 active torsions:
REMARK  status: ('A' for Active; 'I' for Inactive)
REMARK    1  A    between atoms: C_1  and  C_2
REMARK    2  A    between atoms: C_2  and  C_3
REMARK    3  A    between atoms: C_3  and  C_4
REMARK    4  A    between atoms: C_4  and  C_5
REMARK    5  A    between atoms: C_5  and  C_6
REMARK    6  A    between atoms: C_6  and  C_7
REMARK                            x       y       z     vdW  Elec       q    Type
REMARK                         _______ _______ _______ _____ _____    ______ ____
ROOT
ATOM      1  C   LIG A   1      -0.763  -0.395   0.898  0.00  0.00    +0.003 C 
ENDROOT
BRANCH   1   2
ATOM      2  C   LIG A   1       0.638  -0.577   1.511  0.00  0.00    -0.011 C 
ATOM      3  C   LIG A   1       0.622  -0.993   2.982  0.00  0.00    +0.003 C 
ATOM      4  C   LIG A   1       1.966  -1.683   3.169  0.00  0.00    +0.000 C 
ATOM      5  C   LIG A   1       2.090  -2.514   1.905  0.00  0.00    +0.000 C 
ATOM      6  C   LIG A   1       1.494  -1.637   0.803  0.00  0.00    +0.003 C 
ENDBRANCH   1   2
BRANCH   1   7
ATOM      7  C   LIG A   1      -0.670   0.218  -0.507  0.00  0.00    +0.000 C 
BRANCH   7   8
ATOM      8  C   LIG A   1      -2.016   0.472  -1.188  0.00  0.00    -0.000 C 
BRANCH   8   9
ATOM      9  C   LIG A   1      -1.955   1.021  -2.623  0.00  0.00    -0.000 C 
BRANCH   9  11
ATOM     10  C   LIG A   1       0.144   2.550  -2.645  0.00  0.00    +0.004 C 
ATOM     11  C   LIG A   1      -1.353   2.412  -2.857  0.00  0.00    -0.003 C 
ENDBRANCH   9  11
ENDBRANCH   8   9
ENDBRANCH   7   8
ENDBRANCH   1   7
TORSDOF 5
