REMARK  Name = NuBBE_128
REMARK  7 active torsions:
REMARK  status: ('A' for Active; 'I' for Inactive)
REMARK    1  A    between atoms: O_1  and  C_2
REMARK    2  A    between atoms: C_5  and  O_6
REMARK    3  A    between atoms: C_8  and  C_9
REMARK    4  A    between atoms: C_16  and  O_17
REMARK    5  A    between atoms: O_17  and  C_18
REMARK    6  A    between atoms: C_19  and  O_20
REMARK    7  A    between atoms: C_21  and  O_22
REMARK                            x       y       z     vdW  Elec       q    Type
REMARK                         _______ _______ _______ _____ _____    ______ ____
ROOT
ATOM      1  C   LIG A   1      -0.788  -1.051   0.174  0.00  0.00    +0.139 A 
ATOM      2  O   LIG A   1      -0.097   0.136  -0.011  0.00  0.00    -0.454 OA
ATOM      3  C   LIG A   1      -0.217  -2.260   0.087  0.00  0.00    +0.098 A 
ATOM      4  C   LIG A   1       1.212  -2.381  -0.254  0.00  0.00    +0.197 A 
ATOM      5  C   LIG A   1       1.951  -1.117  -0.450  0.00  0.00    +0.109 A 
ATOM      6  C   LIG A   1       1.245   0.082  -0.308  0.00  0.00    +0.146 A 
ATOM      7  C   LIG A   1       1.879   1.325  -0.470  0.00  0.00    +0.096 A 
ATOM      8  C   LIG A   1       3.235   1.378  -0.782  0.00  0.00    +0.169 A 
ATOM      9  C   LIG A   1       3.932   0.176  -0.928  0.00  0.00    +0.202 A 
ATOM     10  C   LIG A   1       3.307  -1.063  -0.765  0.00  0.00    +0.177 A 
ATOM     11  O   LIG A   1       1.699  -3.498  -0.357  0.00  0.00    -0.287 OA
ENDROOT
BRANCH   1  17
ATOM     12  C   LIG A   1      -4.942  -0.516   1.115  0.00  0.00    +0.158 A 
ATOM     13  C   LIG A   1      -4.548  -1.650   0.421  0.00  0.00    +0.050 A 
ATOM     14  C   LIG A   1      -3.192  -1.823   0.111  0.00  0.00    +0.015 A 
ATOM     15  C   LIG A   1      -4.001   0.435   1.492  0.00  0.00    +0.159 A 
ATOM     16  C   LIG A   1      -2.654   0.267   1.193  0.00  0.00    +0.060 A 
ATOM     17  C   LIG A   1      -2.223  -0.877   0.502  0.00  0.00    +0.021 A 
BRANCH  12  18
ATOM     18  O   LIG A   1      -6.248  -0.288   1.447  0.00  0.00    -0.503 OA
ATOM     19  H   LIG A   1      -6.778  -1.042   1.133  0.00  0.00    +0.292 HD
ENDBRANCH  12  18
BRANCH  15  20
ATOM     20  O   LIG A   1      -4.398   1.555   2.166  0.00  0.00    -0.503 OA
ATOM     21  H   LIG A   1      -5.367   1.454   2.259  0.00  0.00    +0.292 HD
ENDBRANCH  15  20
ENDBRANCH   1  17
BRANCH   8  22
ATOM     22  O   LIG A   1       3.984   2.509  -0.970  0.00  0.00    -0.491 OA
ATOM     23  C   LIG A   1       3.305   3.753  -0.837  0.00  0.00    +0.277 C 
ENDBRANCH   8  22
BRANCH   9  24
ATOM     24  O   LIG A   1       5.270   0.183  -1.241  0.00  0.00    -0.501 OA
ATOM     25  H   LIG A   1       5.508   1.130  -1.310  0.00  0.00    +0.292 HD
ENDBRANCH   9  24
BRANCH  10  26
ATOM     26  O   LIG A   1       4.072  -2.184  -0.927  0.00  0.00    -0.503 OA
ATOM     27  H   LIG A   1       4.971  -1.865  -1.141  0.00  0.00    +0.292 HD
ENDBRANCH  10  26
TORSDOF 6
