REMARK  Name = NuBBE_1061
REMARK  9 active torsions:
REMARK  status: ('A' for Active; 'I' for Inactive)
REMARK    1  A    between atoms: C_1  and  C_2
REMARK    2  A    between atoms: C_2  and  C_3
REMARK    3  A    between atoms: C_4  and  O_6
REMARK    4  A    between atoms: C_9  and  C_10
REMARK    5  A    between atoms: C_14  and  C_32
REMARK    6  A    between atoms: C_15  and  C_29
REMARK    7  A    between atoms: C_18  and  C_19
REMARK    8  A    between atoms: C_21  and  C_23
REMARK    9  A    between atoms: C_24  and  C_26
REMARK                            x       y       z     vdW  Elec       q    Type
REMARK                         _______ _______ _______ _____ _____    ______ ____
ROOT
ATOM      1  C   LIG A   1       4.305  -2.203   1.800  0.00  0.00    +0.014 C 
ATOM      2  C   LIG A   1       3.683  -1.518   0.543  0.00  0.00    -0.006 C 
ATOM      3  C   LIG A   1       2.832  -2.618  -0.116  0.00  0.00    +0.014 C 
ATOM      4  C   LIG A   1       4.877  -0.945  -0.266  0.00  0.00    +0.120 C 
ATOM      5  C   LIG A   1       4.471   0.063  -1.338  0.00  0.00    +0.032 C 
ATOM      6  C   LIG A   1       3.604   1.269  -0.756  0.00  0.00    +0.010 C 
ATOM      7  C   LIG A   1       2.250   0.705  -0.145  0.00  0.00    -0.018 C 
ATOM      8  C   LIG A   1       1.671   0.229  -1.507  0.00  0.00    +0.012 C 
ATOM      9  C   LIG A   1       2.852  -0.279   0.944  0.00  0.00    +0.004 C 
ATOM     10  C   LIG A   1       1.944  -0.502   2.109  0.00  0.00    +0.005 C 
ATOM     11  C   LIG A   1       1.604   0.875   2.624  0.00  0.00    +0.008 C 
ATOM     12  C   LIG A   1       0.178   1.392   2.101  0.00  0.00    -0.013 C 
ATOM     13  C   LIG A   1      -1.272   0.954   1.514  0.00  0.00    -0.004 C 
ATOM     14  C   LIG A   1      -1.406  -0.618   1.377  0.00  0.00    +0.012 C 
ATOM     15  C   LIG A   1      -0.943  -1.071  -0.031  0.00  0.00    +0.008 C 
ATOM     16  C   LIG A   1      -1.846  -0.524  -1.192  0.00  0.00    -0.025 C 
ATOM     17  C   LIG A   1      -1.119   0.018  -2.443  0.00  0.00    +0.012 C 
ATOM     18  C   LIG A   1      -2.679   0.627  -0.572  0.00  0.00    +0.025 C 
ATOM     19  C   LIG A   1      -3.929   1.056  -1.353  0.00  0.00    -0.004 C 
ATOM     20  C   LIG A   1      -3.693   2.064  -2.471  0.00  0.00    +0.008 C 
ATOM     21  C   LIG A   1      -4.713  -0.244  -1.776  0.00  0.00    -0.011 C 
ATOM     22  C   LIG A   1      -5.282  -0.999  -0.547  0.00  0.00    +0.008 C 
ATOM     23  C   LIG A   1      -3.850  -1.240  -2.567  0.00  0.00    +0.004 C 
ATOM     24  C   LIG A   1      -2.651  -1.709  -1.749  0.00  0.00    +0.007 C 
ATOM     25  C   LIG A   1      -2.457   1.645   2.373  0.00  0.00    +0.016 C 
ATOM     26  C   LIG A   1      -1.683   1.544   0.162  0.00  0.00    -0.056 C 
ATOM     27  C   LIG A   1      -1.190   2.726  -0.249  0.00  0.00    +0.046 C 
ATOM     28  C   LIG A   1      -0.204   0.727   3.597  0.00  0.00    +0.013 C 
ATOM     29  C   LIG A   1       1.127   1.793   0.643  0.00  0.00    +0.073 C 
ATOM     30  C   LIG A   1       0.301   2.630  -0.355  0.00  0.00    +0.160 C 
ATOM     31  O   LIG A   1       0.852   3.316  -1.251  0.00  0.00    -0.292 OA
ENDROOT
BRANCH   4  32
ATOM     32  O   LIG A   1       5.663  -1.982  -0.836  0.00  0.00    -0.391 OA
ATOM     33  H   LIG A   1       6.341  -2.211  -0.175  0.00  0.00    +0.210 HD
ENDBRANCH   4  32
TORSDOF 1
