@<TRIPOS>MOLECULE
NuBBE_1857
 44 46 0 0 0
SMALL
GASTEIGER

@<TRIPOS>ATOM
      1 O          -3.0310    5.1567    0.3230 O.3     1  LIG1       -0.5068
      2 C          -2.3148    4.0512    0.6727 C.ar    1  LIG1        0.1169
      3 C          -2.5474    2.8193    0.0718 C.ar    1  LIG1       -0.0199
      4 C          -1.7755    1.7168    0.4505 C.ar    1  LIG1       -0.0551
      5 C          -1.3367    4.1896    1.6495 C.ar    1  LIG1       -0.0199
      6 C          -0.5661    3.0873    2.0256 C.ar    1  LIG1       -0.0551
      7 C          -0.7760    1.8369    1.4275 C.ar    1  LIG1       -0.0471
      8 C           0.0662    0.6439    1.8088 C.3     1  LIG1       -0.0253
      9 C           1.2981    0.4940    0.9052 C.3     1  LIG1       -0.0226
     10 C           2.1492   -0.7291    1.2902 C.3     1  LIG1        0.0598
     11 H           2.3797   -0.6290    2.3587 H       1  LIG1        0.0596
     12 O           1.4436   -1.9682    1.1695 O.3     1  LIG1       -0.3688
     13 C           1.3005   -2.5431   -0.1384 C.3     1  LIG1        0.0840
     14 H           1.1425   -3.6150    0.0527 H       1  LIG1        0.0646
     15 C           2.5890   -2.4975   -0.9760 C.3     1  LIG1       -0.0223
     16 C           3.3098   -1.1608   -0.8987 C.3     1  LIG1       -0.0481
     17 C           3.4923   -0.7801    0.5599 C.3     1  LIG1       -0.0265
     18 C          -0.0002   -2.1092   -0.7977 C.ar    1  LIG1       -0.0187
     19 C          -1.2135   -2.4173   -0.1506 C.ar    1  LIG1       -0.0527
     20 C          -2.4452   -2.0861   -0.7201 C.ar    1  LIG1       -0.0198
     21 C          -2.4737   -1.4356   -1.9467 C.ar    1  LIG1        0.1169
     22 O          -3.6486   -1.0672   -2.5309 O.3     1  LIG1       -0.5068
     23 C          -1.2946   -1.1256   -2.6102 C.ar    1  LIG1       -0.0198
     24 C          -0.0625   -1.4614   -2.0406 C.ar    1  LIG1       -0.0527
     25 H          -3.6124    4.9223   -0.4183 H       1  LIG1        0.2921
     26 H          -3.3121    2.6939   -0.6873 H       1  LIG1        0.0654
     27 H          -1.9573    0.7560   -0.0252 H       1  LIG1        0.0621
     28 H          -1.1703    5.1575    2.1151 H       1  LIG1        0.0654
     29 H           0.1995    3.2101    2.7874 H       1  LIG1        0.0621
     30 H          -0.5529   -0.2585    1.7731 H       1  LIG1        0.0314
     31 H           0.3834    0.7462    2.8535 H       1  LIG1        0.0314
     32 H           1.9137    1.3998    0.9847 H       1  LIG1        0.0293
     33 H           0.9756    0.4327   -0.1378 H       1  LIG1        0.0293
     34 H           2.4112   -2.7856   -2.0178 H       1  LIG1        0.0293
     35 H           3.2758   -3.2532   -0.5698 H       1  LIG1        0.0293
     36 H           2.7508   -0.3833   -1.4290 H       1  LIG1        0.0267
     37 H           4.2863   -1.2377   -1.3900 H       1  LIG1        0.0267
     38 H           4.0262    0.1724    0.6461 H       1  LIG1        0.0290
     39 H           4.1220   -1.5440    1.0363 H       1  LIG1        0.0290
     40 H          -1.1941   -2.9225    0.8147 H       1  LIG1        0.0622
     41 H          -3.3591   -2.3381   -0.1914 H       1  LIG1        0.0654
     42 H          -4.3775   -1.3153   -1.9383 H       1  LIG1        0.2921
     43 H          -1.3299   -0.6201   -3.5717 H       1  LIG1        0.0654
     44 H           0.8364   -1.2032   -2.5895 H       1  LIG1        0.0622
@<TRIPOS>BOND
     1     1     2    1
     2     2     3   ar
     3     3     4   ar
     4     2     5   ar
     5     5     6   ar
     6     6     7   ar
     7     4     7   ar
     8     7     8    1
     9     8     9    1
    10     9    10    1
    11    10    11    1
    12    10    12    1
    13    12    13    1
    14    13    15    1
    15    15    16    1
    16    16    17    1
    17    10    17    1
    18    18    19   ar
    19    19    20   ar
    20    20    21   ar
    21    21    22    1
    22    21    23   ar
    23    23    24   ar
    24    18    24   ar
    25    13    18    1
    26    13    14    1
    27     1    25    1
    28     3    26    1
    29     4    27    1
    30     5    28    1
    31     6    29    1
    32     8    30    1
    33     8    31    1
    34     9    32    1
    35     9    33    1
    36    15    34    1
    37    15    35    1
    38    16    36    1
    39    16    37    1
    40    17    38    1
    41    17    39    1
    42    19    40    1
    43    20    41    1
    44    22    42    1
    45    23    43    1
    46    24    44    1
