REMARK  Name = NuBBE_236
REMARK  22 active torsions:
REMARK  status: ('A' for Active; 'I' for Inactive)
REMARK    1  A    between atoms: C_1  and  C_2
REMARK    2  A    between atoms: C_4  and  O_6
REMARK    3  A    between atoms: O_6  and  C_7
REMARK    4  A    between atoms: C_7  and  C_8
REMARK    5  A    between atoms: C_8  and  C_9
REMARK    6  A    between atoms: C_9  and  C_10
REMARK    7  A    between atoms: C_12  and  O_14
REMARK    8  A    between atoms: O_14  and  C_15
REMARK    9  A    between atoms: C_15  and  C_16
REMARK   10  A    between atoms: C_20  and  O_22
REMARK   11  A    between atoms: O_22  and  C_23
REMARK   12  A    between atoms: C_23  and  C_24
REMARK   13  A    between atoms: C_27  and  O_29
REMARK   14  A    between atoms: O_29  and  C_30
REMARK   15  A    between atoms: C_30  and  C_31
REMARK   16  A    between atoms: C_34  and  O_36
REMARK   17  A    between atoms: O_36  and  C_37
REMARK   18  A    between atoms: C_41  and  C_42
REMARK   19  A    between atoms: C_41  and  C_43
REMARK   20  A    between atoms: C_43  and  C_44
REMARK   21  A    between atoms: C_45  and  C_46
REMARK   22  A    between atoms: C_45  and  C_48
REMARK                            x       y       z     vdW  Elec       q    Type
REMARK                         _______ _______ _______ _____ _____    ______ ____
ROOT
ATOM      1  C   LIG A   1       0.076   2.280   2.528  0.00  0.00    +0.012 C 
ATOM      2  C   LIG A   1      -0.713   1.230   1.712  0.00  0.00    +0.037 C 
ATOM      3  C   LIG A   1      -0.054  -0.141   1.958  0.00  0.00    +0.221 C 
ATOM      4  C   LIG A   1       1.329  -0.169   1.269  0.00  0.00    +0.234 C 
ATOM      5  C   LIG A   1       1.276  -0.159  -0.291  0.00  0.00    +0.104 C 
ATOM      6  C   LIG A   1       1.141  -1.555  -0.899  0.00  0.00    +0.013 C 
ATOM      7  C   LIG A   1       2.501  -2.134  -1.176  0.00  0.00    +0.343 C 
ATOM      8  O   LIG A   1       3.365  -1.002  -1.306  0.00  0.00    -0.297 OA
ATOM      9  C   LIG A   1       2.751   0.186  -0.782  0.00  0.00    +0.328 C 
ATOM     10  C   LIG A   1       0.017  -2.052  -1.445  0.00  0.00    +0.010 C 
ATOM     11  C   LIG A   1      -1.101  -1.179  -1.890  0.00  0.00    +0.141 C 
ATOM     12  C   LIG A   1      -0.518   0.237  -2.082  0.00  0.00    +0.041 C 
ATOM     13  C   LIG A   1       0.144   0.841  -0.810  0.00  0.00    +0.018 C 
ATOM     14  C   LIG A   1      -0.932   1.556   0.184  0.00  0.00    -0.018 C 
ATOM     15  C   LIG A   1      -2.409   1.169  -0.152  0.00  0.00    +0.012 C 
ENDROOT
BRANCH  11  16
ATOM     16  O   LIG A   1      -1.506  -1.733  -3.150  0.00  0.00    -0.376 OA
ATOM     17  C   LIG A   1      -2.610  -1.075  -3.747  0.00  0.00    +0.194 C 
ENDBRANCH  11  16
BRANCH   3  18
ATOM     18  O   LIG A   1      -0.848  -1.279   1.560  0.00  0.00    -0.457 OA
BRANCH  18  19
ATOM     19  C   LIG A   1      -1.863  -1.615   2.410  0.00  0.00    +0.307 C 
ATOM     20  O   LIG A   1      -2.389  -0.856   3.216  0.00  0.00    -0.251 OA
BRANCH  19  21
ATOM     21  C   LIG A   1      -2.175  -3.089   2.337  0.00  0.00    +0.120 C 
BRANCH  21  22
ATOM     22  C   LIG A   1      -1.302  -3.855   3.332  0.00  0.00    +0.008 C 
ATOM     23  C   LIG A   1      -1.578  -5.350   3.307  0.00  0.00    +0.004 C 
ENDBRANCH  21  22
ENDBRANCH  19  21
ENDBRANCH  18  19
ENDBRANCH   3  18
BRANCH   4  24
ATOM     24  O   LIG A   1       2.083  -1.284   1.812  0.00  0.00    -0.457 OA
BRANCH  24  25
ATOM     25  C   LIG A   1       2.743  -1.013   2.973  0.00  0.00    +0.304 C 
ATOM     26  C   LIG A   1       3.006  -2.283   3.741  0.00  0.00    +0.136 C 
ATOM     27  O   LIG A   1       3.059   0.099   3.378  0.00  0.00    -0.251 OA
ENDBRANCH  24  25
ENDBRANCH   4  24
BRANCH   7  28
ATOM     28  O   LIG A   1       2.554  -2.830  -2.434  0.00  0.00    -0.431 OA
BRANCH  28  29
ATOM     29  C   LIG A   1       2.173  -4.132  -2.408  0.00  0.00    +0.306 C 
ATOM     30  C   LIG A   1       2.281  -4.747  -3.774  0.00  0.00    +0.136 C 
ATOM     31  O   LIG A   1       1.730  -4.721  -1.440  0.00  0.00    -0.251 OA
ENDBRANCH  28  29
ENDBRANCH   7  28
BRANCH   9  32
ATOM     32  O   LIG A   1       2.826   1.183  -1.812  0.00  0.00    -0.434 OA
BRANCH  32  33
ATOM     33  C   LIG A   1       4.101   1.672  -1.998  0.00  0.00    +0.306 C 
ATOM     34  C   LIG A   1       4.314   1.999  -3.461  0.00  0.00    +0.136 C 
ATOM     35  O   LIG A   1       4.973   1.722  -1.165  0.00  0.00    -0.251 OA
ENDBRANCH  32  33
ENDBRANCH   9  32
BRANCH  14  36
ATOM     36  C   LIG A   1      -0.869   3.128  -0.121  0.00  0.00    +0.034 C 
BRANCH  36  37
ATOM     37  C   LIG A   1      -1.827   4.009   0.659  0.00  0.00    -0.023 C 
ATOM     38  C   LIG A   1      -2.394   5.188   0.337  0.00  0.00    -0.055 C 
ATOM     39  C   LIG A   1      -3.254   5.918   1.344  0.00  0.00    +0.043 C 
BRANCH  38  40
ATOM     40  C   LIG A   1      -2.218   5.878  -0.922  0.00  0.00    -0.005 C 
ATOM     41  C   LIG A   1      -2.559   5.357  -2.106  0.00  0.00    +0.008 C 
ENDBRANCH  38  40
ENDBRANCH  36  37
ENDBRANCH  14  36
TORSDOF 14
