@<TRIPOS>MOLECULE
NuBBE_202
 51 53 0 0 0
SMALL
GASTEIGER

@<TRIPOS>ATOM
      1 C          -3.2081    0.6502    0.2622 C.3     1  LIG1       -0.0551
      2 C          -1.7594    1.1906    0.2460 C.3     1  LIG1        0.0027
      3 C          -1.6821    2.2208    1.3994 C.2     1  LIG1        0.0387
      4 C          -2.1758    3.6086    1.1979 C.2     1  LIG1        0.3330
      5 O          -1.6875    4.4852    2.0939 O.3     1  LIG1       -0.4773
      6 O          -2.9329    3.9885    0.3200 O.2     1  LIG1       -0.2455
      7 C          -1.2129    1.8867    2.6224 C.2     1  LIG1       -0.0735
      8 C          -0.7096    0.5284    3.0055 C.3     1  LIG1       -0.0337
      9 C          -0.8585   -0.5239    1.9088 C.3     1  LIG1       -0.0454
     10 C          -0.6387    0.1074    0.5165 C.3     1  LIG1       -0.0255
     11 H           0.2710    0.7144    0.6073 H       1  LIG1        0.0315
     12 C          -0.2805   -0.9340   -0.6220 C.3     1  LIG1       -0.0256
     13 C          -0.2495   -0.2290   -2.0294 C.3     1  LIG1       -0.0382
     14 H           0.6634    0.3716   -2.0915 H       1  LIG1        0.0303
     15 C          -0.2108   -1.1971   -3.2237 C.3     1  LIG1       -0.0619
     16 C          -1.3917    0.7677   -2.2498 C.3     1  LIG1       -0.0492
     17 C          -1.4666    1.8109   -1.1391 C.3     1  LIG1       -0.0429
     18 C           1.1534   -1.5738   -0.3302 C.3     1  LIG1       -0.0430
     19 C           2.3461   -0.5960   -0.2640 C.3     1  LIG1       -0.0242
     20 C           3.6670   -1.2434    0.0088 C.ar    1  LIG1       -0.0097
     21 C           4.5604   -1.7364   -0.9217 C.ar    1  LIG1        0.0948
     22 O           5.6992   -2.1662   -0.3220 O.2     1  LIG1       -0.4708
     23 C           5.5497   -1.9489    1.0085 C.ar    1  LIG1        0.0919
     24 C           4.3193   -1.3914    1.2672 C.ar    1  LIG1       -0.0208
     25 C          -1.2808   -2.1185   -0.6328 C.3     1  LIG1       -0.0590
     26 H          -3.5071    0.2778    1.2476 H       1  LIG1        0.0238
     27 H          -3.3740   -0.1536   -0.4540 H       1  LIG1        0.0238
     28 H          -3.9210    1.4440    0.0036 H       1  LIG1        0.0238
     29 H          -2.0949    5.3357    1.8343 H       1  LIG1        0.2954
     30 H          -1.1750    2.6232    3.4231 H       1  LIG1        0.0577
     31 H          -1.2255    0.1867    3.9100 H       1  LIG1        0.0308
     32 H           0.3526    0.6233    3.2625 H       1  LIG1        0.0308
     33 H          -1.8539   -0.9785    1.9745 H       1  LIG1        0.0271
     34 H          -0.1493   -1.3302    2.1151 H       1  LIG1        0.0271
     35 H          -1.1582   -1.7350   -3.3390 H       1  LIG1        0.0233
     36 H           0.5931   -1.9318   -3.1316 H       1  LIG1        0.0233
     37 H          -0.0403   -0.6461   -4.1554 H       1  LIG1        0.0233
     38 H          -2.3482    0.2462   -2.3615 H       1  LIG1        0.0268
     39 H          -1.2269    1.2944   -3.1992 H       1  LIG1        0.0268
     40 H          -2.2440    2.5269   -1.4256 H       1  LIG1        0.0274
     41 H          -0.5238    2.3736   -1.1073 H       1  LIG1        0.0274
     42 H           1.1161   -2.1409    0.6082 H       1  LIG1        0.0274
     43 H           1.3723   -2.3283   -1.0969 H       1  LIG1        0.0274
     44 H           2.1902    0.1542    0.5168 H       1  LIG1        0.0314
     45 H           2.4449   -0.0506   -1.2076 H       1  LIG1        0.0314
     46 H           4.5458   -1.8187   -1.9996 H       1  LIG1        0.1032
     47 H           6.3940   -2.2258    1.6248 H       1  LIG1        0.1029
     48 H           3.9525   -1.0971    2.2407 H       1  LIG1        0.0652
     49 H          -2.2692   -1.8254   -0.9897 H       1  LIG1        0.0235
     50 H          -1.3990   -2.5701    0.3567 H       1  LIG1        0.0235
     51 H          -0.9352   -2.9262   -1.2888 H       1  LIG1        0.0235
@<TRIPOS>BOND
     1     2     3    1
     2     4     5    1
     3     4     6    2
     4     3     7    2
     5     7     8    1
     6     8     9    1
     7     9    10    1
     8     2    10    1
     9    10    12    1
    10    12    13    1
    11    13    16    1
    12    16    17    1
    13     2    17    1
    14    18    19    1
    15    19    20    1
    16    20    21   ar
    17    21    22   ar
    18    22    23   ar
    19    23    24   ar
    20    20    24   ar
    21     1     2    1
    22     3     4    1
    23    10    11    1
    24    12    18    1
    25    12    25    1
    26    13    15    1
    27    13    14    1
    28     1    26    1
    29     1    27    1
    30     1    28    1
    31     5    29    1
    32     7    30    1
    33     8    31    1
    34     8    32    1
    35     9    33    1
    36     9    34    1
    37    15    35    1
    38    15    36    1
    39    15    37    1
    40    16    38    1
    41    16    39    1
    42    17    40    1
    43    17    41    1
    44    18    42    1
    45    18    43    1
    46    19    44    1
    47    19    45    1
    48    21    46    1
    49    23    47    1
    50    24    48    1
    51    25    49    1
    52    25    50    1
    53    25    51    1
