REMARK  Name = NuBBE_1136
REMARK  7 active torsions:
REMARK  status: ('A' for Active; 'I' for Inactive)
REMARK    1  A    between atoms: O_1  and  C_2
REMARK    2  A    between atoms: C_2  and  C_3
REMARK    3  A    between atoms: C_3  and  C_4
REMARK    4  A    between atoms: C_5  and  C_6
REMARK    5  A    between atoms: C_26  and  C_28
REMARK    6  A    between atoms: C_29  and  C_30
REMARK    7  A    between atoms: C_29  and  C_31
REMARK                            x       y       z     vdW  Elec       q    Type
REMARK                         _______ _______ _______ _____ _____    ______ ____
ROOT
ATOM      1  C   LIG A   1      -0.248  -0.124   1.058  0.00  0.00    +0.038 C 
ATOM      2  C   LIG A   1      -1.260   0.273  -0.002  0.00  0.00    -0.029 A 
ATOM      3  C   LIG A   1      -1.995  -0.588  -0.818  0.00  0.00    +0.031 A 
ATOM      4  C   LIG A   1      -2.860   0.015  -1.737  0.00  0.00    +0.047 A 
ATOM      5  C   LIG A   1      -3.027   1.400  -1.833  0.00  0.00    -0.000 A 
ATOM      6  C   LIG A   1      -3.979   1.630  -2.865  0.00  0.00    +0.027 A 
ATOM      7  C   LIG A   1      -4.354   0.409  -3.377  0.00  0.00    +0.083 A 
ATOM      8  N   LIG A   1      -3.670  -0.559  -2.690  0.00  0.00    -0.361 N 
ATOM      9  H   LIG A   1      -3.738  -1.553  -2.858  0.00  0.00    +0.165 HD
ATOM     10  C   LIG A   1      -2.294   2.247  -0.975  0.00  0.00    +0.014 A 
ATOM     11  C   LIG A   1      -1.411   1.659  -0.071  0.00  0.00    -0.036 A 
ATOM     12  C   LIG A   1      -0.528   2.373   0.918  0.00  0.00    +0.043 C 
ATOM     13  C   LIG A   1       0.425   1.243   1.377  0.00  0.00    +0.030 C 
ENDROOT
BRANCH  12  14
ATOM     14  C   LIG A   1      -1.302   2.986   2.058  0.00  0.00    -0.020 C 
ATOM     15  C   LIG A   1      -1.358   4.284   2.420  0.00  0.00    -0.079 C 
ATOM     16  C   LIG A   1      -0.648   5.417   1.733  0.00  0.00    +0.038 C 
ATOM     17  C   LIG A   1      -2.189   4.709   3.604  0.00  0.00    +0.038 C 
ENDBRANCH  12  14
BRANCH   1  18
ATOM     18  C   LIG A   1       0.817  -1.102   0.574  0.00  0.00    -0.013 C 
ATOM     19  C   LIG A   1       1.246  -1.245  -0.694  0.00  0.00    +0.005 C 
BRANCH  19  20
ATOM     20  C   LIG A   1       2.276  -2.200  -1.121  0.00  0.00    -0.025 A 
ATOM     21  C   LIG A   1       3.078  -1.881  -2.223  0.00  0.00    +0.010 A 
ATOM     22  C   LIG A   1       4.063  -2.757  -2.693  0.00  0.00    +0.027 A 
ATOM     23  C   LIG A   1       4.215  -3.975  -2.024  0.00  0.00    +0.046 A 
ATOM     24  N   LIG A   1       5.090  -5.012  -2.247  0.00  0.00    -0.361 N 
ATOM     25  H   LIG A   1       5.790  -5.024  -2.976  0.00  0.00    +0.165 HD
ATOM     26  C   LIG A   1       4.877  -6.018  -1.340  0.00  0.00    +0.083 A 
ATOM     27  C   LIG A   1       3.845  -5.629  -0.518  0.00  0.00    +0.027 A 
ATOM     28  C   LIG A   1       3.422  -4.339  -0.936  0.00  0.00    +0.000 A 
ATOM     29  C   LIG A   1       2.433  -3.444  -0.488  0.00  0.00    +0.018 A 
ENDBRANCH  19  20
ENDBRANCH   1  18
BRANCH   1  30
ATOM     30  C   LIG A   1      -1.017  -0.705   2.273  0.00  0.00    +0.171 C 
BRANCH  30  31
ATOM     31  O   LIG A   1      -0.152  -0.962   3.380  0.00  0.00    -0.394 OA
ATOM     32  H   LIG A   1      -0.688  -1.410   4.057  0.00  0.00    +0.209 HD
ENDBRANCH  30  31
ENDBRANCH   1  30
TORSDOF 5
