REMARK  Name = NuBBE_2026
REMARK  3 active torsions:
REMARK  status: ('A' for Active; 'I' for Inactive)
REMARK    1  A    between atoms: C_1  and  C_2
REMARK    2  A    between atoms: C_3  and  C_4
REMARK    3  A    between atoms: C_3  and  C_5
REMARK                            x       y       z     vdW  Elec       q    Type
REMARK                         _______ _______ _______ _____ _____    ______ ____
ROOT
ATOM      1  C   LIG A   1      -2.159  -0.069  -0.678  0.00  0.00    +0.019 C 
ATOM      2  C   LIG A   1      -0.651  -0.033  -0.617  0.00  0.00    +0.032 C 
ATOM      3  C   LIG A   1       0.017  -0.031   0.786  0.00  0.00    -0.020 C 
ATOM      4  C   LIG A   1      -0.323  -1.252   1.664  0.00  0.00    +0.012 C 
ATOM      5  C   LIG A   1      -0.280   1.218   1.639  0.00  0.00    +0.012 C 
ATOM      6  C   LIG A   1       0.007   1.165  -1.342  0.00  0.00    +0.015 C 
ATOM      7  C   LIG A   1       1.443   1.168  -0.772  0.00  0.00    +0.005 C 
ATOM      8  C   LIG A   1       1.448  -0.056   0.179  0.00  0.00    +0.003 C 
ATOM      9  C   LIG A   1       1.465  -1.325  -0.709  0.00  0.00    +0.079 C 
ATOM     10  C   LIG A   1       0.047  -1.244  -1.241  0.00  0.00    +0.140 C 
ATOM     11  O   LIG A   1      -0.437  -2.012  -2.059  0.00  0.00    -0.297 OA
ENDROOT
TORSDOF 0
