REMARK  Name = NuBBE_1503
REMARK  14 active torsions:
REMARK  status: ('A' for Active; 'I' for Inactive)
REMARK    1  A    between atoms: C_1  and  C_2
REMARK    2  A    between atoms: C_1  and  C_14
REMARK    3  A    between atoms: C_2  and  C_3
REMARK    4  A    between atoms: C_3  and  C_5
REMARK    5  A    between atoms: C_5  and  C_6
REMARK    6  A    between atoms: C_6  and  C_8
REMARK    7  A    between atoms: C_6  and  O_13
REMARK    8  A    between atoms: C_8  and  C_9
REMARK    9  A    between atoms: C_9  and  C_10
REMARK   10  A    between atoms: C_10  and  C_11
REMARK   11  A    between atoms: C_11  and  C_12
REMARK   12  A    between atoms: C_16  and  O_17
REMARK   13  A    between atoms: O_17  and  C_18
REMARK   14  A    between atoms: C_19  and  O_22
REMARK                            x       y       z     vdW  Elec       q    Type
REMARK                         _______ _______ _______ _____ _____    ______ ____
ROOT
ATOM      1  C   LIG A   1       0.092  -1.450  -1.377  0.00  0.00    +0.079 C 
ENDROOT
BRANCH   1   2
ATOM      2  C   LIG A   1      -0.925  -0.545  -2.046  0.00  0.00    +0.136 C 
ATOM      3  O   LIG A   1      -0.908  -0.349  -3.269  0.00  0.00    -0.297 OA
BRANCH   2   4
ATOM      4  C   LIG A   1      -1.957   0.098  -1.141  0.00  0.00    +0.105 C 
BRANCH   4   5
ATOM      5  C   LIG A   1      -2.453   1.462  -1.630  0.00  0.00    +0.122 C 
BRANCH   5   6
ATOM      6  O   LIG A   1      -3.081   1.336  -2.905  0.00  0.00    -0.391 OA
ATOM      7  H   LIG A   1      -2.440   0.888  -3.498  0.00  0.00    +0.210 HD
ENDBRANCH   5   6
BRANCH   5   8
ATOM      8  C   LIG A   1      -3.491   2.088  -0.677  0.00  0.00    +0.032 C 
BRANCH   8   9
ATOM      9  C   LIG A   1      -2.990   2.244   0.760  0.00  0.00    +0.002 C 
BRANCH   9  10
ATOM     10  C   LIG A   1      -4.032   2.888   1.675  0.00  0.00    -0.000 C 
BRANCH  10  11
ATOM     11  C   LIG A   1      -3.534   3.041   3.116  0.00  0.00    -0.003 C 
ATOM     12  C   LIG A   1      -2.288   3.908   3.222  0.00  0.00    +0.004 C 
ENDBRANCH  10  11
ENDBRANCH   9  10
ENDBRANCH   8   9
ENDBRANCH   5   8
ENDBRANCH   4   5
ENDBRANCH   2   4
ENDBRANCH   1   2
BRANCH   1  13
ATOM     13  C   LIG A   1       1.294  -0.619  -0.943  0.00  0.00    +0.042 C 
BRANCH  13  14
ATOM     14  C   LIG A   1       2.357  -1.437  -0.251  0.00  0.00    -0.043 A 
ATOM     15  C   LIG A   1       3.374  -2.054  -1.004  0.00  0.00    +0.053 A 
ATOM     16  C   LIG A   1       4.369  -2.800  -0.368  0.00  0.00    +0.162 A 
ATOM     17  C   LIG A   1       4.350  -2.908   1.025  0.00  0.00    +0.159 A 
ATOM     18  C   LIG A   1       3.349  -2.317   1.784  0.00  0.00    +0.049 A 
ATOM     19  C   LIG A   1       2.351  -1.581   1.145  0.00  0.00    +0.007 A 
BRANCH  16  20
ATOM     20  O   LIG A   1       5.423  -3.418  -0.991  0.00  0.00    -0.491 OA
ATOM     21  C   LIG A   1       5.170  -3.871  -2.317  0.00  0.00    +0.277 C 
ENDBRANCH  16  20
BRANCH  17  22
ATOM     22  O   LIG A   1       5.322  -3.619   1.675  0.00  0.00    -0.503 OA
ATOM     23  H   LIG A   1       5.925  -3.924   0.969  0.00  0.00    +0.292 HD
ENDBRANCH  17  22
ENDBRANCH  13  14
ENDBRANCH   1  13
TORSDOF 12
