REMARK  Name = NuBBE_492
REMARK  17 active torsions:
REMARK  status: ('A' for Active; 'I' for Inactive)
REMARK    1  A    between atoms: C_4  and  C_43
REMARK    2  A    between atoms: C_9  and  C_10
REMARK    3  A    between atoms: C_11  and  C_12
REMARK    4  A    between atoms: C_12  and  C_14
REMARK    5  A    between atoms: C_12  and  C_15
REMARK    6  A    between atoms: C_15  and  C_16
REMARK    7  A    between atoms: C_21  and  C_22
REMARK    8  A    between atoms: C_22  and  C_23
REMARK    9  A    between atoms: C_23  and  C_25
REMARK   10  A    between atoms: C_23  and  C_26
REMARK   11  A    between atoms: C_26  and  O_28
REMARK   12  A    between atoms: C_26  and  C_41
REMARK   13  A    between atoms: O_28  and  C_29
REMARK   14  A    between atoms: C_29  and  C_30
REMARK   15  A    between atoms: C_30  and  O_31
REMARK   16  A    between atoms: C_30  and  C_34
REMARK   17  A    between atoms: O_31  and  C_32
REMARK                            x       y       z     vdW  Elec       q    Type
REMARK                         _______ _______ _______ _____ _____    ______ ____
ROOT
ATOM      1  O   LIG A   1      -3.106   3.122   3.056  0.00  0.00    -0.245 OA
ATOM      2  C   LIG A   1      -2.089   2.482   3.118  0.00  0.00    +0.344 C 
ATOM      3  O   LIG A   1      -0.972   2.931   3.776  0.00  0.00    -0.442 OA
ATOM      4  C   LIG A   1       0.074   2.051   3.483  0.00  0.00    +0.200 C 
ATOM      5  C   LIG A   1      -0.595   0.922   2.772  0.00  0.00    +0.031 C 
ATOM      6  C   LIG A   1       0.357  -0.047   2.265  0.00  0.00    +0.027 C 
ATOM      7  C   LIG A   1       0.386  -1.356   2.576  0.00  0.00    +0.204 C 
ATOM      8  O   LIG A   1       1.334  -2.247   2.081  0.00  0.00    -0.463 OA
ATOM      9  C   LIG A   1       2.167  -1.812   1.045  0.00  0.00    +0.128 C 
ATOM     10  C   LIG A   1       2.262  -0.514   0.705  0.00  0.00    +0.056 C 
ATOM     11  C   LIG A   1       1.512   0.454   1.491  0.00  0.00    +0.011 C 
ATOM     12  C   LIG A   1       1.829   1.766   1.556  0.00  0.00    +0.096 C 
ATOM     13 CL   LIG A   1       3.116   2.490   0.654  0.00  0.00    -0.079 Cl
ATOM     14  C   LIG A   1      -1.873   1.174   2.512  0.00  0.00    +0.110 C 
ATOM     15  C   LIG A   1       0.741   1.644   4.802  0.00  0.00    +0.070 C 
ATOM     16  C   LIG A   1       1.073   2.693   2.493  0.00  0.00    +0.222 C 
ATOM     17  O   LIG A   1       1.251   3.905   2.446  0.00  0.00    -0.286 OA
ENDROOT
BRANCH   9  18
ATOM     18  C   LIG A   1       2.873  -2.842   0.315  0.00  0.00    +0.042 C 
ATOM     19  C   LIG A   1       3.264  -4.026   0.817  0.00  0.00    -0.020 C 
BRANCH  19  20
ATOM     20  C   LIG A   1       4.006  -5.115   0.060  0.00  0.00    +0.008 C 
ATOM     21  C   LIG A   1       3.677  -5.122  -1.437  0.00  0.00    +0.012 C 
BRANCH  20  22
ATOM     22  C   LIG A   1       5.522  -5.021   0.330  0.00  0.00    +0.004 C 
ATOM     23  C   LIG A   1       6.338  -6.120  -0.344  0.00  0.00    +0.004 C 
ENDBRANCH  20  22
ENDBRANCH  19  20
ENDBRANCH   9  18
BRANCH  14  24
ATOM     24  C   LIG A   1      -2.864   0.434   1.685  0.00  0.00    +0.177 C 
ATOM     25  O   LIG A   1      -2.717  -0.791   1.544  0.00  0.00    -0.291 OA
BRANCH  24  26
ATOM     26  C   LIG A   1      -4.069   1.168   1.076  0.00  0.00    +0.098 C 
ATOM     27  C   LIG A   1      -5.270   1.125   2.035  0.00  0.00    +0.020 C 
BRANCH  26  28
ATOM     28  C   LIG A   1      -4.460   0.616  -0.324  0.00  0.00    +0.184 C 
ATOM     29  C   LIG A   1      -5.692   1.322  -0.912  0.00  0.00    +0.052 C 
BRANCH  28  30
ATOM     30  O   LIG A   1      -3.398   0.590  -1.336  0.00  0.00    -0.459 OA
BRANCH  30  31
ATOM     31  C   LIG A   1      -2.554   1.639  -1.530  0.00  0.00    +0.341 C 
ATOM     32  O   LIG A   1      -2.566   2.665  -0.840  0.00  0.00    -0.247 OA
BRANCH  31  33
ATOM     33  C   LIG A   1      -1.528   1.363  -2.666  0.00  0.00    +0.256 C 
BRANCH  33  34
ATOM     34  C   LIG A   1      -1.105   2.666  -3.365  0.00  0.00    -0.008 A 
ATOM     35  C   LIG A   1      -0.023   3.433  -2.893  0.00  0.00    +0.007 A 
ATOM     36  C   LIG A   1       0.302   4.660  -3.486  0.00  0.00    +0.000 A 
ATOM     37  C   LIG A   1      -0.436   5.133  -4.569  0.00  0.00    +0.000 A 
ATOM     38  C   LIG A   1      -1.484   4.370  -5.075  0.00  0.00    +0.000 A 
ATOM     39  C   LIG A   1      -1.821   3.150  -4.475  0.00  0.00    +0.007 A 
ENDBRANCH  33  34
BRANCH  33  40
ATOM     40  O   LIG A   1      -0.336   0.735  -2.174  0.00  0.00    -0.364 OA
ATOM     41  C   LIG A   1      -0.444  -0.669  -2.004  0.00  0.00    +0.195 C 
ENDBRANCH  33  40
ENDBRANCH  31  33
ENDBRANCH  30  31
ENDBRANCH  28  30
ENDBRANCH  26  28
ENDBRANCH  24  26
ENDBRANCH  14  24
TORSDOF 11
