REMARK  Name = NuBBE_359
REMARK  13 active torsions:
REMARK  status: ('A' for Active; 'I' for Inactive)
REMARK    1  A    between atoms: O_1  and  C_2
REMARK    2  A    between atoms: C_4  and  O_5
REMARK    3  A    between atoms: C_7  and  C_9
REMARK    4  A    between atoms: C_10  and  O_11
REMARK    5  A    between atoms: C_13  and  O_14
REMARK    6  A    between atoms: C_18  and  C_20
REMARK    7  A    between atoms: C_22  and  O_23
REMARK    8  A    between atoms: C_24  and  O_25
REMARK    9  A    between atoms: C_28  and  O_30
REMARK   10  A    between atoms: C_32  and  O_34
REMARK   11  A    between atoms: C_35  and  C_37
REMARK   12  A    between atoms: C_39  and  O_40
REMARK   13  A    between atoms: C_41  and  O_42
REMARK                            x       y       z     vdW  Elec       q    Type
REMARK                         _______ _______ _______ _____ _____    ______ ____
ROOT
ATOM      1  C   LIG A   1      -2.902  -2.082  -1.597  0.00  0.00    +0.124 A 
ATOM      2  C   LIG A   1      -2.327  -3.174  -0.957  0.00  0.00    +0.091 A 
ATOM      3  C   LIG A   1      -0.968  -3.132  -0.644  0.00  0.00    +0.128 A 
ATOM      4  C   LIG A   1      -0.179  -2.011  -0.949  0.00  0.00    +0.046 A 
ATOM      5  C   LIG A   1       1.290  -1.958  -0.572  0.00  0.00    +0.096 C 
ATOM      6  C   LIG A   1       2.022  -0.881  -1.404  0.00  0.00    +0.172 C 
ATOM      7  C   LIG A   1       1.183   0.409  -1.455  0.00  0.00    +0.233 C 
ATOM      8  O   LIG A   1      -0.123   0.190  -2.010  0.00  0.00    -0.481 OA
ATOM      9  C   LIG A   1      -0.783  -0.935  -1.610  0.00  0.00    +0.132 A 
ATOM     10  C   LIG A   1      -2.139  -0.973  -1.937  0.00  0.00    +0.091 A 
ENDROOT
BRANCH   5  11
ATOM     11  C   LIG A   1       1.612  -1.828   0.925  0.00  0.00    +0.046 A 
ATOM     12  C   LIG A   1       2.787  -2.402   1.450  0.00  0.00    +0.128 A 
ATOM     13  C   LIG A   1       3.144  -2.257   2.791  0.00  0.00    +0.091 A 
ATOM     14  C   LIG A   1       2.327  -1.534   3.648  0.00  0.00    +0.127 A 
ATOM     15  C   LIG A   1       1.157  -0.934   3.185  0.00  0.00    +0.039 A 
ATOM     16  C   LIG A   1       0.803  -1.095   1.828  0.00  0.00    +0.136 A 
ATOM     17  O   LIG A   1      -0.308  -0.464   1.320  0.00  0.00    -0.481 OA
ATOM     18  C   LIG A   1      -1.338  -0.189   2.283  0.00  0.00    +0.232 C 
ATOM     19  C   LIG A   1      -0.754   0.694   3.398  0.00  0.00    +0.164 C 
ATOM     20  C   LIG A   1       0.294  -0.136   4.138  0.00  0.00    +0.078 C 
BRANCH  18  21
ATOM     21  C   LIG A   1      -2.529   0.432   1.569  0.00  0.00    -0.001 A 
ATOM     22  C   LIG A   1      -2.400   1.605   0.804  0.00  0.00    +0.056 A 
ATOM     23  C   LIG A   1      -3.514   2.149   0.172  0.00  0.00    +0.159 A 
ATOM     24  C   LIG A   1      -4.757   1.535   0.281  0.00  0.00    +0.158 A 
ATOM     25  C   LIG A   1      -4.909   0.372   1.017  0.00  0.00    +0.049 A 
ATOM     26  C   LIG A   1      -3.796  -0.178   1.662  0.00  0.00    +0.011 A 
BRANCH  23  27
ATOM     27  O   LIG A   1      -3.433   3.295  -0.571  0.00  0.00    -0.503 OA
ATOM     28  H   LIG A   1      -2.508   3.596  -0.555  0.00  0.00    +0.292 HD
ENDBRANCH  23  27
BRANCH  24  29
ATOM     29  O   LIG A   1      -5.843   2.079  -0.343  0.00  0.00    -0.503 OA
ATOM     30  H   LIG A   1      -5.487   2.866  -0.802  0.00  0.00    +0.292 HD
ENDBRANCH  24  29
ENDBRANCH  18  21
BRANCH  12  31
ATOM     31  O   LIG A   1       3.687  -3.114   0.705  0.00  0.00    -0.506 OA
ATOM     32  H   LIG A   1       3.256  -3.514  -0.067  0.00  0.00    +0.292 HD
ENDBRANCH  12  31
BRANCH  14  33
ATOM     33  O   LIG A   1       2.668  -1.385   4.963  0.00  0.00    -0.506 OA
ATOM     34  H   LIG A   1       3.534  -1.800   5.113  0.00  0.00    +0.292 HD
ENDBRANCH  14  33
BRANCH  19  35
ATOM     35  O   LIG A   1      -0.113   1.874   2.878  0.00  0.00    -0.388 OA
ATOM     36  H   LIG A   1       0.496   1.567   2.182  0.00  0.00    +0.210 HD
ENDBRANCH  19  35
ENDBRANCH   5  11
BRANCH   7  37
ATOM     37  C   LIG A   1       1.853   1.514  -2.270  0.00  0.00    -0.001 A 
ATOM     38  C   LIG A   1       2.779   2.382  -1.668  0.00  0.00    +0.056 A 
ATOM     39  C   LIG A   1       3.359   3.401  -2.421  0.00  0.00    +0.159 A 
ATOM     40  C   LIG A   1       3.034   3.561  -3.766  0.00  0.00    +0.158 A 
ATOM     41  C   LIG A   1       2.138   2.707  -4.384  0.00  0.00    +0.049 A 
ATOM     42  C   LIG A   1       1.553   1.685  -3.638  0.00  0.00    +0.011 A 
BRANCH  39  43
ATOM     43  O   LIG A   1       4.255   4.282  -1.882  0.00  0.00    -0.503 OA
ATOM     44  H   LIG A   1       4.399   4.039  -0.951  0.00  0.00    +0.292 HD
ENDBRANCH  39  43
BRANCH  40  45
ATOM     45  O   LIG A   1       3.600   4.569  -4.493  0.00  0.00    -0.503 OA
ATOM     46  H   LIG A   1       4.184   5.029  -3.857  0.00  0.00    +0.292 HD
ENDBRANCH  40  45
ENDBRANCH   7  37
BRANCH   1  47
ATOM     47  O   LIG A   1      -4.225  -2.061  -1.923  0.00  0.00    -0.506 OA
ATOM     48  H   LIG A   1      -4.672  -2.813  -1.504  0.00  0.00    +0.292 HD
ENDBRANCH   1  47
BRANCH   3  49
ATOM     49  O   LIG A   1      -0.373  -4.206  -0.039  0.00  0.00    -0.506 OA
ATOM     50  H   LIG A   1      -1.029  -4.915   0.069  0.00  0.00    +0.292 HD
ENDBRANCH   3  49
BRANCH   6  51
ATOM     51  O   LIG A   1       2.267  -1.416  -2.724  0.00  0.00    -0.387 OA
ATOM     52  H   LIG A   1       1.430  -1.342  -3.220  0.00  0.00    +0.210 HD
ENDBRANCH   6  51
TORSDOF 13
