REMARK  Name = NuBBE_927
REMARK  17 active torsions:
REMARK  status: ('A' for Active; 'I' for Inactive)
REMARK    1  A    between atoms: C_6  and  O_12
REMARK    2  A    between atoms: C_7  and  O_10
REMARK    3  A    between atoms: C_8  and  O_9
REMARK    4  A    between atoms: O_10  and  C_11
REMARK    5  A    between atoms: O_12  and  C_13
REMARK    6  A    between atoms: C_16  and  C_18
REMARK    7  A    between atoms: C_18  and  O_19
REMARK    8  A    between atoms: C_20  and  O_28
REMARK    9  A    between atoms: C_22  and  O_27
REMARK   10  A    between atoms: C_24  and  O_26
REMARK   11  A    between atoms: C_31  and  C_32
REMARK   12  A    between atoms: C_33  and  O_34
REMARK   13  A    between atoms: O_34  and  C_35
REMARK   14  A    between atoms: C_37  and  O_42
REMARK   15  A    between atoms: C_38  and  O_40
REMARK   16  A    between atoms: O_40  and  C_41
REMARK   17  A    between atoms: O_42  and  C_43
REMARK                            x       y       z     vdW  Elec       q    Type
REMARK                         _______ _______ _______ _____ _____    ______ ____
ROOT
ATOM      1  O   LIG A   1      -2.859  -1.282   2.015  0.00  0.00    -0.286 OA
ATOM      2  C   LIG A   1      -1.796  -1.085   1.498  0.00  0.00    +0.204 A 
ATOM      3  C   LIG A   1      -1.442   0.258   0.957  0.00  0.00    +0.110 A 
ATOM      4  C   LIG A   1      -0.113   0.508   0.666  0.00  0.00    +0.146 A 
ATOM      5  C   LIG A   1       0.293   1.733   0.157  0.00  0.00    +0.096 A 
ATOM      6  C   LIG A   1      -0.642   2.711  -0.175  0.00  0.00    +0.173 A 
ATOM      7  C   LIG A   1      -2.005   2.502   0.119  0.00  0.00    +0.204 A 
ATOM      8  C   LIG A   1      -2.398   1.265   0.715  0.00  0.00    +0.177 A 
ATOM      9  O   LIG A   1       0.883  -0.427   0.794  0.00  0.00    -0.462 OA
ATOM     10  C   LIG A   1       0.491  -1.733   0.965  0.00  0.00    +0.208 A 
ATOM     11  C   LIG A   1      -0.733  -2.140   1.313  0.00  0.00    +0.068 A 
ENDROOT
BRANCH  11  12
ATOM     12  C   LIG A   1      -0.988  -3.577   1.491  0.00  0.00    +0.034 A 
ATOM     13  C   LIG A   1      -1.457  -4.392   0.453  0.00  0.00    +0.132 A 
ATOM     14  C   LIG A   1      -1.552  -5.766   0.672  0.00  0.00    +0.095 A 
ATOM     15  C   LIG A   1      -1.233  -6.376   1.884  0.00  0.00    +0.165 A 
ATOM     16  C   LIG A   1      -0.778  -5.575   2.931  0.00  0.00    +0.162 A 
ATOM     17  C   LIG A   1      -0.650  -4.186   2.720  0.00  0.00    +0.061 A 
BRANCH  13  18
ATOM     18  O   LIG A   1      -1.759  -3.859  -0.781  0.00  0.00    -0.494 OA
ATOM     19  C   LIG A   1      -2.698  -4.632  -1.548  0.00  0.00    +0.277 C 
ENDBRANCH  13  18
BRANCH  16  20
ATOM     20  O   LIG A   1      -0.349  -5.978   4.167  0.00  0.00    -0.491 OA
ATOM     21  C   LIG A   1      -0.720  -7.271   4.628  0.00  0.00    +0.277 C 
ENDBRANCH  16  20
BRANCH  15  22
ATOM     22  O   LIG A   1      -1.387  -7.730   2.036  0.00  0.00    -0.491 OA
ATOM     23  C   LIG A   1      -1.226  -8.509   0.850  0.00  0.00    +0.277 C 
ENDBRANCH  15  22
ENDBRANCH  11  12
BRANCH   8  24
ATOM     24  O   LIG A   1      -3.720   1.056   1.026  0.00  0.00    -0.503 OA
ATOM     25  H   LIG A   1      -3.794   0.200   1.512  0.00  0.00    +0.292 HD
ENDBRANCH   8  24
BRANCH   7  26
ATOM     26  O   LIG A   1      -3.011   3.392  -0.206  0.00  0.00    -0.488 OA
ATOM     27  C   LIG A   1      -2.669   4.774  -0.346  0.00  0.00    +0.277 C 
ENDBRANCH   7  26
BRANCH   6  28
ATOM     28  O   LIG A   1      -0.259   3.889  -0.749  0.00  0.00    -0.457 OA
BRANCH  28  29
ATOM     29  C   LIG A   1       0.875   3.936  -1.627  0.00  0.00    +0.339 C 
ATOM     30  O   LIG A   1       2.033   3.869  -0.800  0.00  0.00    -0.331 OA
ATOM     31  C   LIG A   1       3.266   4.225  -1.396  0.00  0.00    +0.179 C 
ATOM     32  C   LIG A   1       3.190   5.666  -1.903  0.00  0.00    +0.177 C 
ATOM     33  C   LIG A   1       2.119   5.705  -2.985  0.00  0.00    +0.180 C 
ATOM     34  C   LIG A   1       0.769   5.270  -2.422  0.00  0.00    +0.214 C 
BRANCH  34  35
ATOM     35  O   LIG A   1      -0.149   5.162  -3.526  0.00  0.00    -0.383 OA
ATOM     36  H   LIG A   1      -0.031   5.987  -4.042  0.00  0.00    +0.210 HD
ENDBRANCH  34  35
BRANCH  33  37
ATOM     37  O   LIG A   1       2.018   7.034  -3.519  0.00  0.00    -0.386 OA
ATOM     38  H   LIG A   1       2.945   7.305  -3.685  0.00  0.00    +0.210 HD
ENDBRANCH  33  37
BRANCH  32  39
ATOM     39  O   LIG A   1       4.409   6.135  -2.479  0.00  0.00    -0.387 OA
ATOM     40  H   LIG A   1       5.035   6.255  -1.733  0.00  0.00    +0.210 HD
ENDBRANCH  32  39
BRANCH  31  41
ATOM     41  C   LIG A   1       4.335   4.051  -0.312  0.00  0.00    +0.190 C 
BRANCH  41  42
ATOM     42  O   LIG A   1       5.625   4.418  -0.777  0.00  0.00    -0.392 OA
ATOM     43  H   LIG A   1       5.794   3.911  -1.593  0.00  0.00    +0.209 HD
ENDBRANCH  41  42
ENDBRANCH  31  41
ENDBRANCH  28  29
ENDBRANCH   6  28
TORSDOF 13
