@<TRIPOS>MOLECULE
NuBBE_982
 51 51 0 0 0
SMALL
GASTEIGER

@<TRIPOS>ATOM
      1 C           2.0104    1.3146    3.7746 C.3     1  LIG1       -0.0361
      2 C           1.1003    0.5393    2.7989 C.3     1  LIG1        0.0634
      3 C           0.9740   -0.8914    3.3527 C.3     1  LIG1       -0.0361
      4 O          -0.1890    1.1425    2.8454 O.3     1  LIG1       -0.3888
      5 C           1.6756    0.6096    1.3394 C.3     1  LIG1       -0.0100
      6 H           2.7201    0.2785    1.4649 H       1  LIG1        0.0329
      7 C           1.8274    2.0551    0.7559 C.3     1  LIG1       -0.0176
      8 C           0.6076    2.9938    0.5557 C.3     1  LIG1        0.0764
      9 O           1.1732    4.2953    0.2924 O.3     1  LIG1       -0.3875
     10 C           1.1530   -0.3295    0.2124 C.3     1  LIG1       -0.0472
     11 C           0.0346   -1.3311    0.4939 C.3     1  LIG1       -0.0468
     12 C          -0.8064   -1.7562   -0.7270 C.3     1  LIG1       -0.0067
     13 C           0.0366   -2.0541   -1.9810 C.3     1  LIG1        0.0952
     14 O          -0.7955   -2.4883   -3.0680 O.3     1  LIG1       -0.4645
     15 C          -1.1549   -3.7955   -3.0480 C.2     1  LIG1        0.3040
     16 C          -2.0723   -4.1178   -4.1852 C.3     1  LIG1        0.0332
     17 O          -0.7864   -4.6202   -2.2196 O.2     1  LIG1       -0.2512
     18 C          -2.0103   -0.8108   -0.9852 C.3     1  LIG1       -0.0468
     19 C          -1.6814    0.6181   -1.4316 C.3     1  LIG1       -0.0489
     20 C          -1.4131    1.5917   -0.2672 C.3     1  LIG1       -0.0296
     21 C          -0.3873    2.6728   -0.5644 C.2     1  LIG1       -0.0485
     22 C          -0.4746    3.3594   -1.7226 C.2     1  LIG1       -0.0970
     23 H           1.6062    1.2829    4.7944 H       1  LIG1        0.0257
     24 H           2.0783    2.3762    3.5223 H       1  LIG1        0.0257
     25 H           3.0190    0.8874    3.7994 H       1  LIG1        0.0257
     26 H           1.0075   -0.8989    4.4486 H       1  LIG1        0.0257
     27 H           1.7806   -1.5374    2.9947 H       1  LIG1        0.0257
     28 H           0.0079   -1.3464    3.1191 H       1  LIG1        0.0257
     29 H          -0.4800    1.1732    3.7738 H       1  LIG1        0.2101
     30 H           2.3554    1.9786   -0.2069 H       1  LIG1        0.0297
     31 H           2.5502    2.5922    1.3859 H       1  LIG1        0.0297
     32 H           0.0595    3.1211    1.4919 H       1  LIG1        0.0640
     33 H           1.7580    4.1922   -0.4768 H       1  LIG1        0.2102
     34 H           2.0185   -0.9124   -0.1372 H       1  LIG1        0.0269
     35 H           0.8973    0.2743   -0.6591 H       1  LIG1        0.0269
     36 H          -0.6658   -0.9518    1.2387 H       1  LIG1        0.0269
     37 H           0.4928   -2.2347    0.9168 H       1  LIG1        0.0269
     38 H          -1.2779   -2.7071   -0.4402 H       1  LIG1        0.0334
     39 H           0.8025   -2.8107   -1.7690 H       1  LIG1        0.0700
     40 H           0.5731   -1.1679   -2.3325 H       1  LIG1        0.0700
     41 H          -1.5480   -4.7487   -4.9064 H       1  LIG1        0.0342
     42 H          -2.4090   -3.2054   -4.6859 H       1  LIG1        0.0342
     43 H          -2.9540   -4.6334   -3.7953 H       1  LIG1        0.0342
     44 H          -2.6409   -0.7787   -0.0869 H       1  LIG1        0.0269
     45 H          -2.6370   -1.2690   -1.7611 H       1  LIG1        0.0269
     46 H          -2.5493    1.0016   -1.9844 H       1  LIG1        0.0268
     47 H          -0.8544    0.6007   -2.1482 H       1  LIG1        0.0268
     48 H          -1.1097    1.0428    0.6184 H       1  LIG1        0.0311
     49 H          -2.3549    2.0762    0.0230 H       1  LIG1        0.0311
     50 H          -1.2440    3.1365   -2.4569 H       1  LIG1        0.0535
     51 H           0.1766    4.1906   -1.9668 H       1  LIG1        0.0535
@<TRIPOS>BOND
     1     1     2    1
     2     2     3    1
     3     2     4    1
     4     2     5    1
     5     5     6    1
     6     5     7    1
     7     7     8    1
     8     8     9    1
     9     5    10    1
    10    10    11    1
    11    11    12    1
    12    12    13    1
    13    13    14    1
    14    14    15    1
    15    15    16    1
    16    15    17    2
    17    12    18    1
    18    18    19    1
    19    19    20    1
    20    20    21    1
    21     8    21    1
    22    21    22    2
    23     1    23    1
    24     1    24    1
    25     1    25    1
    26     3    26    1
    27     3    27    1
    28     3    28    1
    29     4    29    1
    30     7    30    1
    31     7    31    1
    32     8    32    1
    33     9    33    1
    34    10    34    1
    35    10    35    1
    36    11    36    1
    37    11    37    1
    38    12    38    1
    39    13    39    1
    40    13    40    1
    41    16    41    1
    42    16    42    1
    43    16    43    1
    44    18    44    1
    45    18    45    1
    46    19    46    1
    47    19    47    1
    48    20    48    1
    49    20    49    1
    50    22    50    1
    51    22    51    1
