REMARK  Name = NuBBE_1263
REMARK  5 active torsions:
REMARK  status: ('A' for Active; 'I' for Inactive)
REMARK    1  A    between atoms: C_4  and  C_5
REMARK    2  A    between atoms: C_8  and  O_9
REMARK    3  A    between atoms: C_18  and  C_19
REMARK    4  A    between atoms: C_18  and  C_20
REMARK    5  A    between atoms: C_24  and  O_25
REMARK                            x       y       z     vdW  Elec       q    Type
REMARK                         _______ _______ _______ _____ _____    ______ ____
ROOT
ATOM      1  O   LIG A   1      -4.340  -1.074   0.091  0.00  0.00    -0.287 OA
ATOM      2  C   LIG A   1      -3.119  -0.991   0.048  0.00  0.00    +0.197 A 
ATOM      3  C   LIG A   1      -2.330  -2.234   0.018  0.00  0.00    +0.098 A 
ATOM      4  C   LIG A   1      -0.995  -2.167  -0.034  0.00  0.00    +0.139 A 
ATOM      5  O   LIG A   1      -0.281  -0.986  -0.046  0.00  0.00    -0.454 OA
ATOM      6  C   LIG A   1      -2.359   0.281   0.022  0.00  0.00    +0.106 A 
ATOM      7  C   LIG A   1      -0.960   0.212  -0.025  0.00  0.00    +0.153 A 
ATOM      8  C   LIG A   1      -0.183   1.387  -0.049  0.00  0.00    +0.060 A 
ATOM      9  C   LIG A   1       1.275   1.352  -0.109  0.00  0.00    +0.015 C 
ATOM     10  C   LIG A   1       1.941   2.510  -0.085  0.00  0.00    +0.020 C 
ATOM     11  C   LIG A   1       1.263   3.856  -0.001  0.00  0.00    +0.123 C 
ATOM     12  C   LIG A   1       1.649   4.540   1.315  0.00  0.00    +0.060 C 
ATOM     13  C   LIG A   1       1.710   4.722  -1.185  0.00  0.00    +0.060 C 
ATOM     14  O   LIG A   1      -0.178   3.830  -0.046  0.00  0.00    -0.481 OA
ATOM     15  C   LIG A   1      -0.825   2.627  -0.022  0.00  0.00    +0.136 A 
ATOM     16  C   LIG A   1      -2.218   2.701   0.020  0.00  0.00    +0.092 A 
ATOM     17  C   LIG A   1      -2.982   1.535   0.043  0.00  0.00    +0.135 A 
ENDROOT
BRANCH   4  18
ATOM     18  C   LIG A   1      -0.156  -3.381  -0.054  0.00  0.00    +0.018 A 
ATOM     19  C   LIG A   1       1.011  -3.440   0.726  0.00  0.00    +0.015 A 
ATOM     20  C   LIG A   1       1.827  -4.575   0.713  0.00  0.00    +0.046 A 
ATOM     21  C   LIG A   1       1.480  -5.656  -0.088  0.00  0.00    +0.117 A 
ATOM     22  C   LIG A   1       0.337  -5.618  -0.875  0.00  0.00    +0.046 A 
ATOM     23  C   LIG A   1      -0.478  -4.483  -0.862  0.00  0.00    +0.015 A 
BRANCH  21  24
ATOM     24  O   LIG A   1       2.245  -6.783  -0.133  0.00  0.00    -0.507 OA
ATOM     25  H   LIG A   1       3.000  -6.671   0.467  0.00  0.00    +0.292 HD
ENDBRANCH  21  24
ENDBRANCH   4  18
BRANCH  17  26
ATOM     26  O   LIG A   1      -4.342   1.645   0.086  0.00  0.00    -0.506 OA
ATOM     27  H   LIG A   1      -4.609   2.578   0.089  0.00  0.00    +0.292 HD
ENDBRANCH  17  26
TORSDOF 3
