REMARK  Name = NuBBE_1729
REMARK  16 active torsions:
REMARK  status: ('A' for Active; 'I' for Inactive)
REMARK    1  A    between atoms: C_1  and  C_2
REMARK    2  A    between atoms: C_5  and  C_6
REMARK    3  A    between atoms: C_11  and  C_12
REMARK    4  A    between atoms: C_11  and  C_13
REMARK    5  A    between atoms: C_14  and  O_18
REMARK    6  A    between atoms: O_18  and  C_19
REMARK    7  A    between atoms: C_19  and  C_21
REMARK    8  A    between atoms: C_26  and  C_27
REMARK    9  A    between atoms: C_30  and  C_32
REMARK   10  A    between atoms: C_32  and  C_33
REMARK   11  A    between atoms: C_35  and  C_39
REMARK   12  A    between atoms: C_39  and  O_40
REMARK   13  A    between atoms: C_39  and  C_44
REMARK   14  A    between atoms: C_39  and  C_45
REMARK   15  A    between atoms: O_40  and  C_41
REMARK   16  A    between atoms: C_41  and  C_43
REMARK                            x       y       z     vdW  Elec       q    Type
REMARK                         _______ _______ _______ _____ _____    ______ ____
ROOT
ATOM      1  C   LIG A   1      -2.081  -0.121   0.563  0.00  0.00    +0.012 C 
ATOM      2  C   LIG A   1      -1.078  -0.797  -0.427  0.00  0.00    -0.023 C 
ATOM      3  C   LIG A   1      -0.020  -1.700   0.304  0.00  0.00    +0.002 C 
ATOM      4  C   LIG A   1      -0.602  -2.942   1.104  0.00  0.00    -0.025 C 
ATOM      5  C   LIG A   1      -1.379  -2.481   2.357  0.00  0.00    +0.012 C 
ATOM      6  C   LIG A   1      -1.450  -3.797   0.093  0.00  0.00    +0.004 C 
ATOM      7  C   LIG A   1      -2.501  -2.945  -0.657  0.00  0.00    +0.005 C 
ATOM      8  C   LIG A   1      -1.901  -1.726  -1.362  0.00  0.00    +0.008 C 
ATOM      9  C   LIG A   1      -2.027  -5.143   0.667  0.00  0.00    +0.005 C 
ATOM     10  C   LIG A   1      -3.376  -4.934   1.400  0.00  0.00    +0.015 C 
ATOM     11  C   LIG A   1      -2.377  -6.085  -0.528  0.00  0.00    +0.015 C 
ATOM     12  C   LIG A   1      -0.953  -5.932   1.505  0.00  0.00    +0.182 C 
ATOM     13  C   LIG A   1       0.085  -5.126   2.292  0.00  0.00    +0.046 C 
ATOM     14  C   LIG A   1       0.563  -3.862   1.573  0.00  0.00    +0.011 C 
ATOM     15  C   LIG A   1       1.067  -0.893   1.046  0.00  0.00    +0.005 C 
ATOM     16  C   LIG A   1       0.946   0.625   1.001  0.00  0.00    +0.005 C 
ATOM     17  C   LIG A   1       0.571   1.244  -0.352  0.00  0.00    +0.001 C 
ATOM     18  C   LIG A   1      -0.297   0.314  -1.269  0.00  0.00    -0.023 C 
ATOM     19  C   LIG A   1       0.662  -0.280  -2.339  0.00  0.00    +0.012 C 
ATOM     20  C   LIG A   1      -1.259   1.268  -2.028  0.00  0.00    +0.008 C 
ATOM     21  C   LIG A   1      -0.849   2.679  -1.644  0.00  0.00    +0.007 C 
ATOM     22  C   LIG A   1      -0.217   2.577  -0.250  0.00  0.00    +0.024 C 
ENDROOT
BRANCH  22  23
ATOM     23  C   LIG A   1       0.583   3.850   0.182  0.00  0.00    +0.070 C 
ATOM     24  C   LIG A   1       1.152   3.679   1.598  0.00  0.00    +0.042 C 
ATOM     25  O   LIG A   1       1.693   4.095  -0.713  0.00  0.00    -0.366 OA
ATOM     26  C   LIG A   1       1.484   5.310  -1.480  0.00  0.00    +0.162 C 
ATOM     27  C   LIG A   1       0.038   5.724  -1.214  0.00  0.00    +0.038 C 
ATOM     28  C   LIG A   1      -0.287   5.111   0.126  0.00  0.00    +0.037 C 
BRANCH  26  29
ATOM     29  C   LIG A   1       2.568   6.391  -1.149  0.00  0.00    +0.134 C 
ATOM     30  C   LIG A   1       2.294   7.733  -1.853  0.00  0.00    +0.058 C 
ATOM     31  C   LIG A   1       2.661   6.681   0.355  0.00  0.00    +0.058 C 
BRANCH  29  32
ATOM     32  O   LIG A   1       3.910   5.894  -1.461  0.00  0.00    -0.456 OA
BRANCH  32  33
ATOM     33  C   LIG A   1       4.381   5.815  -2.728  0.00  0.00    +0.304 C 
ATOM     34  O   LIG A   1       3.788   6.155  -3.742  0.00  0.00    -0.251 OA
ATOM     35  C   LIG A   1       5.798   5.317  -2.721  0.00  0.00    +0.136 C 
ENDBRANCH  32  33
ENDBRANCH  29  32
ENDBRANCH  26  29
ENDBRANCH  22  23
BRANCH  12  36
ATOM     36  O   LIG A   1      -1.645  -6.866   2.374  0.00  0.00    -0.461 OA
BRANCH  36  37
ATOM     37  C   LIG A   1      -1.247  -8.157   2.353  0.00  0.00    +0.304 C 
ATOM     38  O   LIG A   1      -0.151  -8.554   1.939  0.00  0.00    -0.251 OA
ATOM     39  C   LIG A   1      -2.339  -9.076   2.801  0.00  0.00    +0.136 C 
ENDBRANCH  36  37
ENDBRANCH  12  36
TORSDOF 6
