REMARK  Name = NuBBE_106
REMARK  12 active torsions:
REMARK  status: ('A' for Active; 'I' for Inactive)
REMARK    1  A    between atoms: C_4  and  O_13
REMARK    2  A    between atoms: C_8  and  C_9
REMARK    3  A    between atoms: C_9  and  O_10
REMARK    4  A    between atoms: O_10  and  C_11
REMARK    5  A    between atoms: O_13  and  C_14
REMARK    6  A    between atoms: C_17  and  C_25
REMARK    7  A    between atoms: C_19  and  O_24
REMARK    8  A    between atoms: C_21  and  O_23
REMARK    9  A    between atoms: C_25  and  O_26
REMARK   10  A    between atoms: C_27  and  O_29
REMARK   11  A    between atoms: C_32  and  O_37
REMARK   12  A    between atoms: C_34  and  C_36
REMARK                            x       y       z     vdW  Elec       q    Type
REMARK                         _______ _______ _______ _____ _____    ______ ____
ROOT
ATOM      1  C   LIG A   1       0.947   1.853   0.593  0.00  0.00    +0.041 C 
ATOM      2  C   LIG A   1       1.036   1.002  -0.698  0.00  0.00    +0.071 C 
ATOM      3  C   LIG A   1       0.778  -0.474  -0.394  0.00  0.00    +0.313 C 
ATOM      4  O   LIG A   1       1.728  -0.979   0.554  0.00  0.00    -0.470 OA
ATOM      5  C   LIG A   1       1.860  -0.202   1.675  0.00  0.00    +0.201 C 
ATOM      6  C   LIG A   1       1.469   1.079   1.786  0.00  0.00    +0.074 C 
ATOM      7  C   LIG A   1       1.792   3.111   0.274  0.00  0.00    +0.040 C 
ATOM      8  C   LIG A   1       2.476   2.853  -1.075  0.00  0.00    +0.118 C 
ATOM      9  C   LIG A   1       2.439   1.333  -1.240  0.00  0.00    +0.024 C 
ATOM     10  C   LIG A   1       2.684   0.845  -2.660  0.00  0.00    +0.010 C 
ENDROOT
BRANCH   6  11
ATOM     11  C   LIG A   1       1.494   1.732   3.116  0.00  0.00    +0.338 C 
ATOM     12  O   LIG A   1       0.852   2.745   3.383  0.00  0.00    -0.245 OA
BRANCH  11  13
ATOM     13  O   LIG A   1       2.326   1.072   3.953  0.00  0.00    -0.465 OA
ATOM     14  C   LIG A   1       2.441   1.587   5.279  0.00  0.00    +0.280 C 
ENDBRANCH  11  13
ENDBRANCH   6  11
BRANCH   8  15
ATOM     15  O   LIG A   1       1.729   3.478  -2.114  0.00  0.00    -0.392 OA
ATOM     16  H   LIG A   1       1.746   4.437  -1.952  0.00  0.00    +0.210 HD
ENDBRANCH   8  15
BRANCH   3  17
ATOM     17  O   LIG A   1      -0.583  -0.570   0.055  0.00  0.00    -0.310 OA
BRANCH  17  18
ATOM     18  C   LIG A   1      -1.003  -1.899   0.342  0.00  0.00    +0.286 C 
ATOM     19  O   LIG A   1      -0.942  -2.746  -0.811  0.00  0.00    -0.340 OA
ATOM     20  C   LIG A   1      -1.984  -2.578  -1.782  0.00  0.00    +0.178 C 
ATOM     21  C   LIG A   1      -3.378  -2.694  -1.141  0.00  0.00    +0.177 C 
ATOM     22  C   LIG A   1      -3.545  -1.691   0.005  0.00  0.00    +0.179 C 
ATOM     23  C   LIG A   1      -2.402  -1.873   1.021  0.00  0.00    +0.201 C 
BRANCH  22  24
ATOM     24  O   LIG A   1      -3.615  -0.361  -0.507  0.00  0.00    -0.386 OA
ATOM     25  H   LIG A   1      -4.106   0.178   0.137  0.00  0.00    +0.210 HD
ENDBRANCH  22  24
BRANCH  21  26
ATOM     26  O   LIG A   1      -3.539  -4.024  -0.596  0.00  0.00    -0.387 OA
ATOM     27  H   LIG A   1      -3.458  -4.644  -1.344  0.00  0.00    +0.210 HD
ENDBRANCH  21  26
BRANCH  23  28
ATOM     28  O   LIG A   1      -2.618  -3.091   1.762  0.00  0.00    -0.384 OA
ATOM     29  H   LIG A   1      -2.860  -3.777   1.099  0.00  0.00    +0.210 HD
ENDBRANCH  23  28
BRANCH  20  30
ATOM     30  C   LIG A   1      -1.794  -1.335  -2.666  0.00  0.00    +0.190 C 
BRANCH  30  31
ATOM     31  O   LIG A   1      -2.840  -1.237  -3.628  0.00  0.00    -0.392 OA
ATOM     32  H   LIG A   1      -2.766  -0.353  -4.029  0.00  0.00    +0.209 HD
ENDBRANCH  30  31
ENDBRANCH  20  30
ENDBRANCH  17  18
ENDBRANCH   3  17
TORSDOF 10
