@<TRIPOS>MOLECULE
NuBBE_1877
 63 67 0 0 0
SMALL
GASTEIGER

@<TRIPOS>ATOM
      1 O          -1.5427   -3.6548    1.5259 O.2     1  LIG1       -0.2830
      2 C          -1.6631   -2.7815    0.7420 C.ar    1  LIG1        0.2382
      3 C          -2.9805   -2.5100    0.1674 C.ar    1  LIG1        0.1128
      4 C          -4.0175   -3.4214    0.3328 C.ar    1  LIG1        0.1767
      5 C          -5.2126   -3.2342   -0.3684 C.ar    1  LIG1        0.2018
      6 O          -6.2002   -4.1676   -0.1927 O.3     1  LIG1       -0.5009
      7 C          -5.3754   -2.1202   -1.2027 C.ar    1  LIG1        0.1685
      8 C          -4.3318   -1.1850   -1.2859 C.ar    1  LIG1        0.0270
      9 C          -3.1316   -1.3899   -0.6054 C.ar    1  LIG1        0.1468
     10 O          -2.1333   -0.4690   -0.7672 O.2     1  LIG1       -0.4505
     11 C          -0.7716   -0.8144   -0.4699 C.ar    1  LIG1        0.1845
     12 C           0.1405    0.3428   -0.9831 C.ar    1  LIG1        0.0672
     13 C           1.3706    0.9493   -0.4935 C.ar    1  LIG1        0.1848
     14 O           1.7391    1.1271    0.8697 O.3     1  LIG1       -0.4515
     15 C           0.8025    1.3038    1.8476 C.ar    1  LIG1        0.1286
     16 C          -0.4545    0.7756    1.7849 C.ar    1  LIG1       -0.0193
     17 C          -1.5736    1.3507    2.2715 C.ar    1  LIG1       -0.0583
     18 C          -1.3250    2.3181    3.1938 C.ar    1  LIG1       -0.0615
     19 C          -0.0173    2.4373    3.7108 C.ar    1  LIG1       -0.0583
     20 C           1.0761    1.8549    3.0625 C.ar    1  LIG1       -0.0193
     21 C           2.2673    1.5771   -1.4057 C.ar    1  LIG1        0.2124
     22 O           3.6926    1.5885   -1.4960 O.3     1  LIG1       -0.4486
     23 C           4.6175    0.8288   -0.7820 C.ar    1  LIG1        0.1288
     24 C           4.2371   -0.0034    0.2299 C.ar    1  LIG1       -0.0193
     25 C           5.0407   -0.5811    1.2037 C.ar    1  LIG1       -0.0583
     26 C           6.3957   -0.4635    1.0848 C.ar    1  LIG1       -0.0615
     27 C           6.8867    0.2249   -0.0243 C.ar    1  LIG1       -0.0583
     28 C           6.0087    0.8776   -0.9532 C.ar    1  LIG1       -0.0193
     29 C           1.6189    2.2469   -2.4535 C.ar    1  LIG1        0.1658
     30 C           0.3588    1.8301   -2.8983 C.ar    1  LIG1       -0.0154
     31 C          -0.3419    0.8599   -2.1974 C.ar    1  LIG1       -0.0437
     32 O           2.0718    3.4125   -3.0279 O.3     1  LIG1       -0.4913
     33 C           2.8234    4.2362   -2.1245 C.3     1  LIG1        0.0790
     34 C          -0.5040   -1.9281    0.2766 C.ar    1  LIG1        0.2108
     35 O           0.6295   -2.4244    0.8987 O.3     1  LIG1       -0.4883
     36 C           1.6159   -1.5558    1.3718 C.3     1  LIG1        0.0791
     37 O          -6.5301   -1.9951   -1.9361 O.3     1  LIG1       -0.4912
     38 C          -6.8548   -0.6558   -2.3157 C.3     1  LIG1        0.0790
     39 O          -3.9276   -4.5345    1.1327 O.3     1  LIG1       -0.5027
     40 H          -5.8489   -4.7786    0.4906 H       1  LIG1        0.2924
     41 H          -4.4184   -0.3102   -1.9191 H       1  LIG1        0.0692
     42 H          -0.5709   -0.2251    1.4944 H       1  LIG1        0.0654
     43 H          -2.5300    1.0104    1.8919 H       1  LIG1        0.0619
     44 H          -2.1518    2.9169    3.5322 H       1  LIG1        0.0618
     45 H           0.1570    3.0632    4.5740 H       1  LIG1        0.0619
     46 H           2.0852    1.8899    3.4622 H       1  LIG1        0.0654
     47 H           3.2255   -0.2266    0.2666 H       1  LIG1        0.0654
     48 H           4.5756   -1.0999    2.0346 H       1  LIG1        0.0619
     49 H           7.0297   -0.9208    1.8392 H       1  LIG1        0.0618
     50 H           7.9682    0.2757   -0.1352 H       1  LIG1        0.0619
     51 H           6.4719    1.4077   -1.7819 H       1  LIG1        0.0654
     52 H          -0.0854    2.2220   -3.8100 H       1  LIG1        0.0655
     53 H          -1.3082    0.5530   -2.5990 H       1  LIG1        0.0627
     54 H           2.7786    5.2732   -2.4707 H       1  LIG1        0.0660
     55 H           3.8685    3.9223   -2.1513 H       1  LIG1        0.0660
     56 H           2.4439    4.2278   -1.0914 H       1  LIG1        0.0660
     57 H           1.3634   -0.9864    2.2714 H       1  LIG1        0.0660
     58 H           1.7839   -0.9801    0.5051 H       1  LIG1        0.0660
     59 H           2.5628   -2.0368    1.6030 H       1  LIG1        0.0660
     60 H          -7.8690   -0.6390   -2.7216 H       1  LIG1        0.0660
     61 H          -6.1873   -0.2795   -3.1016 H       1  LIG1        0.0660
     62 H          -6.8290    0.0055   -1.4420 H       1  LIG1        0.0660
     63 H          -3.0193   -4.5370    1.5349 H       1  LIG1        0.2923
@<TRIPOS>BOND
     1     1     2    2
     2     2     3   ar
     3     3     4   ar
     4     4     5   ar
     5     5     6    1
     6     5     7   ar
     7     7     8   ar
     8     8     9   ar
     9     3     9   ar
    10     9    10   ar
    11    10    11   ar
    12    11    12    1
    13    12    13   ar
    14    13    14    1
    15    14    15    1
    16    15    16   ar
    17    16    17   ar
    18    17    18   ar
    19    18    19   ar
    20    19    20   ar
    21    15    20   ar
    22    13    21   ar
    23    21    22    1
    24    22    23    1
    25    23    24   ar
    26    24    25   ar
    27    25    26   ar
    28    26    27   ar
    29    27    28   ar
    30    23    28   ar
    31    21    29   ar
    32    29    30   ar
    33    30    31   ar
    34    12    31   ar
    35    29    32    1
    36    32    33    1
    37    11    34   ar
    38     2    34   ar
    39    34    35    1
    40    35    36    1
    41     7    37    1
    42    37    38    1
    43     4    39    1
    44     6    40    1
    45     8    41    1
    46    16    42    1
    47    17    43    1
    48    18    44    1
    49    19    45    1
    50    20    46    1
    51    24    47    1
    52    25    48    1
    53    26    49    1
    54    27    50    1
    55    28    51    1
    56    30    52    1
    57    31    53    1
    58    33    54    1
    59    33    55    1
    60    33    56    1
    61    36    57    1
    62    36    58    1
    63    36    59    1
    64    38    60    1
    65    38    61    1
    66    38    62    1
    67    39    63    1
