@<TRIPOS>MOLECULE
NuBBE_1630
 61 62 0 0 0
SMALL
GASTEIGER

@<TRIPOS>ATOM
      1 C          -3.2220   -0.3847    1.0495 C.3     1  LIG1       -0.0215
      2 C          -2.1329   -0.2909    0.0015 C.2     1  LIG1       -0.0841
      3 C          -2.2198   -0.4460   -1.3352 C.2     1  LIG1       -0.0762
      4 C          -0.9626   -0.3559   -2.1854 C.3     1  LIG1       -0.0286
      5 C          -0.7458    1.0526   -2.7448 C.3     1  LIG1       -0.0308
      6 C           0.4795    1.1359   -3.6121 C.2     1  LIG1       -0.0847
      7 C           1.7205    1.4744   -3.2093 C.2     1  LIG1       -0.0762
      8 C           2.8317    1.5545   -4.2567 C.3     1  LIG1       -0.0286
      9 C           4.1063    2.3304   -3.8765 C.3     1  LIG1       -0.0308
     10 C           4.8780    1.9112   -2.6431 C.2     1  LIG1       -0.0850
     11 C           5.0148    0.6988   -2.0650 C.2     1  LIG1       -0.0796
     12 C           4.5386   -0.6242   -2.5985 C.3     1  LIG1       -0.0440
     13 C           5.6170    0.5705   -0.6890 C.3     1  LIG1       -0.0440
     14 C           2.0343    1.7576   -1.7588 C.3     1  LIG1       -0.0438
     15 C          -3.4812   -0.7031   -2.1071 C.3     1  LIG1       -0.0438
     16 C          -2.7620   -0.8562    2.4745 C.3     1  LIG1        0.0459
     17 C          -3.9863   -0.9467    3.3948 C.3     1  LIG1       -0.0000
     18 C          -3.5272   -1.3937    4.7686 C.3     1  LIG1        0.1301
     19 H          -4.3906   -1.5621    5.4239 H       1  LIG1        0.0760
     20 C          -2.5964   -0.3537    5.4067 C.3     1  LIG1        0.0987
     21 H          -3.1636    0.5714    5.5641 H       1  LIG1        0.0634
     22 C          -1.3777   -0.0470    4.5517 C.3     1  LIG1        0.0359
     23 C          -1.7570    0.1419    3.1018 C.2     1  LIG1        0.1429
     24 O          -1.1877    1.0182    2.4497 O.2     1  LIG1       -0.2967
     25 O          -2.1595   -0.8092    6.6871 O.3     1  LIG1       -0.3877
     26 O          -2.8335   -2.6673    4.7104 O.3     1  LIG1       -0.4587
     27 C          -1.9602   -2.9536    3.7283 C.2     1  LIG1        0.3084
     28 O          -1.0974   -3.8351    3.8948 O.2     1  LIG1       -0.2508
     29 C          -2.1218   -2.2482    2.4138 C.3     1  LIG1        0.0576
     30 H          -3.9970   -1.0753    0.6911 H       1  LIG1        0.0317
     31 H          -3.6933    0.6030    1.1394 H       1  LIG1        0.0317
     32 H          -1.1448   -0.0317    0.3820 H       1  LIG1        0.0572
     33 H          -1.0253   -1.0859   -3.0023 H       1  LIG1        0.0313
     34 H          -0.0898   -0.6585   -1.5896 H       1  LIG1        0.0313
     35 H          -0.7000    1.7809   -1.9281 H       1  LIG1        0.0310
     36 H          -1.6025    1.3637   -3.3523 H       1  LIG1        0.0310
     37 H           0.3155    0.9032   -4.6634 H       1  LIG1        0.0572
     38 H           2.4226    2.0329   -5.1584 H       1  LIG1        0.0313
     39 H           3.0852    0.5551   -4.6149 H       1  LIG1        0.0313
     40 H           3.7946    3.3757   -3.7288 H       1  LIG1        0.0310
     41 H           4.7999    2.3515   -4.7254 H       1  LIG1        0.0310
     42 H           5.2715    2.7733   -2.0979 H       1  LIG1        0.0572
     43 H           4.0879   -0.5872   -3.5810 H       1  LIG1        0.0274
     44 H           3.8001   -1.0657   -1.9201 H       1  LIG1        0.0274
     45 H           5.3834   -1.3093   -2.6979 H       1  LIG1        0.0274
     46 H           5.9795    1.5225   -0.2908 H       1  LIG1        0.0274
     47 H           6.4507   -0.1361   -0.7105 H       1  LIG1        0.0274
     48 H           4.8597    0.1905    0.0085 H       1  LIG1        0.0274
     49 H           1.1591    1.9519   -1.1399 H       1  LIG1        0.0274
     50 H           2.6526    2.6517   -1.6509 H       1  LIG1        0.0274
     51 H           2.5325    0.8998   -1.2994 H       1  LIG1        0.0274
     52 H          -3.5176   -1.7512   -2.4184 H       1  LIG1        0.0274
     53 H          -3.5135   -0.0832   -3.0111 H       1  LIG1        0.0274
     54 H          -4.3806   -0.4709   -1.5321 H       1  LIG1        0.0274
     55 H          -4.7051   -1.6723    2.9924 H       1  LIG1        0.0311
     56 H          -4.5016    0.0190    3.4732 H       1  LIG1        0.0311
     57 H          -0.6129   -0.8276    4.6222 H       1  LIG1        0.0368
     58 H          -0.9038    0.8727    4.9157 H       1  LIG1        0.0368
     59 H          -1.8751   -1.7399    6.5940 H       1  LIG1        0.2100
     60 H          -2.7409   -2.9152    1.7990 H       1  LIG1        0.0387
     61 H          -1.1266   -2.1771    1.9563 H       1  LIG1        0.0387
@<TRIPOS>BOND
     1     1     2    1
     2     2     3    2
     3     3     4    1
     4     4     5    1
     5     5     6    1
     6     6     7    2
     7     7     8    1
     8     8     9    1
     9     9    10    1
    10    10    11    2
    11    11    12    1
    12    11    13    1
    13     7    14    1
    14     3    15    1
    15     1    16    1
    16    16    17    1
    17    17    18    1
    18    18    19    1
    19    18    20    1
    20    20    22    1
    21    22    23    1
    22    16    23    1
    23    23    24    2
    24    18    26    1
    25    26    27    1
    26    27    28    2
    27    27    29    1
    28    16    29    1
    29    20    25    1
    30    20    21    1
    31     1    30    1
    32     1    31    1
    33     2    32    1
    34     4    33    1
    35     4    34    1
    36     5    35    1
    37     5    36    1
    38     6    37    1
    39     8    38    1
    40     8    39    1
    41     9    40    1
    42     9    41    1
    43    10    42    1
    44    12    43    1
    45    12    44    1
    46    12    45    1
    47    13    46    1
    48    13    47    1
    49    13    48    1
    50    14    49    1
    51    14    50    1
    52    14    51    1
    53    15    52    1
    54    15    53    1
    55    15    54    1
    56    17    55    1
    57    17    56    1
    58    22    57    1
    59    22    58    1
    60    25    59    1
    61    29    60    1
    62    29    61    1
