REMARK  Name = NuBBE_1836
REMARK  12 active torsions:
REMARK  status: ('A' for Active; 'I' for Inactive)
REMARK    1  A    between atoms: O_1  and  C_2
REMARK    2  A    between atoms: O_1  and  C_3
REMARK    3  A    between atoms: C_6  and  C_23
REMARK    4  A    between atoms: C_8  and  C_11
REMARK    5  A    between atoms: C_13  and  O_14
REMARK    6  A    between atoms: O_14  and  C_15
REMARK    7  A    between atoms: C_16  and  O_21
REMARK    8  A    between atoms: C_17  and  O_19
REMARK    9  A    between atoms: O_19  and  C_20
REMARK   10  A    between atoms: O_21  and  C_22
REMARK   11  A    between atoms: C_25  and  C_27
REMARK   12  A    between atoms: C_28  and  C_29
REMARK                            x       y       z     vdW  Elec       q    Type
REMARK                         _______ _______ _______ _____ _____    ______ ____
ROOT
ATOM      1  C   LIG A   1      -1.813   2.251   1.276  0.00  0.00    +0.162 A 
ATOM      2  C   LIG A   1      -0.993   1.137   1.412  0.00  0.00    +0.166 A 
ATOM      3  C   LIG A   1       0.376   1.251   1.570  0.00  0.00    +0.005 A 
ATOM      4  C   LIG A   1       1.008  -0.092   1.646  0.00  0.00    +0.065 C 
ATOM      5  C   LIG A   1      -0.243  -0.996   1.529  0.00  0.00    +0.211 C 
ATOM      6  O   LIG A   1      -1.432  -0.163   1.394  0.00  0.00    -0.480 OA
ATOM      7  C   LIG A   1       1.768  -0.316   2.949  0.00  0.00    +0.016 C 
ATOM      8  C   LIG A   1       0.985   2.496   1.610  0.00  0.00    +0.015 A 
ATOM      9  C   LIG A   1       0.191   3.646   1.478  0.00  0.00    -0.021 A 
ATOM     10  C   LIG A   1      -1.200   3.514   1.329  0.00  0.00    +0.057 A 
ENDROOT
BRANCH   5  11
ATOM     11  C   LIG A   1      -0.166  -1.967   0.360  0.00  0.00    +0.000 A 
ATOM     12  C   LIG A   1       0.384  -3.243   0.522  0.00  0.00    +0.057 A 
ATOM     13  C   LIG A   1       0.388  -4.185  -0.525  0.00  0.00    +0.166 A 
ATOM     14  C   LIG A   1      -0.129  -3.832  -1.790  0.00  0.00    +0.203 A 
ATOM     15  C   LIG A   1      -0.657  -2.533  -1.968  0.00  0.00    +0.166 A 
ATOM     16  C   LIG A   1      -0.670  -1.625  -0.899  0.00  0.00    +0.057 A 
BRANCH  13  17
ATOM     17  O   LIG A   1       0.918  -5.384  -0.115  0.00  0.00    -0.491 OA
ATOM     18  C   LIG A   1       0.966  -6.481  -1.015  0.00  0.00    +0.277 C 
ENDBRANCH  13  17
BRANCH  15  19
ATOM     19  O   LIG A   1      -1.246  -2.221  -3.168  0.00  0.00    -0.491 OA
ATOM     20  C   LIG A   1      -1.268  -0.847  -3.536  0.00  0.00    +0.277 C 
ENDBRANCH  15  19
BRANCH  14  21
ATOM     21  O   LIG A   1      -0.150  -4.806  -2.756  0.00  0.00    -0.488 OA
ATOM     22  C   LIG A   1      -0.041  -4.414  -4.118  0.00  0.00    +0.277 C 
ENDBRANCH  14  21
ENDBRANCH   5  11
BRANCH   9  23
ATOM     23  C   LIG A   1       0.774   4.998   1.526  0.00  0.00    +0.003 C 
ATOM     24  C   LIG A   1       2.007   5.293   1.099  0.00  0.00    -0.030 C 
ATOM     25  C   LIG A   1       2.622   6.660   1.125  0.00  0.00    +0.035 C 
ENDBRANCH   9  23
BRANCH   1  26
ATOM     26  O   LIG A   1      -3.147   2.026   1.083  0.00  0.00    -0.491 OA
ATOM     27  C   LIG A   1      -3.973   3.176   0.932  0.00  0.00    +0.277 C 
ENDBRANCH   1  26
TORSDOF 6
