@<TRIPOS>MOLECULE
NuBBE_2225
 26 27 0 0 0
SMALL
GASTEIGER

@<TRIPOS>ATOM
      1 C           1.1849    1.4006    0.1280 C.ar    1  LIG1       -0.0572
      2 C           2.3821    0.6902    0.0849 C.ar    1  LIG1       -0.0551
      3 C           2.3812   -0.7091    0.0113 C.ar    1  LIG1       -0.0082
      4 C           1.1468   -1.3862   -0.0198 C.ar    1  LIG1        0.1340
      5 O           1.1222   -2.7517   -0.1047 O.3     1  LIG1       -0.5057
      6 C          -0.0726   -0.6797    0.0359 C.ar    1  LIG1        0.1038
      7 C          -0.0414    0.7263    0.0990 C.ar    1  LIG1       -0.0264
      8 C          -1.3154    1.5113    0.2118 C.3     1  LIG1        0.0102
      9 C          -2.4572    0.7136   -0.3928 C.3     1  LIG1        0.1046
     10 O          -2.4983   -0.6016    0.1788 O.3     1  LIG1       -0.4577
     11 C          -1.3934   -1.3955    0.1001 C.2     1  LIG1        0.3433
     12 O          -1.5168   -2.6114    0.1523 O.2     1  LIG1       -0.2448
     13 C          -3.7978    1.3766   -0.1018 C.3     1  LIG1       -0.0274
     14 C           3.6996   -1.4319   -0.0119 C.3     1  LIG1       -0.0362
     15 H           1.2158    2.4864    0.1986 H       1  LIG1        0.0621
     16 H           3.3205    1.2403    0.1171 H       1  LIG1        0.0621
     17 H           2.0120   -3.1286   -0.0630 H       1  LIG1        0.2922
     18 H          -1.2242    2.4722   -0.3085 H       1  LIG1        0.0349
     19 H          -1.4941    1.7097    1.2755 H       1  LIG1        0.0349
     20 H          -2.3388    0.6060   -1.4784 H       1  LIG1        0.0734
     21 H          -3.9542    1.4869    0.9777 H       1  LIG1        0.0265
     22 H          -4.6216    0.7576   -0.4733 H       1  LIG1        0.0265
     23 H          -3.8615    2.3649   -0.5665 H       1  LIG1        0.0265
     24 H           4.5440   -0.7350    0.0179 H       1  LIG1        0.0279
     25 H           3.7923   -2.0231   -0.9283 H       1  LIG1        0.0279
     26 H           3.7860   -2.0888    0.8599 H       1  LIG1        0.0279
@<TRIPOS>BOND
     1     1     2   ar
     2     2     3   ar
     3     3     4   ar
     4     4     5    1
     5     4     6   ar
     6     6     7   ar
     7     1     7   ar
     8     7     8    1
     9     8     9    1
    10     9    10    1
    11    10    11    1
    12     6    11    1
    13    11    12    2
    14     9    13    1
    15     3    14    1
    16     1    15    1
    17     2    16    1
    18     5    17    1
    19     8    18    1
    20     8    19    1
    21     9    20    1
    22    13    21    1
    23    13    22    1
    24    13    23    1
    25    14    24    1
    26    14    25    1
    27    14    26    1
