@<TRIPOS>MOLECULE
NuBBE_1331
 42 42 0 0 0
SMALL
GASTEIGER

@<TRIPOS>ATOM
      1 C          -3.3016   -2.1188    0.3673 C.2     1  LIG1       -0.1021
      2 C          -2.5174   -1.5275   -0.5511 C.2     1  LIG1       -0.0846
      3 C          -0.9699   -1.4909   -0.5877 C.3     1  LIG1       -0.0078
      4 C          -0.5100   -0.1463   -1.2822 C.3     1  LIG1       -0.0113
      5 H          -1.2147   -0.0198   -2.1211 H       1  LIG1        0.0354
      6 C           0.8481   -0.0501   -2.0049 C.2     1  LIG1       -0.0758
      7 C           0.8870    0.9201   -3.1651 C.3     1  LIG1       -0.0437
      8 C           1.9577   -0.7581   -1.7339 C.2     1  LIG1       -0.0994
      9 C          -0.7731    1.0805   -0.3582 C.3     1  LIG1       -0.0403
     10 C          -0.3664    0.9857    1.1384 C.3     1  LIG1       -0.0121
     11 H          -1.0263    1.6968    1.6606 H       1  LIG1        0.0328
     12 C          -0.7382   -0.3938    1.7124 C.3     1  LIG1       -0.0468
     13 C          -0.3491   -1.5764    0.8269 C.3     1  LIG1       -0.0433
     14 C           1.0760    1.4810    1.4917 C.3     1  LIG1        0.0633
     15 O           2.0467    0.7035    0.8070 O.3     1  LIG1       -0.3888
     16 C           1.2654    2.9580    1.1034 C.3     1  LIG1       -0.0361
     17 C           1.3901    1.3414    2.9907 C.3     1  LIG1       -0.0361
     18 C          -0.5844   -2.7380   -1.4130 C.3     1  LIG1       -0.0556
     19 H          -4.3806   -2.0833    0.2745 H       1  LIG1        0.0532
     20 H          -2.8994   -2.6550    1.2168 H       1  LIG1        0.0532
     21 H          -3.0252   -1.0483   -1.3873 H       1  LIG1        0.0572
     22 H           1.8758    0.9654   -3.6353 H       1  LIG1        0.0274
     23 H           0.6396    1.9335   -2.8368 H       1  LIG1        0.0274
     24 H           0.1719    0.6170   -3.9369 H       1  LIG1        0.0274
     25 H           2.8685   -0.6321   -2.3112 H       1  LIG1        0.0534
     26 H           2.0245   -1.4550   -0.9095 H       1  LIG1        0.0534
     27 H          -1.8621    1.2397   -0.3644 H       1  LIG1        0.0275
     28 H          -0.3767    1.9936   -0.8103 H       1  LIG1        0.0275
     29 H          -1.8233   -0.4010    1.8711 H       1  LIG1        0.0269
     30 H          -0.3262   -0.5457    2.7132 H       1  LIG1        0.0269
     31 H          -0.6518   -2.5065    1.3243 H       1  LIG1        0.0274
     32 H           0.7413   -1.6311    0.7740 H       1  LIG1        0.0274
     33 H           2.9068    1.1505    0.8750 H       1  LIG1        0.2101
     34 H           1.2365    3.1045    0.0200 H       1  LIG1        0.0257
     35 H           2.2503    3.3225    1.4195 H       1  LIG1        0.0257
     36 H           0.5055    3.5944    1.5696 H       1  LIG1        0.0257
     37 H           1.5386    0.2938    3.2743 H       1  LIG1        0.0257
     38 H           0.6018    1.7759    3.6131 H       1  LIG1        0.0257
     39 H           2.3353    1.8383    3.2399 H       1  LIG1        0.0257
     40 H          -0.8704   -2.6231   -2.4653 H       1  LIG1        0.0238
     41 H          -1.0856   -3.6379   -1.0341 H       1  LIG1        0.0238
     42 H           0.4848   -2.9571   -1.3755 H       1  LIG1        0.0238
@<TRIPOS>BOND
     1     1     2    2
     2     2     3    1
     3     3     4    1
     4     6     7    1
     5     6     8    2
     6     4     9    1
     7     9    10    1
     8    10    11    1
     9    10    12    1
    10    12    13    1
    11     3    13    1
    12    10    14    1
    13    14    15    1
    14    14    16    1
    15    14    17    1
    16     3    18    1
    17     4     6    1
    18     4     5    1
    19     1    19    1
    20     1    20    1
    21     2    21    1
    22     7    22    1
    23     7    23    1
    24     7    24    1
    25     8    25    1
    26     8    26    1
    27     9    27    1
    28     9    28    1
    29    12    29    1
    30    12    30    1
    31    13    31    1
    32    13    32    1
    33    15    33    1
    34    16    34    1
    35    16    35    1
    36    16    36    1
    37    17    37    1
    38    17    38    1
    39    17    39    1
    40    18    40    1
    41    18    41    1
    42    18    42    1
