REMARK  Name = NuBBE_876
REMARK  10 active torsions:
REMARK  status: ('A' for Active; 'I' for Inactive)
REMARK    1  A    between atoms: O_1  and  C_2
REMARK    2  A    between atoms: C_6  and  C_7
REMARK    3  A    between atoms: C_6  and  C_8
REMARK    4  A    between atoms: C_12  and  O_13
REMARK    5  A    between atoms: C_14  and  C_15
REMARK    6  A    between atoms: C_15  and  C_16
REMARK    7  A    between atoms: C_16  and  C_17
REMARK    8  A    between atoms: C_17  and  C_18
REMARK    9  A    between atoms: C_23  and  C_24
REMARK   10  A    between atoms: C_23  and  C_25
REMARK                            x       y       z     vdW  Elec       q    Type
REMARK                         _______ _______ _______ _____ _____    ______ ____
ROOT
ATOM      1  C   LIG A   1      -2.235   2.830  -1.301  0.00  0.00    +0.138 A 
ATOM      2  C   LIG A   1      -3.637   2.973  -1.254  0.00  0.00    +0.037 A 
ATOM      3  C   LIG A   1      -4.367   2.084  -0.464  0.00  0.00    +0.131 A 
ATOM      4  O   LIG A   1      -5.727   2.117  -0.313  0.00  0.00    -0.486 OA
ATOM      5  C   LIG A   1      -6.389   3.330  -0.701  0.00  0.00    +0.105 C 
ATOM      6  C   LIG A   1      -6.260   4.357   0.435  0.00  0.00    +0.055 C 
ATOM      7  C   LIG A   1      -7.872   2.962  -0.858  0.00  0.00    +0.055 C 
ATOM      8  C   LIG A   1      -5.854   3.839  -2.045  0.00  0.00    +0.052 C 
ATOM      9  C   LIG A   1      -4.349   4.074  -1.994  0.00  0.00    +0.046 C 
ATOM     10  C   LIG A   1      -3.729   1.065   0.237  0.00  0.00    +0.092 A 
ATOM     11  C   LIG A   1      -2.338   0.948   0.201  0.00  0.00    +0.134 A 
ATOM     12  C   LIG A   1      -1.562   1.831  -0.560  0.00  0.00    +0.101 A 
ENDROOT
BRANCH   1  13
ATOM     13  O   LIG A   1      -1.516   3.652  -2.129  0.00  0.00    -0.505 OA
ATOM     14  H   LIG A   1      -1.850   4.560  -2.038  0.00  0.00    +0.292 HD
ENDBRANCH   1  13
BRANCH  11  15
ATOM     15  O   LIG A   1      -1.768  -0.026   0.973  0.00  0.00    -0.506 OA
ATOM     16  H   LIG A   1      -2.460  -0.561   1.396  0.00  0.00    +0.292 HD
ENDBRANCH  11  15
BRANCH  12  17
ATOM     17  C   LIG A   1      -0.062   1.810  -0.518  0.00  0.00    +0.171 C 
ATOM     18  O   LIG A   1       0.557   2.876  -0.558  0.00  0.00    -0.292 OA
BRANCH  17  19
ATOM     19  C   LIG A   1       0.672   0.480  -0.394  0.00  0.00    +0.084 C 
BRANCH  19  20
ATOM     20  C   LIG A   1       2.191   0.663  -0.454  0.00  0.00    +0.043 C 
BRANCH  20  21
ATOM     21  C   LIG A   1       2.922  -0.653  -0.312  0.00  0.00    -0.046 A 
ATOM     22  C   LIG A   1       3.257  -1.397  -1.447  0.00  0.00    +0.007 A 
ATOM     23  C   LIG A   1       3.936  -2.610  -1.321  0.00  0.00    +0.046 A 
ATOM     24  C   LIG A   1       4.284  -3.094  -0.061  0.00  0.00    +0.124 A 
ATOM     25  O   LIG A   1       4.967  -4.281  -0.048  0.00  0.00    -0.486 OA
ATOM     26  C   LIG A   1       5.591  -4.647   1.196  0.00  0.00    +0.105 C 
ATOM     27  C   LIG A   1       6.940  -3.920   1.319  0.00  0.00    +0.055 C 
ATOM     28  C   LIG A   1       5.863  -6.156   1.105  0.00  0.00    +0.055 C 
ATOM     29  C   LIG A   1       4.656  -4.381   2.384  0.00  0.00    +0.052 C 
ATOM     30  C   LIG A   1       4.264  -2.910   2.454  0.00  0.00    +0.043 C 
ATOM     31  C   LIG A   1       3.923  -2.386   1.089  0.00  0.00    -0.005 A 
ATOM     32  C   LIG A   1       3.260  -1.155   0.954  0.00  0.00    +0.010 A 
ENDBRANCH  20  21
ENDBRANCH  19  20
ENDBRANCH  17  19
ENDBRANCH  12  17
TORSDOF 6
