REMARK  Name = NuBBE_2366
REMARK  6 active torsions:
REMARK  status: ('A' for Active; 'I' for Inactive)
REMARK    1  A    between atoms: C_2  and  C_3
REMARK    2  A    between atoms: C_10  and  O_11
REMARK    3  A    between atoms: C_12  and  O_13
REMARK    4  A    between atoms: O_13  and  C_14
REMARK    5  A    between atoms: C_15  and  O_16
REMARK    6  A    between atoms: O_16  and  C_17
REMARK                            x       y       z     vdW  Elec       q    Type
REMARK                         _______ _______ _______ _____ _____    ______ ____
ROOT
ATOM      1  O   LIG A   1      -3.032   3.616   0.171  0.00  0.00    -0.276 OA
ATOM      2  C   LIG A   1      -2.800   2.575   0.819  0.00  0.00    +0.217 C 
ATOM      3  C   LIG A   1      -3.711   2.233   1.963  0.00  0.00    +0.110 C 
ATOM      4  N   LIG A   1      -1.772   1.732   0.510  0.00  0.00    -0.264 N 
ATOM      5  C   LIG A   1      -1.344   0.457   1.092  0.00  0.00    +0.096 C 
ATOM      6  C   LIG A   1      -0.853  -0.436  -0.072  0.00  0.00    +0.061 C 
ATOM      7  C   LIG A   1      -0.109   0.735  -0.759  0.00  0.00    -0.007 A 
ATOM      8  C   LIG A   1      -0.737   1.972  -0.453  0.00  0.00    +0.086 A 
ATOM      9  C   LIG A   1      -0.260   3.172  -0.989  0.00  0.00    +0.184 A 
ATOM     10  C   LIG A   1       0.839   3.145  -1.878  0.00  0.00    +0.205 A 
ATOM     11  C   LIG A   1       1.348   1.904  -2.305  0.00  0.00    +0.166 A 
ATOM     12  C   LIG A   1       0.852   0.721  -1.754  0.00  0.00    +0.056 A 
ATOM     13  C   LIG A   1      -0.485  -1.832   0.543  0.00  0.00    +0.140 C 
ATOM     14  O   LIG A   1      -1.736  -2.556   0.824  0.00  0.00    -0.357 OA
ATOM     15  C   LIG A   1      -1.479  -3.619   1.749  0.00  0.00    +0.163 C 
ATOM     16  C   LIG A   1      -0.102  -3.365   2.317  0.00  0.00    +0.039 C 
ATOM     17  C   LIG A   1       0.159  -1.901   1.923  0.00  0.00    +0.017 C 
ATOM     18  C   LIG A   1      -0.619  -1.002   2.952  0.00  0.00    +0.013 C 
ATOM     19  C   LIG A   1      -1.831  -0.215   2.360  0.00  0.00    +0.025 C 
ATOM     20  C   LIG A   1       1.653  -1.590   1.813  0.00  0.00    +0.012 C 
ATOM     21  C   LIG A   1       2.325  -2.446   0.725  0.00  0.00    +0.016 C 
ATOM     22  C   LIG A   1       1.581  -2.425  -0.625  0.00  0.00    +0.087 C 
ATOM     23  N   LIG A   1       0.131  -2.573  -0.540  0.00  0.00    -0.274 NA
ATOM     24  C   LIG A   1      -0.688  -2.188  -1.717  0.00  0.00    +0.088 C 
ATOM     25  C   LIG A   1      -1.638  -1.010  -1.269  0.00  0.00    +0.033 C 
ENDROOT
BRANCH   9  26
ATOM     26  O   LIG A   1      -0.759   4.385  -0.599  0.00  0.00    -0.502 OA
ATOM     27  H   LIG A   1      -1.707   4.253  -0.378  0.00  0.00    +0.292 HD
ENDBRANCH   9  26
BRANCH  10  28
ATOM     28  O   LIG A   1       1.326   4.364  -2.294  0.00  0.00    -0.488 OA
ATOM     29  C   LIG A   1       2.705   4.412  -2.659  0.00  0.00    +0.277 C 
ENDBRANCH  10  28
BRANCH  11  30
ATOM     30  O   LIG A   1       2.253   1.870  -3.340  0.00  0.00    -0.491 OA
ATOM     31  C   LIG A   1       3.183   0.789  -3.331  0.00  0.00    +0.277 C 
ENDBRANCH  11  30
TORSDOF 3
