@<TRIPOS>MOLECULE
NuBBE_933
 36 39 0 0 0
SMALL
GASTEIGER

@<TRIPOS>ATOM
      1 C           0.2723    2.9655    0.5478 C.3     1  LIG1       -0.0325
      2 C           1.4080    2.4939   -0.2786 C.2     1  LIG1        0.0411
      3 C           1.8454    1.2826   -0.6304 C.2     1  LIG1        0.0199
      4 C           1.4026   -0.0828   -0.3382 C.ar    1  LIG1        0.0668
      5 C           0.0665   -0.4912   -0.2139 C.ar    1  LIG1        0.1501
      6 C          -0.2801   -1.8185    0.0495 C.ar    1  LIG1        0.0187
      7 C           0.7268   -2.7766    0.1727 C.ar    1  LIG1       -0.0476
      8 C           2.0625   -2.4067    0.0126 C.ar    1  LIG1       -0.0185
      9 C           2.4003   -1.0751   -0.2445 C.ar    1  LIG1        0.1318
     10 O           3.7469   -0.8496   -0.4346 O.3     1  LIG1       -0.4872
     11 C           4.1373    0.5310   -0.4952 C.3     1  LIG1        0.1307
     12 C           3.1593    1.3715   -1.3052 C.3     1  LIG1        0.1633
     13 O           3.4847    2.7534   -1.2834 O.3     1  LIG1       -0.4498
     14 C           2.4431    3.4395   -0.7344 C.2     1  LIG1        0.3360
     15 O           2.4021    4.6488   -0.5994 O.2     1  LIG1       -0.2453
     16 C          -1.6837   -2.1789    0.1761 C.ar    1  LIG1       -0.0411
     17 C          -2.6487   -1.2599    0.0238 C.ar    1  LIG1        0.0374
     18 C          -2.3104    0.1465   -0.3112 C.ar    1  LIG1        0.3404
     19 O          -3.1729    1.0001   -0.4829 O.2     1  LIG1       -0.2449
     20 O          -0.9603    0.4547   -0.4207 O.2     1  LIG1       -0.4212
     21 C          -4.1112   -1.6002    0.1368 C.3     1  LIG1       -0.0237
     22 C          -4.7031   -1.1668    1.4711 C.3     1  LIG1       -0.0610
     23 H          -0.5546    3.2936   -0.0891 H       1  LIG1        0.0280
     24 H           0.5705    3.8098    1.1785 H       1  LIG1        0.0280
     25 H          -0.0889    2.1875    1.2260 H       1  LIG1        0.0280
     26 H           0.4866   -3.8182    0.3731 H       1  LIG1        0.0626
     27 H           2.8450   -3.1589    0.0832 H       1  LIG1        0.0654
     28 H           5.1309    0.5769   -0.9553 H       1  LIG1        0.0738
     29 H           4.2614    0.9121    0.5276 H       1  LIG1        0.0738
     30 H           3.0984    1.0275   -2.3447 H       1  LIG1        0.0821
     31 H          -1.9268   -3.2122    0.4046 H       1  LIG1        0.0629
     32 H          -4.2569   -2.6822    0.0252 H       1  LIG1        0.0313
     33 H          -4.6703   -1.1384   -0.6858 H       1  LIG1        0.0313
     34 H          -4.1848   -1.6475    2.3077 H       1  LIG1        0.0233
     35 H          -5.7598   -1.4484    1.5228 H       1  LIG1        0.0233
     36 H          -4.6381   -0.0826    1.6082 H       1  LIG1        0.0233
@<TRIPOS>BOND
     1     1     2    1
     2     2     3    2
     3     3     4    1
     4     4     5   ar
     5     5     6   ar
     6     6     7   ar
     7     7     8   ar
     8     8     9   ar
     9     4     9   ar
    10     9    10    1
    11    10    11    1
    12    11    12    1
    13     3    12    1
    14    12    13    1
    15    13    14    1
    16     2    14    1
    17    14    15    2
    18     6    16   ar
    19    16    17   ar
    20    17    18   ar
    21    18    19    2
    22    18    20   ar
    23     5    20   ar
    24    17    21    1
    25    21    22    1
    26     1    23    1
    27     1    24    1
    28     1    25    1
    29     7    26    1
    30     8    27    1
    31    11    28    1
    32    11    29    1
    33    12    30    1
    34    16    31    1
    35    21    32    1
    36    21    33    1
    37    22    34    1
    38    22    35    1
    39    22    36    1
