@<TRIPOS>MOLECULE
NuBBE_1838
 54 56 0 0 0
SMALL
GASTEIGER

@<TRIPOS>ATOM
      1 O          -1.1193    0.6449    0.1988 O.3     1  LIG1       -0.3644
      2 C          -1.5633    1.7758   -0.5454 C.3     1  LIG1        0.0382
      3 C          -0.2720    0.9106    1.3298 C.3     1  LIG1        0.1507
      4 C           0.9876    1.6080    0.9307 C.2     1  LIG1        0.1382
      5 C           1.2399    2.8886    1.1830 C.2     1  LIG1        0.0261
      6 C           0.2447    3.6951    1.9340 C.2     1  LIG1        0.1855
      7 O           0.3876    4.9196    2.0230 O.2     1  LIG1       -0.2875
      8 C          -0.8696    2.9694    2.6218 C.2     1  LIG1        0.0023
      9 C          -1.0637    1.6563    2.3605 C.2     1  LIG1       -0.0378
     10 C          -1.7202    3.7481    3.5877 C.3     1  LIG1       -0.0063
     11 C          -2.9780    4.2965    2.9662 C.2     1  LIG1       -0.0867
     12 C          -3.0193    5.1676    1.9484 C.2     1  LIG1       -0.1023
     13 O           1.9542    0.7647    0.4220 O.2     1  LIG1       -0.4847
     14 C           1.5298   -0.5723    0.7838 C.3     1  LIG1        0.1310
     15 H           2.3888   -1.0300    1.2920 H       1  LIG1        0.0788
     16 C           0.3225   -0.4364    1.7517 C.3     1  LIG1        0.0372
     17 H          -0.4059   -1.2445    1.6052 H       1  LIG1        0.0373
     18 C           0.8077   -0.5290    3.2037 C.3     1  LIG1       -0.0553
     19 C           1.2476   -1.4361   -0.4334 C.ar    1  LIG1        0.0001
     20 C           0.8599   -2.7665   -0.2520 C.ar    1  LIG1       -0.0094
     21 C           0.4828   -3.5643   -1.3364 C.ar    1  LIG1        0.1655
     22 O           0.0629   -4.8673   -1.1777 O.3     1  LIG1       -0.4913
     23 C          -0.5523   -5.1772    0.0699 C.3     1  LIG1        0.0790
     24 C           0.5686   -3.0599   -2.6553 C.ar    1  LIG1        0.2035
     25 C           1.0355   -1.7454   -2.8542 C.ar    1  LIG1        0.1655
     26 C           1.3532   -0.9498   -1.7397 C.ar    1  LIG1       -0.0094
     27 O           1.0897   -1.2208   -4.1236 O.3     1  LIG1       -0.4913
     28 C           2.1369   -0.2762   -4.3508 C.3     1  LIG1        0.0790
     29 O           0.1302   -3.9353   -3.6191 O.3     1  LIG1       -0.4885
     30 C           0.5161   -3.7389   -4.9693 C.3     1  LIG1        0.0791
     31 H          -2.1769    1.4138   -1.3750 H       1  LIG1        0.0524
     32 H          -0.7225    2.3295   -0.9718 H       1  LIG1        0.0524
     33 H          -2.1854    2.4383    0.0625 H       1  LIG1        0.0524
     34 H           2.1629    3.3852    0.8972 H       1  LIG1        0.0690
     35 H          -1.8806    1.1225    2.8353 H       1  LIG1        0.0609
     36 H          -1.1518    4.5607    4.0588 H       1  LIG1        0.0357
     37 H          -2.0135    3.0926    4.4168 H       1  LIG1        0.0357
     38 H          -3.9170    3.9784    3.4146 H       1  LIG1        0.0570
     39 H          -2.1139    5.5415    1.4783 H       1  LIG1        0.0532
     40 H          -3.9652    5.5428    1.5711 H       1  LIG1        0.0532
     41 H           1.5090    0.2703    3.4615 H       1  LIG1        0.0235
     42 H           1.3165   -1.4865    3.3681 H       1  LIG1        0.0235
     43 H          -0.0345   -0.4898    3.9018 H       1  LIG1        0.0235
     44 H           0.8467   -3.1612    0.7581 H       1  LIG1        0.0659
     45 H          -1.4150   -4.5273    0.2546 H       1  LIG1        0.0660
     46 H           0.1616   -5.1243    0.8983 H       1  LIG1        0.0660
     47 H          -0.9082   -6.2108    0.0281 H       1  LIG1        0.0660
     48 H           1.6540    0.0840   -1.8743 H       1  LIG1        0.0659
     49 H           2.2104   -0.1057   -5.4290 H       1  LIG1        0.0660
     50 H           3.1041   -0.6588   -4.0043 H       1  LIG1        0.0660
     51 H           1.9097    0.6897   -3.8883 H       1  LIG1        0.0660
     52 H           0.5149   -4.7213   -5.4536 H       1  LIG1        0.0660
     53 H           1.5304   -3.3447   -5.0752 H       1  LIG1        0.0660
     54 H          -0.2179   -3.1144   -5.4890 H       1  LIG1        0.0660
@<TRIPOS>BOND
     1     1     2    1
     2     1     3    1
     3     3     4    1
     4     4     5    2
     5     5     6    1
     6     6     7    2
     7     6     8    1
     8     8     9    2
     9     3     9    1
    10     8    10    1
    11    10    11    1
    12    11    12    2
    13     4    13    1
    14    13    14    1
    15    14    15    1
    16    14    16    1
    17     3    16    1
    18    14    19    1
    19    19    20   ar
    20    20    21   ar
    21    21    22    1
    22    22    23    1
    23    21    24   ar
    24    24    25   ar
    25    25    26   ar
    26    19    26   ar
    27    25    27    1
    28    27    28    1
    29    24    29    1
    30    29    30    1
    31    16    18    1
    32    16    17    1
    33     2    31    1
    34     2    32    1
    35     2    33    1
    36     5    34    1
    37     9    35    1
    38    10    36    1
    39    10    37    1
    40    11    38    1
    41    12    39    1
    42    12    40    1
    43    18    41    1
    44    18    42    1
    45    18    43    1
    46    20    44    1
    47    23    45    1
    48    23    46    1
    49    23    47    1
    50    26    48    1
    51    28    49    1
    52    28    50    1
    53    28    51    1
    54    30    52    1
    55    30    53    1
    56    30    54    1
