REMARK  Name = NuBBE_2046
REMARK  6 active torsions:
REMARK  status: ('A' for Active; 'I' for Inactive)
REMARK    1  A    between atoms: O_1  and  C_2
REMARK    2  A    between atoms: C_13  and  O_17
REMARK    3  A    between atoms: C_14  and  O_16
REMARK    4  A    between atoms: O_17  and  C_18
REMARK    5  A    between atoms: C_23  and  O_24
REMARK    6  A    between atoms: O_24  and  C_25
REMARK                            x       y       z     vdW  Elec       q    Type
REMARK                         _______ _______ _______ _____ _____    ______ ____
ROOT
ATOM      1  C   LIG A   1      -3.420   1.651  -0.195  0.00  0.00    +0.159 A 
ATOM      2  C   LIG A   1      -2.446   0.729  -0.595  0.00  0.00    +0.060 A 
ATOM      3  C   LIG A   1      -1.088   1.084  -0.601  0.00  0.00    +0.039 A 
ATOM      4  C   LIG A   1      -0.045   0.108  -1.075  0.00  0.00    +0.218 C 
ATOM      5  C   LIG A   1       1.391   0.653  -0.987  0.00  0.00    +0.105 C 
ATOM      6  C   LIG A   1       2.100  -0.593  -0.602  0.00  0.00    +0.008 A 
ATOM      7  C   LIG A   1       1.172  -1.539  -0.192  0.00  0.00    +0.129 A 
ATOM      8  O   LIG A   1      -0.129  -1.115  -0.293  0.00  0.00    -0.483 OA
ATOM      9  C   LIG A   1       1.540  -2.773   0.316  0.00  0.00    +0.095 A 
ATOM     10  C   LIG A   1       2.903  -3.059   0.399  0.00  0.00    +0.165 A 
ATOM     11  C   LIG A   1       3.839  -2.099  -0.040  0.00  0.00    +0.159 A 
ATOM     12  C   LIG A   1       3.454  -0.858  -0.542  0.00  0.00    +0.057 A 
ATOM     13  C   LIG A   1       1.492   1.730   0.083  0.00  0.00    +0.241 C 
ATOM     14  O   LIG A   1       0.573   2.797  -0.164  0.00  0.00    -0.491 OA
ATOM     15  C   LIG A   1      -0.727   2.367  -0.188  0.00  0.00    +0.131 A 
ATOM     16  C   LIG A   1      -1.700   3.291   0.190  0.00  0.00    +0.095 A 
ATOM     17  C   LIG A   1      -3.056   2.947   0.183  0.00  0.00    +0.165 A 
ENDROOT
BRANCH   1  18
ATOM     18  O   LIG A   1      -4.726   1.245  -0.168  0.00  0.00    -0.503 OA
ATOM     19  H   LIG A   1      -4.764   0.288  -0.328  0.00  0.00    +0.292 HD
ENDBRANCH   1  18
BRANCH  11  20
ATOM     20  O   LIG A   1       5.180  -2.369   0.038  0.00  0.00    -0.503 OA
ATOM     21  H   LIG A   1       5.234  -3.266   0.422  0.00  0.00    +0.292 HD
ENDBRANCH  11  20
BRANCH  10  22
ATOM     22  O   LIG A   1       3.454  -4.217   0.889  0.00  0.00    -0.491 OA
ATOM     23  C   LIG A   1       2.544  -5.177   1.415  0.00  0.00    +0.277 C 
ENDBRANCH  10  22
BRANCH  17  24
ATOM     24  O   LIG A   1      -3.879   3.957   0.604  0.00  0.00    -0.491 OA
ATOM     25  C   LIG A   1      -5.224   3.920   0.148  0.00  0.00    +0.277 C 
ENDBRANCH  17  24
TORSDOF 4
