@<TRIPOS>MOLECULE
NuBBE_437
 97 102 0 0 0
SMALL
GASTEIGER

@<TRIPOS>ATOM
      1 C          -0.7918   -1.7782   -2.6881 C.3     1  LIG1       -0.0588
      2 C          -0.7940   -0.3548   -2.0930 C.3     1  LIG1       -0.0233
      3 C          -0.7593   -0.5029   -0.4211 C.3     1  LIG1       -0.0231
      4 C          -1.9055   -1.5471    0.5665 C.3     1  LIG1       -0.0466
      5 C          -1.5656   -1.8541    2.4151 C.3     1  LIG1       -0.0486
      6 C           0.3373   -2.0381    2.9727 C.3     1  LIG1       -0.0268
      7 H           0.5280   -1.6095    3.9652 H       1  LIG1        0.0312
      8 C           0.4087   -3.4711    2.8483 C.3     1  LIG1        0.0055
      9 C           1.7308   -3.9717    3.4694 C.3     1  LIG1       -0.0562
     10 C           0.1495   -2.8911    1.3989 C.3     1  LIG1        0.1087
     11 C           1.2735   -3.5333    0.5605 C.3     1  LIG1       -0.0146
     12 C           2.4688   -2.7602    0.9842 C.3     1  LIG1       -0.0437
     13 C           1.7754   -1.5241    1.6442 C.3     1  LIG1       -0.0252
     14 C           1.0872   -0.8615   -0.0585 C.3     1  LIG1       -0.0294
     15 H           1.0762   -1.7537   -0.6643 H       1  LIG1        0.0312
     16 C           2.1771   -0.1052   -0.8362 C.3     1  LIG1       -0.0489
     17 C           1.8367   -0.1554   -2.3209 C.3     1  LIG1       -0.0491
     18 C           0.4786    0.5178   -2.4496 C.3     1  LIG1       -0.0313
     19 H           0.4896    1.1925   -1.5902 H       1  LIG1        0.0309
     20 C           0.4660    1.6168   -3.5231 C.3     1  LIG1       -0.0258
     21 H           1.4012    2.1493   -3.3346 H       1  LIG1        0.0315
     22 C          -0.6369    2.6500   -3.2376 C.3     1  LIG1       -0.0284
     23 C          -0.1679    3.6665   -2.1652 C.3     1  LIG1       -0.0593
     24 C          -1.9757    1.9616   -2.8494 C.3     1  LIG1       -0.0468
     25 C          -1.9867    0.4010   -2.7991 C.3     1  LIG1       -0.0464
     26 C          -0.7195    3.3963   -4.5762 C.3     1  LIG1       -0.0468
     27 C          -0.6228    2.2894   -5.6138 C.3     1  LIG1       -0.0457
     28 C           0.4081    1.2867   -5.0387 C.3     1  LIG1       -0.0168
     29 H           0.0375    0.2653   -5.1838 H       1  LIG1        0.0348
     30 C           1.7379    1.4328   -5.7966 C.2     1  LIG1       -0.0763
     31 C           1.8593    0.6471   -7.0772 C.3     1  LIG1       -0.0438
     32 C           2.7625    2.2255   -5.4286 C.2     1  LIG1       -0.0994
     33 C           2.9284   -0.7415    2.3185 C.3     1  LIG1       -0.0590
     34 O          -0.1100   -0.9615    1.5196 O.3     1  LIG1       -0.4577
     35 C           0.3113    0.3617    2.0584 C.2     1  LIG1        0.3322
     36 C          -0.4363    1.1154    3.0959 C.2     1  LIG1        0.0231
     37 C          -1.0794    0.7084    4.1753 C.2     1  LIG1       -0.0478
     38 C          -1.6699    1.5712    5.1946 C.ar    1  LIG1       -0.0248
     39 C          -2.8811    1.1719    5.7724 C.ar    1  LIG1       -0.0546
     40 C          -3.3471    1.8042    6.9210 C.ar    1  LIG1       -0.0612
     41 C          -2.6113    2.8448    7.4843 C.ar    1  LIG1       -0.0617
     42 C          -1.4306    3.2799    6.8821 C.ar    1  LIG1       -0.0612
     43 C          -0.9613    2.6483    5.7314 C.ar    1  LIG1       -0.0546
     44 O           1.1315    1.0792    1.5112 O.2     1  LIG1       -0.2456
     45 C          -0.6711   -4.3971    3.4098 C.3     1  LIG1       -0.0562
     46 C          -1.4607    0.8391    0.0201 C.3     1  LIG1       -0.0588
     47 H          -0.0157   -2.4250   -2.2789 H       1  LIG1        0.0235
     48 H          -0.6510   -1.7589   -3.7742 H       1  LIG1        0.0235
     49 H          -1.7500   -2.2746   -2.4895 H       1  LIG1        0.0235
     50 H          -2.0727   -2.4931    0.0403 H       1  LIG1        0.0271
     51 H          -2.8931   -1.0643    0.5906 H       1  LIG1        0.0271
     52 H          -2.1564   -2.7250    2.7052 H       1  LIG1        0.0268
     53 H          -2.0595   -1.0247    2.9104 H       1  LIG1        0.0268
     54 H           2.1222   -4.8464    2.9396 H       1  LIG1        0.0236
     55 H           1.5702   -4.2887    4.5094 H       1  LIG1        0.0236
     56 H           2.5142   -3.2157    3.5657 H       1  LIG1        0.0236
     57 H          -0.7629   -3.3183    0.9880 H       1  LIG1        0.0739
     58 H           1.0709   -3.5360   -0.5133 H       1  LIG1        0.0301
     59 H           1.3793   -4.5996    0.7904 H       1  LIG1        0.0301
     60 H           3.0925   -2.5008    0.1243 H       1  LIG1        0.0272
     61 H           3.1387   -3.3232    1.6328 H       1  LIG1        0.0272
     62 H           3.1598   -0.5592   -0.6878 H       1  LIG1        0.0268
     63 H           2.2754    0.9338   -0.5057 H       1  LIG1        0.0268
     64 H           2.6209    0.3761   -2.8687 H       1  LIG1        0.0268
     65 H           1.8370   -1.1806   -2.7039 H       1  LIG1        0.0268
     66 H           0.0239    3.2098   -1.1933 H       1  LIG1        0.0235
     67 H          -0.8991    4.4657   -2.0192 H       1  LIG1        0.0235
     68 H           0.7818    4.1354   -2.4560 H       1  LIG1        0.0235
     69 H          -2.7533    2.2605   -3.5655 H       1  LIG1        0.0271
     70 H          -2.3344    2.3753   -1.9033 H       1  LIG1        0.0271
     71 H          -1.9897    0.0913   -3.8556 H       1  LIG1        0.0271
     72 H          -2.9507    0.0465   -2.4152 H       1  LIG1        0.0271
     73 H          -1.6274    3.9992   -4.6730 H       1  LIG1        0.0271
     74 H           0.1354    4.0773   -4.6960 H       1  LIG1        0.0271
     75 H          -0.3549    2.6977   -6.5942 H       1  LIG1        0.0271
     76 H          -1.6004    1.8057   -5.7210 H       1  LIG1        0.0271
     77 H           2.8896    0.6423   -7.4524 H       1  LIG1        0.0274
     78 H           1.2267    1.0871   -7.8548 H       1  LIG1        0.0274
     79 H           1.5650   -0.3953   -6.9274 H       1  LIG1        0.0274
     80 H           3.6744    2.2877   -6.0141 H       1  LIG1        0.0534
     81 H           2.7392    2.8688   -4.5567 H       1  LIG1        0.0534
     82 H           3.3829   -0.0134    1.6412 H       1  LIG1        0.0235
     83 H           3.7375   -1.4097    2.6384 H       1  LIG1        0.0235
     84 H           2.5983   -0.2224    3.2227 H       1  LIG1        0.0235
     85 H          -0.3122    2.1909    2.9350 H       1  LIG1        0.0689
     86 H          -1.1622   -0.3400    4.4413 H       1  LIG1        0.0626
     87 H          -3.4435    0.3397    5.3540 H       1  LIG1        0.0623
     88 H          -4.2635    1.4600    7.3919 H       1  LIG1        0.0618
     89 H          -2.9524    3.3111    8.4041 H       1  LIG1        0.0618
     90 H          -0.8517    4.0830    7.3278 H       1  LIG1        0.0618
     91 H          -0.0129    2.9620    5.3025 H       1  LIG1        0.0623
     92 H          -1.4928   -4.5928    2.7182 H       1  LIG1        0.0236
     93 H          -1.0555   -4.0235    4.3658 H       1  LIG1        0.0236
     94 H          -0.2563   -5.3953    3.6076 H       1  LIG1        0.0236
     95 H          -2.4487    0.8848   -0.4563 H       1  LIG1        0.0235
     96 H          -0.9134    1.7414   -0.2059 H       1  LIG1        0.0235
     97 H          -1.7764    0.8829    1.0610 H       1  LIG1        0.0235
@<TRIPOS>BOND
     1     2     3    1
     2     3     4    1
     3     4     5    1
     4     5     6    1
     5     6     8    1
     6     8    10    1
     7    10    11    1
     8    11    12    1
     9    12    13    1
    10    13    14    1
    11    14    16    1
    12    16    17    1
    13    17    18    1
    14     2    18    1
    15    18    20    1
    16    20    22    1
    17    22    24    1
    18    24    25    1
    19     2    25    1
    20    22    26    1
    21    26    27    1
    22    27    28    1
    23    20    28    1
    24    30    31    1
    25    30    32    2
    26     6    13    1
    27    34    35    1
    28    35    36    1
    29    36    37    2
    30    37    38    1
    31    38    39   ar
    32    39    40   ar
    33    40    41   ar
    34    41    42   ar
    35    42    43   ar
    36    38    43   ar
    37    35    44    2
    38    14     3    1
    39     1     2    1
    40     3    46    1
    41     6     7    1
    42     8     9    1
    43     8    45    1
    44    10    34    1
    45    13    33    1
    46    14    15    1
    47    18    19    1
    48    20    21    1
    49    22    23    1
    50    28    30    1
    51    28    29    1
    52     1    47    1
    53     1    48    1
    54     1    49    1
    55     4    50    1
    56     4    51    1
    57     5    52    1
    58     5    53    1
    59     9    54    1
    60     9    55    1
    61     9    56    1
    62    10    57    1
    63    11    58    1
    64    11    59    1
    65    12    60    1
    66    12    61    1
    67    16    62    1
    68    16    63    1
    69    17    64    1
    70    17    65    1
    71    23    66    1
    72    23    67    1
    73    23    68    1
    74    24    69    1
    75    24    70    1
    76    25    71    1
    77    25    72    1
    78    26    73    1
    79    26    74    1
    80    27    75    1
    81    27    76    1
    82    31    77    1
    83    31    78    1
    84    31    79    1
    85    32    80    1
    86    32    81    1
    87    33    82    1
    88    33    83    1
    89    33    84    1
    90    36    85    1
    91    37    86    1
    92    39    87    1
    93    40    88    1
    94    41    89    1
    95    42    90    1
    96    43    91    1
    97    45    92    1
    98    45    93    1
    99    45    94    1
   100    46    95    1
   101    46    96    1
   102    46    97    1
