REMARK  Name = NuBBE_1188
REMARK  6 active torsions:
REMARK  status: ('A' for Active; 'I' for Inactive)
REMARK    1  A    between atoms: C_3  and  C_4
REMARK    2  A    between atoms: C_7  and  O_8
REMARK    3  A    between atoms: O_8  and  C_9
REMARK    4  A    between atoms: C_17  and  O_18
REMARK    5  A    between atoms: C_19  and  O_20
REMARK    6  A    between atoms: O_20  and  C_21
REMARK                            x       y       z     vdW  Elec       q    Type
REMARK                         _______ _______ _______ _____ _____    ______ ____
ROOT
ATOM      1  O   LIG A   1      -1.399  -0.834   0.043  0.00  0.00    -0.286 OA
ATOM      2  C   LIG A   1      -0.212  -0.544   0.074  0.00  0.00    +0.200 A 
ATOM      3  C   LIG A   1       0.294   0.866   0.102  0.00  0.00    +0.064 A 
ATOM      4  C   LIG A   1       1.626   1.028   0.144  0.00  0.00    +0.208 A 
ATOM      5  O   LIG A   1       2.578   0.045   0.188  0.00  0.00    -0.462 OA
ATOM      6  C   LIG A   1       0.807  -1.606   0.094  0.00  0.00    +0.068 A 
ATOM      7  C   LIG A   1       2.146  -1.252   0.159  0.00  0.00    +0.142 A 
ATOM      8  C   LIG A   1       3.129  -2.232   0.199  0.00  0.00    +0.096 A 
ATOM      9  C   LIG A   1       2.767  -3.580   0.160  0.00  0.00    +0.162 A 
ATOM     10  C   LIG A   1       1.419  -3.957   0.077  0.00  0.00    +0.162 A 
ATOM     11  C   LIG A   1       0.438  -2.956   0.050  0.00  0.00    +0.064 A 
ENDROOT
BRANCH   3  12
ATOM     12  C   LIG A   1      -0.601   2.039   0.071  0.00  0.00    -0.011 A 
ATOM     13  C   LIG A   1      -1.812   1.990  -0.630  0.00  0.00    +0.012 A 
ATOM     14  C   LIG A   1      -2.687   3.077  -0.635  0.00  0.00    +0.046 A 
ATOM     15  C   LIG A   1      -2.361   4.246   0.048  0.00  0.00    +0.120 A 
ATOM     16  C   LIG A   1      -1.152   4.318   0.737  0.00  0.00    +0.046 A 
ATOM     17  C   LIG A   1      -0.283   3.224   0.755  0.00  0.00    +0.012 A 
BRANCH  15  18
ATOM     18  O   LIG A   1      -3.138   5.369   0.117  0.00  0.00    -0.495 OA
ATOM     19  C   LIG A   1      -4.374   5.309  -0.585  0.00  0.00    +0.277 C 
ENDBRANCH  15  18
ENDBRANCH   3  12
BRANCH   9  20
ATOM     20  O   LIG A   1       3.773  -4.504   0.205  0.00  0.00    -0.503 OA
ATOM     21  H   LIG A   1       4.629  -4.050   0.261  0.00  0.00    +0.292 HD
ENDBRANCH   9  20
BRANCH  10  22
ATOM     22  O   LIG A   1       0.901  -5.223   0.019  0.00  0.00    -0.491 OA
ATOM     23  C   LIG A   1       1.818  -6.308   0.002  0.00  0.00    +0.277 C 
ENDBRANCH  10  22
TORSDOF 4
