@<TRIPOS>MOLECULE
NuBBE_2139
 28 28 0 0 0
SMALL
GASTEIGER

@<TRIPOS>ATOM
      1 C          -3.3579   -1.3075    0.8310 C.3     1  LIG1       -0.0653
      2 C          -1.9958   -0.6827    1.0893 C.3     1  LIG1       -0.0556
      3 C          -0.8754   -1.7212    0.9984 C.3     1  LIG1       -0.0496
      4 C           0.5167   -1.1328    1.2628 C.3     1  LIG1       -0.0318
      5 C           0.9270   -0.0415    0.2983 C.2     1  LIG1       -0.0734
      6 C           1.2143    1.2037    0.7194 C.2     1  LIG1       -0.0848
      7 C           1.5994    2.3288   -0.1976 C.3     1  LIG1       -0.0345
      8 C           1.3397    2.0210   -1.6723 C.3     1  LIG1       -0.0493
      9 C           1.7651    0.5989   -2.0172 C.3     1  LIG1       -0.0491
     10 C           1.0121   -0.4229   -1.1626 C.3     1  LIG1       -0.0317
     11 H          -4.1403   -0.5444    0.8902 H       1  LIG1        0.0230
     12 H          -3.5822   -2.0833    1.5695 H       1  LIG1        0.0230
     13 H          -3.3993   -1.7580   -0.1660 H       1  LIG1        0.0230
     14 H          -1.9925   -0.2195    2.0827 H       1  LIG1        0.0263
     15 H          -1.8372    0.1166    0.3572 H       1  LIG1        0.0263
     16 H          -0.8955   -2.2031    0.0132 H       1  LIG1        0.0268
     17 H          -1.0588   -2.5151    1.7334 H       1  LIG1        0.0268
     18 H           1.2578   -1.9402    1.2071 H       1  LIG1        0.0310
     19 H           0.5515   -0.7637    2.2960 H       1  LIG1        0.0310
     20 H           1.1684    1.4459    1.7792 H       1  LIG1        0.0572
     21 H           2.6636    2.5462   -0.0473 H       1  LIG1        0.0307
     22 H           1.0449    3.2319    0.0813 H       1  LIG1        0.0307
     23 H           1.8780    2.7396   -2.3005 H       1  LIG1        0.0268
     24 H           0.2713    2.1444   -1.8912 H       1  LIG1        0.0268
     25 H           2.8449    0.4904   -1.8540 H       1  LIG1        0.0268
     26 H           1.5810    0.3972   -3.0785 H       1  LIG1        0.0268
     27 H           1.5057   -1.3960   -1.2669 H       1  LIG1        0.0310
     28 H          -0.0066   -0.5325   -1.5548 H       1  LIG1        0.0310
@<TRIPOS>BOND
     1     1     2    1
     2     2     3    1
     3     3     4    1
     4     4     5    1
     5     5     6    2
     6     6     7    1
     7     7     8    1
     8     8     9    1
     9     9    10    1
    10     5    10    1
    11     1    11    1
    12     1    12    1
    13     1    13    1
    14     2    14    1
    15     2    15    1
    16     3    16    1
    17     3    17    1
    18     4    18    1
    19     4    19    1
    20     6    20    1
    21     7    21    1
    22     7    22    1
    23     8    23    1
    24     8    24    1
    25     9    25    1
    26     9    26    1
    27    10    27    1
    28    10    28    1
