@<TRIPOS>MOLECULE
NuBBE_336
 31 32 0 0 0
SMALL
GASTEIGER

@<TRIPOS>ATOM
      1 O          -0.7717    1.5992    3.4545 O.2     1  LIG1       -0.2508
      2 C          -0.7089    1.4139    2.2418 C.2     1  LIG1        0.3079
      3 O          -0.9507    2.4230    1.3792 O.3     1  LIG1       -0.4611
      4 C          -1.4057    2.1540    0.0480 C.3     1  LIG1        0.1093
      5 H          -2.4522    1.8330    0.1368 H       1  LIG1        0.0736
      6 C          -1.4046    3.4810   -0.7063 C.3     1  LIG1       -0.0272
      7 C          -0.6171    1.0573   -0.6618 C.3     1  LIG1        0.0657
      8 C           0.8119    1.4311   -1.0879 C.3     1  LIG1        0.2052
      9 O           1.6126    1.7806    0.0267 O.3     1  LIG1       -0.3574
     10 O           1.4420    0.3669   -1.8088 O.2     1  LIG1       -0.4703
     11 C           1.2202   -0.8935   -1.3208 C.2     1  LIG1        0.0981
     12 C           0.3287   -1.2268   -0.3734 C.2     1  LIG1        0.0749
     13 C           0.1817   -2.6429    0.0531 C.2     1  LIG1        0.3381
     14 O           1.2565   -3.3775   -0.3247 O.3     1  LIG1       -0.4646
     15 C           1.1843   -4.7661   -0.0022 C.3     1  LIG1        0.0820
     16 O          -0.7887   -3.0558    0.6728 O.2     1  LIG1       -0.2452
     17 H          -1.1600    0.8022   -1.5852 H       1  LIG1        0.0403
     18 C          -0.6021   -0.1962    0.2269 C.3     1  LIG1        0.0157
     19 H          -1.6260   -0.5972    0.2241 H       1  LIG1        0.0363
     20 C          -0.2226    0.1048    1.6769 C.3     1  LIG1        0.0526
     21 H          -0.4159    3.9520   -0.6880 H       1  LIG1        0.0265
     22 H          -2.0854    4.1909   -0.2235 H       1  LIG1        0.0265
     23 H          -1.7205    3.3516   -1.7458 H       1  LIG1        0.0265
     24 H           0.7881    2.2895   -1.7666 H       1  LIG1        0.1058
     25 H           2.4498    2.1035   -0.3481 H       1  LIG1        0.2135
     26 H           1.8659   -1.5977   -1.8333 H       1  LIG1        0.1029
     27 H           0.4316   -5.2520   -0.6296 H       1  LIG1        0.0661
     28 H           0.9671   -4.9183    1.0592 H       1  LIG1        0.0661
     29 H           2.1588   -5.2118   -0.2226 H       1  LIG1        0.0661
     30 H           0.8654    0.0908    1.8139 H       1  LIG1        0.0384
     31 H          -0.6324   -0.6895    2.3145 H       1  LIG1        0.0384
@<TRIPOS>BOND
     1     2     3    1
     2     3     4    1
     3     4     7    1
     4     7     8    1
     5     8    10    1
     6    10    11    1
     7    11    12    2
     8    13    14    1
     9    14    15    1
    10    13    16    2
    11     7    18    1
    12    12    18    1
    13    18    20    1
    14     2    20    1
    15     1     2    2
    16     7    17    1
    17     8     9    1
    18    12    13    1
    19    18    19    1
    20     4     6    1
    21     4     5    1
    22     6    21    1
    23     6    22    1
    24     6    23    1
    25     8    24    1
    26     9    25    1
    27    11    26    1
    28    15    27    1
    29    15    28    1
    30    15    29    1
    31    20    30    1
    32    20    31    1
