@<TRIPOS>MOLECULE
NuBBE_1701
 111 116 0 0 0
SMALL
GASTEIGER

@<TRIPOS>ATOM
      1 C          -3.1235   -0.6467    0.7060 C.3     1  LIG1        0.1080
      2 O          -4.1382   -1.0270   -0.2690 O.3     1  LIG1       -0.4639
      3 C          -4.7756   -2.2109   -0.0674 C.2     1  LIG1        0.3040
      4 O          -4.3962   -3.1020    0.6774 O.2     1  LIG1       -0.2512
      5 C          -6.0946   -2.2380   -0.7702 C.3     1  LIG1        0.0332
      6 C          -1.6661   -0.3054   -0.0515 C.3     1  LIG1        0.1208
      7 C          -0.3495    0.2985    1.0786 C.3     1  LIG1        0.1549
      8 C          -1.0219    1.4826    0.7816 C.3     1  LIG1        0.1446
      9 O          -0.3512    1.5207   -0.8740 O.3     1  LIG1       -0.4580
     10 C           0.8094    1.3148   -1.5780 C.2     1  LIG1        0.3043
     11 O           1.8970    0.9363   -1.1715 O.2     1  LIG1       -0.2512
     12 C           0.6339    1.6303   -3.0192 C.3     1  LIG1        0.0332
     13 C          -0.9716    2.8963    0.9167 C.3     1  LIG1        0.0715
     14 C          -2.1056    2.8073   -0.3562 C.3     1  LIG1        0.1496
     15 C          -2.4458    1.0877   -1.0485 C.3     1  LIG1        0.1553
     16 O          -2.1797    1.0346   -2.4700 O.3     1  LIG1       -0.4569
     17 C          -2.9304    1.8868   -3.2340 C.2     1  LIG1        0.3043
     18 O          -3.9351    2.4769   -2.8549 O.2     1  LIG1       -0.2512
     19 C          -2.2900    2.1328   -4.5724 C.3     1  LIG1        0.0332
     20 O          -1.9308    3.7865   -1.3830 O.3     1  LIG1       -0.4573
     21 C          -2.3676    5.0251   -1.0162 C.2     1  LIG1        0.3043
     22 O          -2.1527    5.5379    0.0739 O.2     1  LIG1       -0.2512
     23 C          -3.3136    5.5744   -2.0436 C.3     1  LIG1        0.0332
     24 C           0.5491    2.7206    1.1379 C.3     1  LIG1        0.1114
     25 O           0.8453    1.1855    1.0167 O.3     1  LIG1       -0.3557
     26 C           1.2593    3.7161    0.1910 C.3     1  LIG1       -0.0321
     27 C           0.9921    3.1082    2.5902 C.3     1  LIG1        0.1219
     28 O           2.4067    3.0644    2.9685 O.3     1  LIG1       -0.4582
     29 C           3.3548    2.4132    2.2662 C.2     1  LIG1        0.3410
     30 O           3.2896    1.8596    1.1872 O.2     1  LIG1       -0.2449
     31 C           4.6365    2.3812    2.9629 C.ar    1  LIG1        0.0802
     32 C           5.1604    1.1574    3.4043 C.ar    1  LIG1        0.0552
     33 C           4.2894   -0.0804    3.4386 C.3     1  LIG1       -0.0089
     34 C           4.9797   -1.4431    3.3283 C.3     1  LIG1       -0.0349
     35 C           4.2502   -2.4188    2.3800 C.3     1  LIG1        0.0540
     36 C           2.7294   -2.4549    2.5790 C.2     1  LIG1        0.3104
     37 O           2.2112   -2.9649    3.5682 O.2     1  LIG1       -0.2505
     38 O           2.0239   -1.8201    1.5950 O.3     1  LIG1       -0.4543
     39 C           0.5652   -1.9509    1.6060 C.3     1  LIG1        0.1742
     40 C          -0.1663   -0.6927    2.2181 C.3     1  LIG1        0.1367
     41 C           0.5403   -0.1508    3.4621 C.3     1  LIG1       -0.0295
     42 O          -1.4418   -1.0882    2.7254 O.3     1  LIG1       -0.3820
     43 C           0.0560   -2.4492    0.1936 C.3     1  LIG1        0.1799
     44 C          -1.2575   -1.8022   -0.3971 C.3     1  LIG1        0.1588
     45 O          -1.7027   -2.2825   -1.6668 O.3     1  LIG1       -0.4531
     46 C          -2.2943   -3.5422   -1.7040 C.2     1  LIG1        0.3396
     47 O          -2.2461   -4.3858   -0.8285 O.2     1  LIG1       -0.2449
     48 C          -3.1317   -3.6353   -2.9052 C.ar    1  LIG1        0.0590
     49 C          -2.6634   -3.0454   -4.0880 C.ar    1  LIG1       -0.0478
     50 C          -3.4376   -3.0504   -5.2378 C.ar    1  LIG1       -0.0610
     51 C          -4.7077   -3.6227   -5.2319 C.ar    1  LIG1       -0.0617
     52 C          -5.1962   -4.2189   -4.0650 C.ar    1  LIG1       -0.0610
     53 C          -4.3900   -4.2500   -2.9156 C.ar    1  LIG1       -0.0478
     54 O           1.1086   -2.6583   -0.7788 O.3     1  LIG1       -0.4539
     55 C           1.8116   -3.8243   -0.5822 C.2     1  LIG1        0.3044
     56 O           1.5959   -4.6433    0.3040 O.2     1  LIG1       -0.2512
     57 C           2.9108   -4.0085   -1.5809 C.3     1  LIG1        0.0332
     58 C           4.6910   -2.1786    0.9410 C.3     1  LIG1       -0.0523
     59 N           6.4363    1.0556    3.8576 N.ar    1  LIG1       -0.2591
     60 C           7.2100    2.1661    3.7922 C.ar    1  LIG1        0.0279
     61 C           6.7664    3.4020    3.3441 C.ar    1  LIG1       -0.0428
     62 C           5.4472    3.5146    2.9260 C.ar    1  LIG1       -0.0446
     63 H          -3.0743   -1.4149    1.4713 H       1  LIG1        0.0706
     64 H          -3.5506    0.2280    1.2051 H       1  LIG1        0.0706
     65 H          -6.1542   -1.4632   -1.5383 H       1  LIG1        0.0342
     66 H          -6.8685   -2.0753   -0.0183 H       1  LIG1        0.0342
     67 H          -6.2566   -3.2067   -1.2435 H       1  LIG1        0.0342
     68 H          -2.0780    1.3287    1.0194 H       1  LIG1        0.0769
     69 H           0.0306    0.8512   -3.5019 H       1  LIG1        0.0342
     70 H           1.6001    1.6528   -3.5300 H       1  LIG1        0.0342
     71 H           0.1841    2.6284   -3.1522 H       1  LIG1        0.0342
     72 H          -1.4769    3.2762    1.8168 H       1  LIG1        0.0404
     73 H          -3.0779    3.0123    0.1309 H       1  LIG1        0.0777
     74 H          -3.5326    1.0214   -0.9344 H       1  LIG1        0.0781
     75 H          -1.5693    2.9523   -4.4890 H       1  LIG1        0.0342
     76 H          -3.0514    2.4169   -5.3029 H       1  LIG1        0.0342
     77 H          -1.7912    1.2327   -4.9377 H       1  LIG1        0.0342
     78 H          -3.0028    5.2839   -3.0499 H       1  LIG1        0.0342
     79 H          -3.3359    6.6656   -1.9914 H       1  LIG1        0.0342
     80 H          -4.3151    5.1813   -1.8401 H       1  LIG1        0.0342
     81 H           0.8197    3.7428   -0.8079 H       1  LIG1        0.0259
     82 H           2.3242    3.5412    0.0567 H       1  LIG1        0.0259
     83 H           1.1413    4.7381    0.5781 H       1  LIG1        0.0259
     84 H           0.4719    2.4886    3.3214 H       1  LIG1        0.0727
     85 H           0.6705    4.1345    2.8025 H       1  LIG1        0.0727
     86 H           3.5795   -0.0141    2.6168 H       1  LIG1        0.0329
     87 H           3.7083   -0.0518    4.3684 H       1  LIG1        0.0329
     88 H           5.0277   -1.8907    4.3288 H       1  LIG1        0.0277
     89 H           6.0195   -1.3404    2.9933 H       1  LIG1        0.0277
     90 H           4.5906   -3.4355    2.6227 H       1  LIG1        0.0411
     91 H           0.3145   -2.7835    2.2816 H       1  LIG1        0.0803
     92 H           1.5099    0.3031    3.2414 H       1  LIG1        0.0259
     93 H           0.7061   -0.9441    4.1928 H       1  LIG1        0.0259
     94 H          -0.0885    0.5751    3.9690 H       1  LIG1        0.0259
     95 H          -1.3051   -1.7513    3.4356 H       1  LIG1        0.2104
     96 H          -0.2982   -3.4687    0.4128 H       1  LIG1        0.0811
     97 H          -1.9079   -2.3575    0.2857 H       1  LIG1        0.0782
     98 H          -1.6791   -2.5813   -4.1017 H       1  LIG1        0.0626
     99 H          -3.0476   -2.5981   -6.1498 H       1  LIG1        0.0618
    100 H          -5.3163   -3.6092   -6.1359 H       1  LIG1        0.0618
    101 H          -6.1959   -4.6493   -4.0632 H       1  LIG1        0.0618
    102 H          -4.7847   -4.7323   -2.0126 H       1  LIG1        0.0626
    103 H           2.5275   -4.4647   -2.4926 H       1  LIG1        0.0342
    104 H           3.6670   -4.6726   -1.1412 H       1  LIG1        0.0342
    105 H           3.3983   -3.0555   -1.7959 H       1  LIG1        0.0342
    106 H           4.4347   -1.1772    0.5840 H       1  LIG1        0.0238
    107 H           4.2197   -2.9060    0.2881 H       1  LIG1        0.0238
    108 H           5.7729   -2.3171    0.8357 H       1  LIG1        0.0238
    109 H           8.2411    2.0272    4.1064 H       1  LIG1        0.0829
    110 H           7.4424    4.2481    3.2908 H       1  LIG1        0.0633
    111 H           5.0734    4.4489    2.5175 H       1  LIG1        0.0627
@<TRIPOS>BOND
     1     1     2    1
     2     2     3    1
     3     3     4    2
     4     3     5    1
     5     1     6    1
     6     6     7    1
     7     7     8    1
     8     8     9    1
     9     9    10    1
    10    10    11    2
    11    10    12    1
    12     8    13    1
    13    13    14    1
    14    14    15    1
    15     6    15    1
    16    15    16    1
    17    16    17    1
    18    17    18    2
    19    17    19    1
    20    14    20    1
    21    20    21    1
    22    21    22    2
    23    21    23    1
    24    13    24    1
    25    24    25    1
    26     7    25    1
    27    24    26    1
    28    24    27    1
    29    27    28    1
    30    28    29    1
    31    29    30    2
    32    29    31    1
    33    31    32   ar
    34    32    33    1
    35    33    34    1
    36    34    35    1
    37    35    36    1
    38    36    37    2
    39    36    38    1
    40    38    39    1
    41    39    40    1
    42     7    40    1
    43    40    41    1
    44    40    42    1
    45    39    43    1
    46    43    44    1
    47     6    44    1
    48    44    45    1
    49    45    46    1
    50    46    47    2
    51    46    48    1
    52    48    49   ar
    53    49    50   ar
    54    50    51   ar
    55    51    52   ar
    56    52    53   ar
    57    48    53   ar
    58    43    54    1
    59    54    55    1
    60    55    56    2
    61    55    57    1
    62    35    58    1
    63    32    59   ar
    64    59    60   ar
    65    60    61   ar
    66    61    62   ar
    67    31    62   ar
    68     1    63    1
    69     1    64    1
    70     5    65    1
    71     5    66    1
    72     5    67    1
    73     8    68    1
    74    12    69    1
    75    12    70    1
    76    12    71    1
    77    13    72    1
    78    14    73    1
    79    15    74    1
    80    19    75    1
    81    19    76    1
    82    19    77    1
    83    23    78    1
    84    23    79    1
    85    23    80    1
    86    26    81    1
    87    26    82    1
    88    26    83    1
    89    27    84    1
    90    27    85    1
    91    33    86    1
    92    33    87    1
    93    34    88    1
    94    34    89    1
    95    35    90    1
    96    39    91    1
    97    41    92    1
    98    41    93    1
    99    41    94    1
   100    42    95    1
   101    43    96    1
   102    44    97    1
   103    49    98    1
   104    50    99    1
   105    51   100    1
   106    52   101    1
   107    53   102    1
   108    57   103    1
   109    57   104    1
   110    57   105    1
   111    58   106    1
   112    58   107    1
   113    58   108    1
   114    60   109    1
   115    61   110    1
   116    62   111    1
