@<TRIPOS>MOLECULE
NuBBE_1825
 50 52 0 0 0
SMALL
GASTEIGER

@<TRIPOS>ATOM
      1 O          -3.2459   -1.3274   -0.6130 O.2     1  LIG1       -0.2917
      2 C          -2.0694   -1.5158   -0.2976 C.2     1  LIG1        0.1743
      3 C          -1.4515   -2.8831   -0.2592 C.3     1  LIG1        0.0546
      4 C          -1.1957   -0.3670   -0.0105 C.ar    1  LIG1        0.1010
      5 C          -1.6523    0.9557   -0.1016 C.ar    1  LIG1        0.1378
      6 O          -2.9482    1.2432   -0.4545 O.3     1  LIG1       -0.5055
      7 C          -0.7921    2.0325    0.1750 C.ar    1  LIG1        0.0402
      8 C          -1.2988    3.4610    0.1177 C.3     1  LIG1       -0.0023
      9 C          -1.1360    4.0936   -1.2409 C.2     1  LIG1       -0.0807
     10 C          -0.4405    5.2042   -1.5596 C.2     1  LIG1       -0.0793
     11 C           0.3358    6.0474   -0.5860 C.3     1  LIG1       -0.0440
     12 C          -0.3950    5.7062   -2.9794 C.3     1  LIG1       -0.0440
     13 C           0.5542    1.7574    0.4925 C.ar    1  LIG1        0.1305
     14 O           1.3597    2.8337    0.7652 O.3     1  LIG1       -0.4946
     15 C           2.7369    2.6765    0.4396 C.3     1  LIG1        0.0788
     16 C           0.9968    0.4333    0.5908 C.ar    1  LIG1        0.0230
     17 C           0.1177   -0.6246    0.3608 C.ar    1  LIG1        0.1393
     18 O           0.6345   -1.8781    0.5261 O.3     1  LIG1       -0.4800
     19 C          -0.3120   -2.9426    0.7659 C.3     1  LIG1        0.1397
     20 C          -0.8179   -2.8305    2.2218 C.3     1  LIG1       -0.0202
     21 C           0.4360   -4.2853    0.6224 C.ar    1  LIG1       -0.0042
     22 C          -0.2356   -5.5106    0.8027 C.ar    1  LIG1       -0.0548
     23 C           0.4428   -6.7292    0.7073 C.ar    1  LIG1       -0.0614
     24 C           1.8053   -6.7505    0.4266 C.ar    1  LIG1       -0.0617
     25 C           2.4886   -5.5543    0.2343 C.ar    1  LIG1       -0.0614
     26 C           1.8115   -4.3351    0.3298 C.ar    1  LIG1       -0.0548
     27 H          -1.0867   -3.0966   -1.2721 H       1  LIG1        0.0388
     28 H          -2.2384   -3.6071   -0.0180 H       1  LIG1        0.0388
     29 H          -3.4238    0.3986   -0.6204 H       1  LIG1        0.2922
     30 H          -0.8163    4.0380    0.9111 H       1  LIG1        0.0358
     31 H          -2.3623    3.4897    0.3858 H       1  LIG1        0.0358
     32 H          -1.6799    3.5763   -2.0320 H       1  LIG1        0.0575
     33 H           0.2557    5.7133    0.4495 H       1  LIG1        0.0274
     34 H          -0.0253    7.0809   -0.6162 H       1  LIG1        0.0274
     35 H           1.3984    6.0435   -0.8492 H       1  LIG1        0.0274
     36 H          -0.9610    5.0693   -3.6670 H       1  LIG1        0.0274
     37 H           0.6401    5.7418   -3.3352 H       1  LIG1        0.0274
     38 H          -0.8163    6.7154   -3.0378 H       1  LIG1        0.0274
     39 H           3.2043    3.6650    0.4832 H       1  LIG1        0.0660
     40 H           2.8670    2.2880   -0.5763 H       1  LIG1        0.0660
     41 H           3.2436    2.0403    1.1719 H       1  LIG1        0.0660
     42 H           2.0145    0.1997    0.8878 H       1  LIG1        0.0691
     43 H          -1.3167   -1.8750    2.4146 H       1  LIG1        0.0272
     44 H           0.0214   -2.8825    2.9263 H       1  LIG1        0.0272
     45 H          -1.5262   -3.6254    2.4782 H       1  LIG1        0.0272
     46 H          -1.2992   -5.5352    1.0309 H       1  LIG1        0.0622
     47 H          -0.0934   -7.6629    0.8580 H       1  LIG1        0.0618
     48 H           2.3345   -7.6973    0.3591 H       1  LIG1        0.0618
     49 H           3.5531   -5.5661    0.0140 H       1  LIG1        0.0618
     50 H           2.3838   -3.4223    0.1777 H       1  LIG1        0.0622
@<TRIPOS>BOND
     1     1     2    2
     2     2     3    1
     3     2     4    1
     4     4     5   ar
     5     5     6    1
     6     5     7   ar
     7     7     8    1
     8     8     9    1
     9     9    10    2
    10    10    11    1
    11    10    12    1
    12     7    13   ar
    13    13    14    1
    14    14    15    1
    15    13    16   ar
    16    16    17   ar
    17     4    17   ar
    18    17    18    1
    19    18    19    1
    20     3    19    1
    21    19    20    1
    22    19    21    1
    23    21    22   ar
    24    22    23   ar
    25    23    24   ar
    26    24    25   ar
    27    25    26   ar
    28    21    26   ar
    29     3    27    1
    30     3    28    1
    31     6    29    1
    32     8    30    1
    33     8    31    1
    34     9    32    1
    35    11    33    1
    36    11    34    1
    37    11    35    1
    38    12    36    1
    39    12    37    1
    40    12    38    1
    41    15    39    1
    42    15    40    1
    43    15    41    1
    44    16    42    1
    45    20    43    1
    46    20    44    1
    47    20    45    1
    48    22    46    1
    49    23    47    1
    50    24    48    1
    51    25    49    1
    52    26    50    1
