REMARK  Name = NuBBE_1331
REMARK  8 active torsions:
REMARK  status: ('A' for Active; 'I' for Inactive)
REMARK    1  A    between atoms: C_2  and  C_3
REMARK    2  A    between atoms: C_3  and  C_18
REMARK    3  A    between atoms: C_4  and  C_6
REMARK    4  A    between atoms: C_6  and  C_7
REMARK    5  A    between atoms: C_10  and  C_14
REMARK    6  A    between atoms: C_14  and  O_15
REMARK    7  A    between atoms: C_14  and  C_16
REMARK    8  A    between atoms: C_14  and  C_17
REMARK                            x       y       z     vdW  Elec       q    Type
REMARK                         _______ _______ _______ _____ _____    ______ ____
ROOT
ATOM      1  C   LIG A   1      -0.970  -1.491  -0.588  0.00  0.00    -0.008 C 
ATOM      2  C   LIG A   1      -0.510  -0.146  -1.282  0.00  0.00    +0.024 C 
ATOM      3  C   LIG A   1      -0.773   1.081  -0.358  0.00  0.00    +0.015 C 
ATOM      4  C   LIG A   1      -0.366   0.986   1.138  0.00  0.00    +0.021 C 
ATOM      5  C   LIG A   1      -0.738  -0.394   1.712  0.00  0.00    +0.007 C 
ATOM      6  C   LIG A   1      -0.349  -1.576   0.827  0.00  0.00    +0.012 C 
ATOM      7  C   LIG A   1      -0.584  -2.738  -1.413  0.00  0.00    +0.016 C 
ENDROOT
BRANCH   2   8
ATOM      8  C   LIG A   1       0.848  -0.050  -2.005  0.00  0.00    -0.076 C 
ATOM      9  C   LIG A   1       0.887   0.920  -3.165  0.00  0.00    +0.038 C 
ATOM     10  C   LIG A   1       1.958  -0.758  -1.734  0.00  0.00    +0.007 C 
ENDBRANCH   2   8
BRANCH   4  11
ATOM     11  C   LIG A   1       1.076   1.481   1.492  0.00  0.00    +0.063 C 
ATOM     12  C   LIG A   1       1.265   2.958   1.103  0.00  0.00    +0.041 C 
ATOM     13  C   LIG A   1       1.390   1.341   2.991  0.00  0.00    +0.041 C 
BRANCH  11  14
ATOM     14  O   LIG A   1       2.047   0.704   0.807  0.00  0.00    -0.389 OA
ATOM     15  H   LIG A   1       2.907   1.151   0.875  0.00  0.00    +0.210 HD
ENDBRANCH  11  14
ENDBRANCH   4  11
BRANCH   1  17
ATOM     16  C   LIG A   1      -3.302  -2.119   0.367  0.00  0.00    +0.004 C 
ATOM     17  C   LIG A   1      -2.517  -1.528  -0.551  0.00  0.00    -0.027 C 
ENDBRANCH   1  17
TORSDOF 4
