REMARK  Name = NuBBE_1117
REMARK  3 active torsions:
REMARK  status: ('A' for Active; 'I' for Inactive)
REMARK    1  A    between atoms: C_2  and  C_3
REMARK    2  A    between atoms: C_2  and  C_4
REMARK    3  A    between atoms: C_16  and  O_17
REMARK                            x       y       z     vdW  Elec       q    Type
REMARK                         _______ _______ _______ _____ _____    ______ ____
ROOT
ATOM      1  C   LIG A   1      -1.939   0.285   0.935  0.00  0.00    +0.203 C 
ATOM      2  C   LIG A   1      -0.848   1.165   0.293  0.00  0.00    +0.091 C 
ATOM      3  O   LIG A   1      -1.446  -1.081   1.031  0.00  0.00    -0.484 OA
ATOM      4  C   LIG A   1      -0.410  -1.129   0.138  0.00  0.00    +0.132 A 
ATOM      5  C   LIG A   1      -0.030   0.109  -0.344  0.00  0.00    +0.041 A 
ATOM      6  C   LIG A   1       1.020   0.208  -1.239  0.00  0.00    +0.149 A 
ATOM      7  O   LIG A   1       1.374   1.492  -1.688  0.00  0.00    -0.422 OA
ATOM      8  C   LIG A   1       2.415   1.677  -2.584  0.00  0.00    +0.337 A 
ATOM      9  C   LIG A   1       3.146   0.471  -3.006  0.00  0.00    +0.093 A 
ATOM     10  C   LIG A   1       2.821  -0.755  -2.584  0.00  0.00    +0.022 A 
ATOM     11  O   LIG A   1       2.730   2.782  -3.009  0.00  0.00    -0.245 OA
ATOM     12  C   LIG A   1       1.696  -0.940  -1.671  0.00  0.00    +0.059 A 
ATOM     13  C   LIG A   1       1.274  -2.189  -1.173  0.00  0.00    +0.131 A 
ATOM     14  C   LIG A   1       0.227  -2.289  -0.251  0.00  0.00    +0.092 A 
ENDROOT
BRANCH   1  16
ATOM     15  C   LIG A   1      -3.585   1.328   2.500  0.00  0.00    +0.011 C 
ATOM     16  C   LIG A   1      -2.383   0.757   2.306  0.00  0.00    -0.040 C 
ATOM     17  C   LIG A   1      -1.430   0.545   3.451  0.00  0.00    +0.042 C 
ENDBRANCH   1  16
BRANCH  13  18
ATOM     18  O   LIG A   1       1.843  -3.377  -1.545  0.00  0.00    -0.506 OA
ATOM     19  H   LIG A   1       2.292  -3.266  -2.397  0.00  0.00    +0.292 HD
ENDBRANCH  13  18
TORSDOF 2
