REMARK  Name = NuBBE_1410
REMARK  6 active torsions:
REMARK  status: ('A' for Active; 'I' for Inactive)
REMARK    1  A    between atoms: C_15  and  C_18
REMARK    2  A    between atoms: C_15  and  C_19
REMARK    3  A    between atoms: C_25  and  O_30
REMARK    4  A    between atoms: C_26  and  O_28
REMARK    5  A    between atoms: O_28  and  C_29
REMARK    6  A    between atoms: O_30  and  C_31
REMARK                            x       y       z     vdW  Elec       q    Type
REMARK                         _______ _______ _______ _____ _____    ______ ____
ROOT
ATOM      1  O   LIG A   1      -2.151   1.762  -0.933  0.00  0.00    -0.283 OA
ATOM      2  C   LIG A   1      -0.937   1.569  -0.895  0.00  0.00    +0.254 C 
ATOM      3  C   LIG A   1      -0.285   0.186  -0.849  0.00  0.00    +0.355 C 
ATOM      4  O   LIG A   1      -1.226  -0.723  -0.282  0.00  0.00    -0.441 OA
ATOM      5  C   LIG A   1      -0.902  -2.031  -0.509  0.00  0.00    +0.150 A 
ATOM      6  C   LIG A   1      -1.358  -3.001   0.395  0.00  0.00    +0.059 A 
ATOM      7  C   LIG A   1      -0.999  -4.340   0.195  0.00  0.00    +0.132 A 
ATOM      8  C   LIG A   1      -0.240  -4.715  -0.914  0.00  0.00    +0.047 A 
ATOM      9  C   LIG A   1       0.197  -3.748  -1.818  0.00  0.00    +0.022 A 
ATOM     10  C   LIG A   1      -0.129  -2.404  -1.605  0.00  0.00    +0.102 A 
ATOM     11  C   LIG A   1       0.333  -1.379  -2.556  0.00  0.00    +0.346 C 
ATOM     12  O   LIG A   1       0.896  -1.674  -3.598  0.00  0.00    -0.245 OA
ATOM     13  O   LIG A   1       0.092  -0.102  -2.201  0.00  0.00    -0.408 OA
ATOM     14  O   LIG A   1      -1.372  -5.354   1.035  0.00  0.00    -0.481 OA
ATOM     15  C   LIG A   1      -1.810  -4.993   2.364  0.00  0.00    +0.123 C 
ATOM     16  C   LIG A   1      -2.391  -3.602   2.473  0.00  0.00    +0.020 C 
ATOM     17  C   LIG A   1      -2.190  -2.661   1.545  0.00  0.00    +0.015 C 
ATOM     18  C   LIG A   1      -2.880  -6.023   2.745  0.00  0.00    +0.060 C 
ATOM     19  C   LIG A   1      -0.606  -5.131   3.304  0.00  0.00    +0.060 C 
ATOM     20  C   LIG A   1       0.940   0.324   0.070  0.00  0.00    +0.331 C 
ATOM     21  O   LIG A   1       1.894   1.285  -0.394  0.00  0.00    -0.483 OA
ATOM     22  C   LIG A   1       1.344   2.509  -0.664  0.00  0.00    +0.135 A 
ATOM     23  C   LIG A   1      -0.010   2.721  -0.899  0.00  0.00    +0.071 A 
ATOM     24  C   LIG A   1      -0.482   4.013  -1.137  0.00  0.00    +0.064 A 
ATOM     25  C   LIG A   1       0.402   5.100  -1.150  0.00  0.00    +0.162 A 
ATOM     26  C   LIG A   1       1.780   4.880  -0.978  0.00  0.00    +0.165 A 
ATOM     27  C   LIG A   1       2.236   3.580  -0.716  0.00  0.00    +0.095 A 
ENDROOT
BRANCH  26  28
ATOM     28  O   LIG A   1       2.630   5.952  -1.045  0.00  0.00    -0.491 OA
ATOM     29  C   LIG A   1       3.947   5.684  -1.514  0.00  0.00    +0.277 C 
ENDBRANCH  26  28
BRANCH  25  30
ATOM     30  O   LIG A   1      -0.216   6.296  -1.408  0.00  0.00    -0.491 OA
ATOM     31  C   LIG A   1       0.367   7.457  -0.828  0.00  0.00    +0.277 C 
ENDBRANCH  25  30
TORSDOF 2
