@<TRIPOS>MOLECULE
NuBBE_1453
 52 56 0 0 0
SMALL
GASTEIGER

@<TRIPOS>ATOM
      1 C          -1.3708    6.2050   -1.3887 C.3     1  LIG1       -0.0215
      2 C           0.1158    5.8619   -1.2312 C.3     1  LIG1        0.1235
      3 C           0.3846    5.3989    0.1814 C.2     1  LIG1       -0.0408
      4 C           0.6167    4.1204    0.4935 C.2     1  LIG1       -0.0478
      5 C           0.6005    3.1339   -0.5820 C.ar    1  LIG1        0.0589
      6 C           0.6564    1.7523   -0.3312 C.ar    1  LIG1        0.1424
      7 C           0.6792    0.8459   -1.4000 C.ar    1  LIG1        0.0633
      8 C           0.7763   -0.6119   -1.1326 C.2     1  LIG1        0.2063
      9 C           0.9155   -1.0285    0.3350 C.3     1  LIG1        0.1968
     10 O           2.3113   -0.9890    0.6644 O.3     1  LIG1       -0.3728
     11 C           0.3978   -2.4068    0.7087 C.ar    1  LIG1        0.0405
     12 C           0.6592   -3.5473   -0.0679 C.ar    1  LIG1       -0.0064
     13 C           0.1573   -4.8124    0.2787 C.ar    1  LIG1        0.1621
     14 O           0.5218   -5.7954   -0.6050 O.3     1  LIG1       -0.4914
     15 C          -0.3814   -6.8821   -0.7631 C.3     1  LIG1        0.0790
     16 C          -0.6006   -4.9627    1.4475 C.ar    1  LIG1        0.1650
     17 C          -0.8158   -3.8436    2.2589 C.ar    1  LIG1        0.0258
     18 C          -0.3132   -2.5878    1.9022 C.ar    1  LIG1        0.1308
     19 O          -0.5848   -1.5848    2.7981 O.3     1  LIG1       -0.4877
     20 C           0.1537   -0.3773    2.5934 C.3     1  LIG1        0.1299
     21 C           0.1351    0.0265    1.1294 C.3     1  LIG1        0.1739
     22 O           0.6909    1.3368    0.9800 O.3     1  LIG1       -0.4803
     23 O          -1.0300   -6.2142    1.8023 O.3     1  LIG1       -0.4913
     24 C          -2.2531   -6.2677    2.5305 C.3     1  LIG1        0.0790
     25 O           0.8187   -1.3877   -2.0855 O.2     1  LIG1       -0.2883
     26 C           0.6254    1.3084   -2.7189 C.ar    1  LIG1       -0.0441
     27 C           0.5476    2.6772   -2.9684 C.ar    1  LIG1       -0.0184
     28 C           0.5251    3.5831   -1.9062 C.ar    1  LIG1        0.1324
     29 O           0.4506    4.9032   -2.2569 O.3     1  LIG1       -0.4815
     30 C           0.9645    7.1037   -1.5288 C.3     1  LIG1       -0.0215
     31 H          -1.9982    5.3211   -1.2216 H       1  LIG1        0.0271
     32 H          -1.5866    6.5462   -2.4079 H       1  LIG1        0.0271
     33 H          -1.6870    6.9858   -0.6884 H       1  LIG1        0.0271
     34 H           0.3636    6.1431    0.9731 H       1  LIG1        0.0611
     35 H           0.7985    3.8032    1.5141 H       1  LIG1        0.0624
     36 H           2.7282   -1.7509    0.2216 H       1  LIG1        0.2114
     37 H           1.2510   -3.4730   -0.9794 H       1  LIG1        0.0660
     38 H          -0.1743   -7.3443   -1.7334 H       1  LIG1        0.0660
     39 H          -1.4269   -6.5550   -0.7743 H       1  LIG1        0.0660
     40 H          -0.2056   -7.6436    0.0022 H       1  LIG1        0.0660
     41 H          -1.3454   -3.9278    3.2028 H       1  LIG1        0.0692
     42 H           1.1711   -0.4917    2.9886 H       1  LIG1        0.0735
     43 H          -0.3181    0.4040    3.2005 H       1  LIG1        0.0735
     44 H          -0.9185    0.0536    0.8056 H       1  LIG1        0.0805
     45 H          -2.6206   -7.2975    2.4872 H       1  LIG1        0.0660
     46 H          -3.0181   -5.6220    2.0849 H       1  LIG1        0.0660
     47 H          -2.0907   -6.0173    3.5832 H       1  LIG1        0.0660
     48 H           0.6476    0.6103   -3.5535 H       1  LIG1        0.0627
     49 H           0.5047    3.0419   -3.9919 H       1  LIG1        0.0654
     50 H           0.7461    7.9259   -0.8384 H       1  LIG1        0.0271
     51 H           0.7904    7.4590   -2.5515 H       1  LIG1        0.0271
     52 H           2.0341    6.8715   -1.4612 H       1  LIG1        0.0271
@<TRIPOS>BOND
     1     1     2    1
     2     2     3    1
     3     3     4    2
     4     4     5    1
     5     5     6   ar
     6     6     7   ar
     7     7     8    1
     8     8     9    1
     9     9    10    1
    10     9    11    1
    11    11    12   ar
    12    12    13   ar
    13    13    14    1
    14    14    15    1
    15    13    16   ar
    16    16    17   ar
    17    17    18   ar
    18    11    18   ar
    19    18    19    1
    20    19    20    1
    21    20    21    1
    22     9    21    1
    23    21    22    1
    24     6    22    1
    25    16    23    1
    26    23    24    1
    27     8    25    2
    28     7    26   ar
    29    26    27   ar
    30    27    28   ar
    31     5    28   ar
    32    28    29    1
    33     2    29    1
    34     2    30    1
    35     1    31    1
    36     1    32    1
    37     1    33    1
    38     3    34    1
    39     4    35    1
    40    10    36    1
    41    12    37    1
    42    15    38    1
    43    15    39    1
    44    15    40    1
    45    17    41    1
    46    20    42    1
    47    20    43    1
    48    21    44    1
    49    24    45    1
    50    24    46    1
    51    24    47    1
    52    26    48    1
    53    27    49    1
    54    30    50    1
    55    30    51    1
    56    30    52    1
