REMARK  Name = NuBBE_551
REMARK  5 active torsions:
REMARK  status: ('A' for Active; 'I' for Inactive)
REMARK    1  A    between atoms: C_1  and  C_2
REMARK    2  A    between atoms: C_5  and  C_7
REMARK    3  A    between atoms: C_7  and  C_8
REMARK    4  A    between atoms: C_13  and  C_14
REMARK    5  A    between atoms: C_13  and  O_15
REMARK                            x       y       z     vdW  Elec       q    Type
REMARK                         _______ _______ _______ _____ _____    ______ ____
ROOT
ATOM      1  C   LIG A   1       0.594  -0.210   2.160  0.00  0.00    +0.011 C 
ATOM      2  C   LIG A   1       1.208   0.049   0.764  0.00  0.00    -0.027 C 
ATOM      3  C   LIG A   1       0.221   0.656  -0.280  0.00  0.00    +0.027 C 
ATOM      4  C   LIG A   1      -0.964  -0.288  -0.579  0.00  0.00    +0.014 C 
ATOM      5  C   LIG A   1      -0.477  -1.664  -1.083  0.00  0.00    +0.015 C 
ATOM      6  C   LIG A   1       0.549  -2.277  -0.108  0.00  0.00    +0.008 C 
ATOM      7  C   LIG A   1       1.700  -1.313   0.201  0.00  0.00    +0.007 C 
ATOM      8  C   LIG A   1      -0.190   2.134  -0.034  0.00  0.00    +0.067 C 
ATOM      9  C   LIG A   1      -1.232   2.357   1.065  0.00  0.00    +0.041 C 
ATOM     10  C   LIG A   1       1.065   3.000   0.189  0.00  0.00    +0.035 C 
ATOM     11  C   LIG A   1       2.024   2.440   1.233  0.00  0.00    +0.003 C 
ATOM     12  C   LIG A   1       2.422   0.996   0.921  0.00  0.00    +0.007 C 
ENDROOT
BRANCH   5  13
ATOM     13  C   LIG A   1      -1.660  -2.570  -1.427  0.00  0.00    -0.077 C 
ATOM     14  C   LIG A   1      -2.357  -2.254  -2.728  0.00  0.00    +0.038 C 
ATOM     15  C   LIG A   1      -2.079  -3.605  -0.679  0.00  0.00    +0.007 C 
ENDBRANCH   5  13
BRANCH   8  16
ATOM     16  O   LIG A   1      -0.800   2.602  -1.253  0.00  0.00    -0.389 OA
ATOM     17  H   LIG A   1      -1.001   3.547  -1.146  0.00  0.00    +0.210 HD
ENDBRANCH   8  16
TORSDOF 2
