@<TRIPOS>MOLECULE
NuBBE_1732
 39 40 0 0 0
SMALL
GASTEIGER

@<TRIPOS>ATOM
      1 C          -0.1981   -0.6478    0.9439 C.3     1  LIG1       -0.0434
      2 C          -1.2948    0.4189    1.0038 C.3     1  LIG1       -0.0340
      3 C          -2.6460   -0.1730    0.6987 C.2     1  LIG1       -0.0853
      4 C          -3.2509   -0.2544   -0.5008 C.2     1  LIG1       -0.0796
      5 C          -2.6556    0.2084   -1.8028 C.3     1  LIG1       -0.0440
      6 C          -4.6230   -0.8618   -0.6342 C.3     1  LIG1       -0.0440
      7 C           1.2040   -0.0890    1.2884 C.3     1  LIG1       -0.0222
      8 C           1.2324    0.3128    2.7805 C.3     1  LIG1       -0.0587
      9 C           1.9074    0.9647    0.3144 C.3     1  LIG1       -0.0142
     10 C           3.2646    0.3068    0.7610 C.3     1  LIG1       -0.0424
     11 C           2.4281   -1.0125    0.8374 C.3     1  LIG1       -0.0311
     12 C           2.3248   -1.6335   -0.5747 C.3     1  LIG1       -0.0311
     13 C           1.8966   -0.5629   -1.5600 C.2     1  LIG1       -0.0845
     14 C           1.6739    0.7018   -1.1510 C.2     1  LIG1       -0.0729
     15 C           1.2652    1.8364   -2.0290 C.3     1  LIG1       -0.0435
     16 H          -0.2204   -1.0964   -0.0535 H       1  LIG1        0.0274
     17 H          -0.4366   -1.4683    1.6341 H       1  LIG1        0.0274
     18 H          -1.0675    1.2491    0.3277 H       1  LIG1        0.0308
     19 H          -1.3497    0.8628    2.0040 H       1  LIG1        0.0308
     20 H          -3.1689   -0.5646    1.5721 H       1  LIG1        0.0571
     21 H          -1.6273    0.5627   -1.7062 H       1  LIG1        0.0274
     22 H          -3.2547    1.0242   -2.2202 H       1  LIG1        0.0274
     23 H          -2.6456   -0.6149   -2.5250 H       1  LIG1        0.0274
     24 H          -5.0382   -1.1676    0.3317 H       1  LIG1        0.0274
     25 H          -4.5849   -1.7476   -1.2766 H       1  LIG1        0.0274
     26 H          -5.3140   -0.1385   -1.0791 H       1  LIG1        0.0274
     27 H           0.6182    1.2017    2.9565 H       1  LIG1        0.0235
     28 H           2.2324    0.5502    3.1514 H       1  LIG1        0.0235
     29 H           0.8505   -0.4992    3.4086 H       1  LIG1        0.0235
     30 H           1.7907    2.0172    0.5905 H       1  LIG1        0.0351
     31 H           3.6805    0.6684    1.7064 H       1  LIG1        0.0274
     32 H           4.0869    0.3231    0.0364 H       1  LIG1        0.0274
     33 H           2.7681   -1.7379    1.5836 H       1  LIG1        0.0309
     34 H           1.6035   -2.4571   -0.5788 H       1  LIG1        0.0310
     35 H           3.2964   -2.0393   -0.8776 H       1  LIG1        0.0310
     36 H           1.7725   -0.8491   -2.6003 H       1  LIG1        0.0572
     37 H           1.1314    1.5188   -3.0679 H       1  LIG1        0.0274
     38 H           2.0276    2.6217   -2.0113 H       1  LIG1        0.0274
     39 H           0.3204    2.2657   -1.6821 H       1  LIG1        0.0274
@<TRIPOS>BOND
     1     1     2    1
     2     2     3    1
     3     3     4    2
     4     4     5    1
     5     4     6    1
     6     1     7    1
     7     7     8    1
     8     7     9    1
     9     9    10    1
    10    10    11    1
    11     7    11    1
    12    11    12    1
    13    12    13    1
    14    13    14    2
    15     9    14    1
    16    14    15    1
    17     1    16    1
    18     1    17    1
    19     2    18    1
    20     2    19    1
    21     3    20    1
    22     5    21    1
    23     5    22    1
    24     5    23    1
    25     6    24    1
    26     6    25    1
    27     6    26    1
    28     8    27    1
    29     8    28    1
    30     8    29    1
    31     9    30    1
    32    10    31    1
    33    10    32    1
    34    11    33    1
    35    12    34    1
    36    12    35    1
    37    13    36    1
    38    15    37    1
    39    15    38    1
    40    15    39    1
