@<TRIPOS>MOLECULE
NuBBE_878
 60 61 0 0 0
SMALL
GASTEIGER

@<TRIPOS>ATOM
      1 O          -5.6038    5.2954   -0.3593 O.2     1  LIG1       -0.2833
      2 C          -4.5716    4.9123   -0.9292 C.ar    1  LIG1        0.2310
      3 C          -3.3124    4.5169   -0.1932 C.ar    1  LIG1        0.1864
      4 O          -3.1599    4.6569    1.1809 O.3     1  LIG1       -0.4897
      5 C          -4.3509    4.6755    1.9648 C.3     1  LIG1        0.0790
      6 C          -2.2804    4.0220   -0.9348 C.ar    1  LIG1        0.0624
      7 C          -0.9598    3.5884   -0.2908 C.3     1  LIG1       -0.0088
      8 C          -0.9107    2.0867    0.0498 C.3     1  LIG1       -0.0476
      9 C           0.4341    1.6554    0.6743 C.3     1  LIG1       -0.0527
     10 C           0.4611    0.1443    0.9494 C.3     1  LIG1       -0.0530
     11 C           1.7685   -0.3506    1.5871 C.3     1  LIG1       -0.0531
     12 C           1.7993   -1.8799    1.7835 C.3     1  LIG1       -0.0531
     13 C           1.6866   -2.6514    0.4615 C.3     1  LIG1       -0.0531
     14 C           1.7197   -4.1779    0.5961 C.3     1  LIG1       -0.0530
     15 C           3.0344   -4.7185    1.1631 C.3     1  LIG1       -0.0527
     16 C           3.0553   -6.2522    1.1964 C.3     1  LIG1       -0.0464
     17 C           4.3398   -6.8197    1.8043 C.3     1  LIG1        0.0055
     18 C           5.5979   -6.5191    1.0065 C.2     1  LIG1        0.1303
     19 C           6.8899   -6.4832    1.7852 C.3     1  LIG1       -0.0061
     20 O           5.5825   -6.3286   -0.2073 O.2     1  LIG1       -0.2977
     21 N          -2.3422    3.9159   -2.3135 N.ar    1  LIG1       -0.3549
     22 H          -1.5319    3.5517   -2.8058 H       1  LIG1        0.1657
     23 C          -3.4540    4.3149   -3.0560 C.ar    1  LIG1        0.0505
     24 C          -3.4805    4.2120   -4.4514 C.ar    1  LIG1       -0.0377
     25 C          -4.5993    4.6334   -5.1798 C.ar    1  LIG1       -0.0598
     26 C          -5.7083    5.1653   -4.5214 C.ar    1  LIG1       -0.0610
     27 C          -5.7032    5.2578   -3.1331 C.ar    1  LIG1       -0.0488
     28 C          -4.5814    4.8338   -2.4055 C.ar    1  LIG1        0.0487
     29 H          -4.0526    4.7432    3.0155 H       1  LIG1        0.0660
     30 H          -4.9208    3.7502    1.8329 H       1  LIG1        0.0660
     31 H          -4.9617    5.5607    1.7697 H       1  LIG1        0.0660
     32 H          -0.7628    4.1727    0.6154 H       1  LIG1        0.0329
     33 H          -0.1355    3.8298   -0.9766 H       1  LIG1        0.0329
     34 H          -1.0947    1.4970   -0.8574 H       1  LIG1        0.0269
     35 H          -1.7183    1.8488    0.7530 H       1  LIG1        0.0269
     36 H           0.6020    2.2043    1.6075 H       1  LIG1        0.0265
     37 H           1.2552    1.9084   -0.0075 H       1  LIG1        0.0265
     38 H           0.3083   -0.3626   -0.0077 H       1  LIG1        0.0265
     39 H          -0.3765   -0.1306    1.6013 H       1  LIG1        0.0265
     40 H           1.9059    0.1287    2.5654 H       1  LIG1        0.0265
     41 H           2.6247   -0.0524    0.9701 H       1  LIG1        0.0265
     42 H           0.9881   -2.1807    2.4576 H       1  LIG1        0.0265
     43 H           2.7392   -2.1376    2.2862 H       1  LIG1        0.0265
     44 H           2.4797   -2.3242   -0.2215 H       1  LIG1        0.0265
     45 H           0.7338   -2.4067   -0.0193 H       1  LIG1        0.0265
     46 H           1.5561   -4.6036   -0.4030 H       1  LIG1        0.0265
     47 H           0.8775   -4.5067    1.2166 H       1  LIG1        0.0265
     48 H           3.1782   -4.3427    2.1811 H       1  LIG1        0.0265
     49 H           3.8653   -4.3450    0.5545 H       1  LIG1        0.0265
     50 H           2.9089   -6.6513    0.1857 H       1  LIG1        0.0269
     51 H           2.2106   -6.6033    1.8028 H       1  LIG1        0.0269
     52 H           4.2608   -7.9111    1.8725 H       1  LIG1        0.0341
     53 H           4.4683   -6.4308    2.8203 H       1  LIG1        0.0341
     54 H           6.9454   -7.3440    2.4567 H       1  LIG1        0.0306
     55 H           6.9378   -5.5558    2.3613 H       1  LIG1        0.0306
     56 H           7.7395   -6.5261    1.0981 H       1  LIG1        0.0306
     57 H          -2.6291    3.8009   -4.9871 H       1  LIG1        0.0638
     58 H          -4.6060    4.5485   -6.2639 H       1  LIG1        0.0618
     59 H          -6.5725    5.5048   -5.0877 H       1  LIG1        0.0618
     60 H          -6.5736    5.6598   -2.6145 H       1  LIG1        0.0625
@<TRIPOS>BOND
     1     1     2    2
     2     2     3   ar
     3     3     4    1
     4     4     5    1
     5     3     6   ar
     6     6     7    1
     7     7     8    1
     8     8     9    1
     9     9    10    1
    10    10    11    1
    11    11    12    1
    12    12    13    1
    13    13    14    1
    14    14    15    1
    15    15    16    1
    16    16    17    1
    17    17    18    1
    18    18    19    1
    19    18    20    2
    20     6    21   ar
    21    21    22    1
    22    21    23   ar
    23    23    24   ar
    24    24    25   ar
    25    25    26   ar
    26    26    27   ar
    27    27    28   ar
    28    23    28   ar
    29     2    28   ar
    30     5    29    1
    31     5    30    1
    32     5    31    1
    33     7    32    1
    34     7    33    1
    35     8    34    1
    36     8    35    1
    37     9    36    1
    38     9    37    1
    39    10    38    1
    40    10    39    1
    41    11    40    1
    42    11    41    1
    43    12    42    1
    44    12    43    1
    45    13    44    1
    46    13    45    1
    47    14    46    1
    48    14    47    1
    49    15    48    1
    50    15    49    1
    51    16    50    1
    52    16    51    1
    53    17    52    1
    54    17    53    1
    55    19    54    1
    56    19    55    1
    57    19    56    1
    58    24    57    1
    59    25    58    1
    60    26    59    1
    61    27    60    1
