REMARK  Name = NuBBE_1157
REMARK  16 active torsions:
REMARK  status: ('A' for Active; 'I' for Inactive)
REMARK    1  A    between atoms: C_2  and  O_3
REMARK    2  A    between atoms: C_2  and  C_5
REMARK    3  A    between atoms: O_3  and  C_4
REMARK    4  A    between atoms: C_5  and  C_6
REMARK    5  A    between atoms: C_6  and  C_7
REMARK    6  A    between atoms: C_7  and  C_8
REMARK    7  A    between atoms: C_8  and  C_9
REMARK    8  A    between atoms: C_9  and  C_10
REMARK    9  A    between atoms: C_10  and  C_11
REMARK   10  A    between atoms: C_11  and  C_12
REMARK   11  A    between atoms: C_12  and  C_13
REMARK   12  A    between atoms: C_13  and  C_14
REMARK   13  A    between atoms: C_14  and  C_15
REMARK   14  A    between atoms: C_15  and  C_16
REMARK   15  A    between atoms: C_16  and  C_17
REMARK   16  A    between atoms: C_17  and  C_18
REMARK                            x       y       z     vdW  Elec       q    Type
REMARK                         _______ _______ _______ _____ _____    ______ ____
ROOT
ATOM      1  C   LIG A   1       1.301  -0.682   0.476  0.00  0.00    -0.000 C 
ENDROOT
BRANCH   1   2
ATOM      2  C   LIG A   1      -0.209  -0.644   0.704  0.00  0.00    -0.000 C 
BRANCH   2   3
ATOM      3  C   LIG A   1      -0.971  -0.836  -0.610  0.00  0.00    -0.000 C 
BRANCH   3   4
ATOM      4  C   LIG A   1      -2.486  -0.791  -0.396  0.00  0.00    -0.000 C 
BRANCH   4   5
ATOM      5  C   LIG A   1      -3.240  -0.987  -1.712  0.00  0.00    +0.000 C 
BRANCH   5   6
ATOM      6  C   LIG A   1      -4.758  -0.949  -1.515  0.00  0.00    +0.000 C 
BRANCH   6   7
ATOM      7  C   LIG A   1      -5.473  -1.146  -2.853  0.00  0.00    +0.011 C 
BRANCH   7   8
ATOM      8  C   LIG A   1      -6.984  -1.117  -2.700  0.00  0.00    +0.120 C 
BRANCH   8  10
ATOM      9  O   LIG A   1      -7.531  -0.607  -5.010  0.00  0.00    -0.251 OA
ATOM     10  C   LIG A   1      -7.665  -1.326  -4.037  0.00  0.00    +0.307 C 
BRANCH  10  11
ATOM     11  O   LIG A   1      -8.500  -2.406  -3.953  0.00  0.00    -0.468 OA
ATOM     12  C   LIG A   1      -9.423  -2.511  -5.035  0.00  0.00    +0.280 C 
ENDBRANCH  10  11
ENDBRANCH   8  10
ENDBRANCH   7   8
ENDBRANCH   6   7
ENDBRANCH   5   6
ENDBRANCH   4   5
ENDBRANCH   3   4
ENDBRANCH   2   3
ENDBRANCH   1   2
BRANCH   1  13
ATOM     13  C   LIG A   1       2.079  -0.498   1.779  0.00  0.00    -0.000 C 
BRANCH  13  14
ATOM     14  C   LIG A   1       3.581  -0.543   1.503  0.00  0.00    +0.000 C 
BRANCH  14  15
ATOM     15  C   LIG A   1       4.399  -0.354   2.778  0.00  0.00    +0.000 C 
BRANCH  15  16
ATOM     16  C   LIG A   1       5.911  -0.355   2.518  0.00  0.00    +0.005 C 
BRANCH  16  17
ATOM     17  C   LIG A   1       6.393   0.748   1.564  0.00  0.00    +0.035 C 
BRANCH  17  18
ATOM     18  C   LIG A   1       6.075   2.139   2.057  0.00  0.00    -0.047 A 
ATOM     19  C   LIG A   1       6.609   2.602   3.267  0.00  0.00    +0.003 A 
ATOM     20  C   LIG A   1       6.287   3.872   3.745  0.00  0.00    +0.000 A 
ATOM     21  C   LIG A   1       5.431   4.694   3.016  0.00  0.00    +0.000 A 
ATOM     22  C   LIG A   1       4.898   4.248   1.808  0.00  0.00    +0.000 A 
ATOM     23  C   LIG A   1       5.222   2.979   1.327  0.00  0.00    +0.003 A 
ENDBRANCH  17  18
ENDBRANCH  16  17
ENDBRANCH  15  16
ENDBRANCH  14  15
ENDBRANCH  13  14
ENDBRANCH   1  13
TORSDOF 15
