REMARK  Name = NuBBE_133
REMARK  9 active torsions:
REMARK  status: ('A' for Active; 'I' for Inactive)
REMARK    1  A    between atoms: C_1  and  C_2
REMARK    2  A    between atoms: C_7  and  C_10
REMARK    3  A    between atoms: C_13  and  C_15
REMARK    4  A    between atoms: C_15  and  C_17
REMARK    5  A    between atoms: C_22  and  C_23
REMARK    6  A    between atoms: C_28  and  C_29
REMARK    7  A    between atoms: C_32  and  O_37
REMARK    8  A    between atoms: C_34  and  C_35
REMARK    9  A    between atoms: C_34  and  C_36
REMARK                            x       y       z     vdW  Elec       q    Type
REMARK                         _______ _______ _______ _____ _____    ______ ____
ROOT
ATOM      1  C   LIG A   1      -1.803   1.063  -0.119  0.00  0.00    +0.012 C 
ATOM      2  C   LIG A   1      -0.438   1.207   0.628  0.00  0.00    -0.023 C 
ATOM      3  C   LIG A   1       0.658   1.859  -0.296  0.00  0.00    -0.000 C 
ATOM      4  C   LIG A   1       0.509   3.369  -0.634  0.00  0.00    +0.006 C 
ATOM      5  C   LIG A   1       0.145   4.229   0.600  0.00  0.00    -0.028 C 
ATOM      6  C   LIG A   1      -0.991   3.608   1.436  0.00  0.00    +0.007 C 
ATOM      7  C   LIG A   1      -0.714   2.153   1.836  0.00  0.00    +0.008 C 
ATOM      8  C   LIG A   1       1.371   4.487   1.496  0.00  0.00    +0.011 C 
ATOM      9  C   LIG A   1      -0.297   5.549  -0.049  0.00  0.00    +0.007 C 
ATOM     10  C   LIG A   1      -1.063   5.147  -1.304  0.00  0.00    +0.009 C 
ATOM     11  C   LIG A   1      -0.494   3.783  -1.750  0.00  0.00    +0.018 C 
ATOM     12  C   LIG A   1       0.950   0.994  -1.529  0.00  0.00    +0.005 C 
ATOM     13  C   LIG A   1       1.357  -0.438  -1.167  0.00  0.00    +0.005 C 
ATOM     14  C   LIG A   1       0.377  -1.139  -0.195  0.00  0.00    +0.002 C 
ATOM     15  C   LIG A   1       0.112  -0.262   1.099  0.00  0.00    -0.023 C 
ATOM     16  C   LIG A   1       1.412  -0.106   1.950  0.00  0.00    +0.012 C 
ATOM     17  C   LIG A   1      -0.915  -0.992   2.012  0.00  0.00    +0.008 C 
ATOM     18  C   LIG A   1      -0.618  -2.475   2.265  0.00  0.00    +0.005 C 
ATOM     19  C   LIG A   1      -0.492  -3.252   0.939  0.00  0.00    +0.003 C 
ATOM     20  C   LIG A   1       0.682  -2.687   0.052  0.00  0.00    -0.025 C 
ATOM     21  C   LIG A   1       2.088  -2.907   0.664  0.00  0.00    +0.012 C 
ATOM     22  C   LIG A   1       0.650  -3.434  -1.318  0.00  0.00    +0.010 C 
ATOM     23  C   LIG A   1       0.622  -4.963  -1.210  0.00  0.00    +0.032 C 
ATOM     24  C   LIG A   1      -0.507  -5.482  -0.322  0.00  0.00    +0.120 C 
ATOM     25  C   LIG A   1      -0.557  -4.819   1.087  0.00  0.00    -0.006 C 
ATOM     26  C   LIG A   1       0.566  -5.401   1.970  0.00  0.00    +0.014 C 
ATOM     27  C   LIG A   1      -1.893  -5.229   1.764  0.00  0.00    +0.014 C 
ENDROOT
BRANCH  11  28
ATOM     28  C   LIG A   1      -0.019   3.840  -3.199  0.00  0.00    -0.076 C 
ATOM     29  C   LIG A   1       1.258   3.949  -3.605  0.00  0.00    +0.007 C 
ATOM     30  C   LIG A   1      -1.125   3.764  -4.226  0.00  0.00    +0.038 C 
ENDBRANCH  11  28
BRANCH  24  31
ATOM     31  O   LIG A   1      -1.744  -5.312  -1.023  0.00  0.00    -0.391 OA
ATOM     32  H   LIG A   1      -1.891  -4.364  -1.171  0.00  0.00    +0.210 HD
ENDBRANCH  24  31
TORSDOF 2
