@<TRIPOS>MOLECULE
NuBBE_1883
 55 57 0 0 0
SMALL
GASTEIGER

@<TRIPOS>ATOM
      1 O          -3.7604   -0.5052    0.8038 O.2     1  LIG1       -0.2830
      2 C          -2.5763   -0.4252    0.5280 C.ar    1  LIG1        0.2382
      3 C          -1.6477   -1.5897    0.5734 C.ar    1  LIG1        0.1131
      4 C          -1.9834   -2.8818    0.1229 C.ar    1  LIG1        0.1797
      5 C          -0.9890   -3.8865    0.1455 C.ar    1  LIG1        0.2045
      6 O          -1.2866   -5.0520   -0.5139 O.3     1  LIG1       -0.4885
      7 C          -0.7632   -6.2764   -0.0203 C.3     1  LIG1        0.0791
      8 C           0.2877   -3.6072    0.7093 C.ar    1  LIG1        0.1687
      9 C           0.5828   -2.3150    1.1514 C.ar    1  LIG1        0.0270
     10 C          -0.3495   -1.3087    1.0265 C.ar    1  LIG1        0.1468
     11 O           0.0576   -0.0344    1.2779 O.2     1  LIG1       -0.4505
     12 C          -0.5818    0.9562    0.5512 C.ar    1  LIG1        0.1844
     13 C           0.2960    2.0869    0.2370 C.ar    1  LIG1        0.0663
     14 C           0.3824    3.1559    1.1453 C.ar    1  LIG1       -0.0020
     15 C           1.2751    4.2096    0.9290 C.ar    1  LIG1        0.1624
     16 O           1.4306    5.3005    1.7384 O.3     1  LIG1       -0.4914
     17 C           0.7870    5.3827    2.9991 C.3     1  LIG1        0.0790
     18 C           2.0805    4.2008   -0.2280 C.ar    1  LIG1        0.1650
     19 C           2.0056    3.1328   -1.1276 C.ar    1  LIG1        0.0261
     20 C           1.1328    2.0654   -0.8954 C.ar    1  LIG1        0.1346
     21 O           1.0318    0.9784   -1.7314 O.3     1  LIG1       -0.4943
     22 C           2.1802    0.6885   -2.5247 C.3     1  LIG1        0.0788
     23 O           2.9739    5.2370   -0.3761 O.3     1  LIG1       -0.4913
     24 C           3.2825    5.6218   -1.7116 C.3     1  LIG1        0.0790
     25 C          -1.8812    0.8578    0.1563 C.ar    1  LIG1        0.2108
     26 O          -2.5290    1.8731   -0.5112 O.3     1  LIG1       -0.4883
     27 C          -3.5422    1.4086   -1.4048 C.3     1  LIG1        0.0791
     28 O           1.2558   -4.5845    0.7281 O.3     1  LIG1       -0.4912
     29 C           2.2860   -4.4076    1.7040 C.3     1  LIG1        0.0790
     30 O          -3.2683   -2.9800   -0.3474 O.3     1  LIG1       -0.4905
     31 C          -3.8210   -4.2097   -0.7856 C.3     1  LIG1        0.0790
     32 H          -0.4047   -6.2354    1.0123 H       1  LIG1        0.0660
     33 H           0.0210   -6.6314   -0.6964 H       1  LIG1        0.0660
     34 H          -1.5794   -7.0061   -0.0414 H       1  LIG1        0.0660
     35 H           1.5670   -2.0356    1.5188 H       1  LIG1        0.0692
     36 H          -0.2616    3.1157    2.0151 H       1  LIG1        0.0663
     37 H           1.5487    5.3257    3.7823 H       1  LIG1        0.0660
     38 H           0.0229    4.6334    3.2022 H       1  LIG1        0.0660
     39 H           0.3070    6.3639    3.0647 H       1  LIG1        0.0660
     40 H           2.6418    3.1299   -2.0011 H       1  LIG1        0.0692
     41 H           2.3476    1.4550   -3.2888 H       1  LIG1        0.0660
     42 H           1.9993   -0.2530   -3.0515 H       1  LIG1        0.0660
     43 H           3.0675    0.5608   -1.8945 H       1  LIG1        0.0660
     44 H           3.9178    6.5120   -1.6642 H       1  LIG1        0.0660
     45 H           2.3746    5.8834   -2.2654 H       1  LIG1        0.0660
     46 H           3.8554    4.8515   -2.2373 H       1  LIG1        0.0660
     47 H          -3.8968    2.2684   -1.9813 H       1  LIG1        0.0660
     48 H          -4.4059    1.0087   -0.8671 H       1  LIG1        0.0660
     49 H          -3.1411    0.6682   -2.1052 H       1  LIG1        0.0660
     50 H           2.8042   -5.3608    1.8346 H       1  LIG1        0.0660
     51 H           1.8719   -4.1148    2.6769 H       1  LIG1        0.0660
     52 H           3.0248   -3.6743    1.3600 H       1  LIG1        0.0660
     53 H          -4.9123   -4.0996   -0.7760 H       1  LIG1        0.0660
     54 H          -3.5953   -5.0519   -0.1257 H       1  LIG1        0.0660
     55 H          -3.5228   -4.4061   -1.8203 H       1  LIG1        0.0660
@<TRIPOS>BOND
     1     1     2    2
     2     2     3   ar
     3     3     4   ar
     4     4     5   ar
     5     5     6    1
     6     6     7    1
     7     5     8   ar
     8     8     9   ar
     9     9    10   ar
    10     3    10   ar
    11    10    11   ar
    12    11    12   ar
    13    12    13    1
    14    13    14   ar
    15    14    15   ar
    16    15    16    1
    17    16    17    1
    18    15    18   ar
    19    18    19   ar
    20    19    20   ar
    21    13    20   ar
    22    20    21    1
    23    21    22    1
    24    18    23    1
    25    23    24    1
    26    12    25   ar
    27     2    25   ar
    28    25    26    1
    29    26    27    1
    30     8    28    1
    31    28    29    1
    32     4    30    1
    33    30    31    1
    34     7    32    1
    35     7    33    1
    36     7    34    1
    37     9    35    1
    38    14    36    1
    39    17    37    1
    40    17    38    1
    41    17    39    1
    42    19    40    1
    43    22    41    1
    44    22    42    1
    45    22    43    1
    46    24    44    1
    47    24    45    1
    48    24    46    1
    49    27    47    1
    50    27    48    1
    51    27    49    1
    52    29    50    1
    53    29    51    1
    54    29    52    1
    55    31    53    1
    56    31    54    1
    57    31    55    1
