REMARK  Name = NuBBE_1284
REMARK  12 active torsions:
REMARK  status: ('A' for Active; 'I' for Inactive)
REMARK    1  A    between atoms: O_1  and  C_2
REMARK    2  A    between atoms: C_4  and  O_5
REMARK    3  A    between atoms: C_8  and  O_9
REMARK    4  A    between atoms: O_9  and  C_10
REMARK    5  A    between atoms: C_11  and  O_13
REMARK    6  A    between atoms: C_14  and  O_16
REMARK    7  A    between atoms: C_17  and  O_19
REMARK    8  A    between atoms: C_20  and  C_22
REMARK    9  A    between atoms: C_24  and  C_28
REMARK   10  A    between atoms: C_30  and  O_31
REMARK   11  A    between atoms: C_32  and  O_36
REMARK   12  A    between atoms: C_33  and  O_34
REMARK                            x       y       z     vdW  Elec       q    Type
REMARK                         _______ _______ _______ _____ _____    ______ ____
ROOT
ATOM      1  C   LIG A   1      -5.048  -0.373   2.621  0.00  0.00    +0.124 A 
ATOM      2  C   LIG A   1      -4.893  -1.526   1.853  0.00  0.00    +0.091 A 
ATOM      3  C   LIG A   1      -3.775  -1.641   1.030  0.00  0.00    +0.135 A 
ATOM      4  C   LIG A   1      -2.837  -0.605   0.974  0.00  0.00    +0.109 A 
ATOM      5  C   LIG A   1      -1.750  -0.559  -0.007  0.00  0.00    +0.238 A 
ATOM      6  C   LIG A   1      -0.531   0.210   0.392  0.00  0.00    +0.214 A 
ATOM      7  C   LIG A   1      -0.734   1.188   1.310  0.00  0.00    +0.181 A 
ATOM      8  O   LIG A   1      -1.984   1.463   1.876  0.00  0.00    -0.451 OA
ATOM      9  C   LIG A   1      -2.951   0.492   1.817  0.00  0.00    +0.146 A 
ATOM     10  C   LIG A   1      -4.076   0.626   2.629  0.00  0.00    +0.092 A 
ATOM     11  O   LIG A   1      -1.887  -1.077  -1.113  0.00  0.00    -0.283 OA
ENDROOT
BRANCH   7  12
ATOM     12  C   LIG A   1       0.339   2.087   1.833  0.00  0.00    +0.028 A 
ATOM     13  C   LIG A   1       1.431   2.500   1.040  0.00  0.00    +0.061 A 
ATOM     14  C   LIG A   1       2.428   3.318   1.571  0.00  0.00    +0.163 A 
ATOM     15  C   LIG A   1       2.334   3.780   2.874  0.00  0.00    +0.201 A 
ATOM     16  C   LIG A   1       1.250   3.422   3.658  0.00  0.00    +0.163 A 
ATOM     17  C   LIG A   1       0.261   2.579   3.154  0.00  0.00    +0.061 A 
BRANCH  14  18
ATOM     18  O   LIG A   1       3.522   3.692   0.841  0.00  0.00    -0.503 OA
ATOM     19  H   LIG A   1       3.478   3.255  -0.028  0.00  0.00    +0.292 HD
ENDBRANCH  14  18
BRANCH  16  20
ATOM     20  O   LIG A   1       1.147   3.895   4.935  0.00  0.00    -0.503 OA
ATOM     21  H   LIG A   1       1.937   4.463   5.052  0.00  0.00    +0.292 HD
ENDBRANCH  16  20
BRANCH  15  22
ATOM     22  O   LIG A   1       3.301   4.595   3.398  0.00  0.00    -0.501 OA
ATOM     23  H   LIG A   1       3.949   4.697   2.671  0.00  0.00    +0.292 HD
ENDBRANCH  15  22
ENDBRANCH   7  12
BRANCH   1  24
ATOM     24  O   LIG A   1      -6.154  -0.190   3.398  0.00  0.00    -0.506 OA
ATOM     25  H   LIG A   1      -6.794  -0.900   3.220  0.00  0.00    +0.292 HD
ENDBRANCH   1  24
BRANCH   3  26
ATOM     26  O   LIG A   1      -3.573  -2.787   0.315  0.00  0.00    -0.506 OA
ATOM     27  H   LIG A   1      -4.325  -3.392   0.417  0.00  0.00    +0.292 HD
ENDBRANCH   3  26
BRANCH   6  28
ATOM     28  O   LIG A   1       0.728  -0.061  -0.127  0.00  0.00    -0.453 OA
BRANCH  28  29
ATOM     29  C   LIG A   1       0.865  -1.054  -1.157  0.00  0.00    +0.340 C 
ATOM     30  C   LIG A   1       2.291  -1.645  -1.030  0.00  0.00    +0.214 C 
ATOM     31  C   LIG A   1       2.545  -2.653  -2.151  0.00  0.00    +0.180 C 
ATOM     32  C   LIG A   1       2.187  -2.061  -3.527  0.00  0.00    +0.174 C 
ATOM     33  C   LIG A   1       0.776  -1.440  -3.481  0.00  0.00    +0.150 C 
ATOM     34  C   LIG A   1       0.389  -0.784  -4.801  0.00  0.00    +0.040 C 
ATOM     35  O   LIG A   1       0.716  -0.445  -2.448  0.00  0.00    -0.334 OA
BRANCH  30  36
ATOM     36  O   LIG A   1       3.286  -0.607  -1.099  0.00  0.00    -0.383 OA
ATOM     37  H   LIG A   1       2.908   0.143  -0.605  0.00  0.00    +0.210 HD
ENDBRANCH  30  36
BRANCH  31  38
ATOM     38  O   LIG A   1       1.771  -3.843  -1.934  0.00  0.00    -0.386 OA
ATOM     39  H   LIG A   1       1.833  -4.335  -2.779  0.00  0.00    +0.210 HD
ENDBRANCH  31  38
BRANCH  32  40
ATOM     40  O   LIG A   1       2.269  -3.117  -4.494  0.00  0.00    -0.387 OA
ATOM     41  H   LIG A   1       2.337  -2.698  -5.371  0.00  0.00    +0.210 HD
ENDBRANCH  32  40
ENDBRANCH  28  29
ENDBRANCH   6  28
TORSDOF 11
