@<TRIPOS>MOLECULE
NuBBE_2317
 44 47 0 0 0
SMALL
GASTEIGER

@<TRIPOS>ATOM
      1 C           1.5261   -2.7372    1.3901 C.2     1  LIG1        0.2150
      2 O           1.7086   -3.8473    0.8934 O.2     1  LIG1       -0.2869
      3 C           0.7709   -1.6014    0.6386 C.3     1  LIG1        0.2390
      4 C           0.5420   -0.3016    1.4561 C.3     1  LIG1        0.0443
      5 C           0.4954   -0.6231    2.9708 C.3     1  LIG1       -0.0227
      6 C           1.6685   -1.4267    3.4306 C.2     1  LIG1       -0.0798
      7 C           2.1473   -2.4384    2.7033 C.2     1  LIG1       -0.0176
      8 C          -0.8244    0.2159    0.9188 C.3     1  LIG1       -0.0017
      9 H          -0.6588    1.1720    0.4185 H       1  LIG1        0.0334
     10 C          -1.3167   -0.8576   -0.0727 C.3     1  LIG1        0.0907
     11 H          -2.3514   -1.1537    0.1407 H       1  LIG1        0.0650
     12 O          -0.5098   -2.0193    0.1786 O.3     1  LIG1       -0.3337
     13 C          -1.3077   -0.4481   -1.5463 C.ar    1  LIG1       -0.0148
     14 C          -1.1102   -1.4152   -2.5635 C.ar    1  LIG1       -0.0524
     15 C          -1.1018   -1.0618   -3.9215 C.ar    1  LIG1       -0.0158
     16 C          -1.3044    0.2610   -4.2445 C.ar    1  LIG1        0.1662
     17 C          -1.5358    1.2038   -3.2768 C.ar    1  LIG1        0.1666
     18 C          -1.5683    0.8804   -1.9366 C.ar    1  LIG1       -0.0105
     19 O          -1.7255    2.4485   -3.7908 O.3     1  LIG1       -0.4526
     20 C          -1.5778    2.1804   -5.1999 C.3     1  LIG1        0.2332
     21 O          -1.3183    0.7917   -5.4963 O.3     1  LIG1       -0.4526
     22 C          -1.9210    0.5026    1.9531 C.3     1  LIG1       -0.0590
     23 C           1.6748    0.7365    1.1534 C.3     1  LIG1       -0.0234
     24 C           1.5651    2.0505    1.8854 C.2     1  LIG1       -0.0904
     25 C           2.4910    2.5105    2.7360 C.2     1  LIG1       -0.1026
     26 O           1.5546   -1.3597   -0.5303 O.3     1  LIG1       -0.3582
     27 H          -0.3949   -1.2087    3.2290 H       1  LIG1        0.0315
     28 H           0.4405    0.2956    3.5652 H       1  LIG1        0.0315
     29 H           2.0968   -1.2031    4.4045 H       1  LIG1        0.0573
     30 H           2.9525   -3.0825    3.0334 H       1  LIG1        0.0651
     31 H          -0.9548   -2.4594   -2.2951 H       1  LIG1        0.0622
     32 H          -0.9387   -1.8047   -4.6940 H       1  LIG1        0.0655
     33 H          -1.7917    1.6667   -1.2252 H       1  LIG1        0.0659
     34 H          -0.7500    2.7860   -5.5878 H       1  LIG1        0.1166
     35 H          -2.5008    2.4819   -5.7081 H       1  LIG1        0.1166
     36 H          -1.5869    1.2339    2.6948 H       1  LIG1        0.0234
     37 H          -2.2469   -0.4045    2.4729 H       1  LIG1        0.0234
     38 H          -2.8061    0.9187    1.4584 H       1  LIG1        0.0234
     39 H           1.6736    0.9837    0.0829 H       1  LIG1        0.0315
     40 H           2.6545    0.2834    1.3527 H       1  LIG1        0.0315
     41 H           0.6988    2.6729    1.6712 H       1  LIG1        0.0566
     42 H           3.3884    1.9443    2.9652 H       1  LIG1        0.0532
     43 H           2.3742    3.4791    3.2129 H       1  LIG1        0.0532
     44 H           1.6791   -2.2463   -0.9210 H       1  LIG1        0.2132
@<TRIPOS>BOND
     1     1     2    2
     2     1     3    1
     3     3     4    1
     4     4     5    1
     5     5     6    1
     6     6     7    2
     7     1     7    1
     8     4     8    1
     9     8     9    1
    10     8    10    1
    11    10    12    1
    12     3    12    1
    13    13    14   ar
    14    14    15   ar
    15    15    16   ar
    16    16    17   ar
    17    17    18   ar
    18    13    18   ar
    19    17    19    1
    20    19    20    1
    21    20    21    1
    22    16    21    1
    23     8    22    1
    24     4    23    1
    25    23    24    1
    26    24    25    2
    27     3    26    1
    28    10    13    1
    29    10    11    1
    30     5    27    1
    31     5    28    1
    32     6    29    1
    33     7    30    1
    34    14    31    1
    35    15    32    1
    36    18    33    1
    37    20    34    1
    38    20    35    1
    39    22    36    1
    40    22    37    1
    41    22    38    1
    42    23    39    1
    43    23    40    1
    44    24    41    1
    45    25    42    1
    46    25    43    1
    47    26    44    1
