REMARK  Name = NuBBE_175
REMARK  15 active torsions:
REMARK  status: ('A' for Active; 'I' for Inactive)
REMARK    1  A    between atoms: C_3  and  C_5
REMARK    2  A    between atoms: C_8  and  C_10
REMARK    3  A    between atoms: C_10  and  C_11
REMARK    4  A    between atoms: C_11  and  C_12
REMARK    5  A    between atoms: C_12  and  C_13
REMARK    6  A    between atoms: C_13  and  C_14
REMARK    7  A    between atoms: C_14  and  C_15
REMARK    8  A    between atoms: C_15  and  C_16
REMARK    9  A    between atoms: C_16  and  C_17
REMARK   10  A    between atoms: C_17  and  C_18
REMARK   11  A    between atoms: C_18  and  C_19
REMARK   12  A    between atoms: C_19  and  C_20
REMARK   13  A    between atoms: C_20  and  C_21
REMARK   14  A    between atoms: C_21  and  C_22
REMARK   15  A    between atoms: C_22  and  C_23
REMARK                            x       y       z     vdW  Elec       q    Type
REMARK                         _______ _______ _______ _____ _____    ______ ____
ROOT
ATOM      1  C   LIG A   1      -2.484   1.822  -0.821  0.00  0.00    +0.000 C 
ENDROOT
BRANCH   1   2
ATOM      2  C   LIG A   1      -2.875   1.058   0.606  0.00  0.00    +0.002 C 
BRANCH   2   3
ATOM      3  C   LIG A   1      -2.815  -0.492   0.804  0.00  0.00    +0.019 C 
BRANCH   3  10
ATOM      4  O   LIG A   1      -1.303  -3.883   4.927  0.00  0.00    -0.296 OA
ATOM      5  C   LIG A   1      -1.840  -3.148   4.109  0.00  0.00    +0.150 C 
ATOM      6  C   LIG A   1      -2.103  -1.659   4.383  0.00  0.00    +0.117 C 
ATOM      7  C   LIG A   1      -0.899  -1.121   5.149  0.00  0.00    +0.032 C 
ATOM      8  N   LIG A   1      -2.275  -0.811   3.193  0.00  0.00    -0.304 NA
ATOM      9  H   LIG A   1      -2.489   0.156   3.414  0.00  0.00    +0.123 HD
ATOM     10  C   LIG A   1      -3.035  -1.342   2.081  0.00  0.00    +0.055 C 
ATOM     11  C   LIG A   1      -2.313  -2.689   1.778  0.00  0.00    +0.026 C 
ATOM     12  C   LIG A   1      -2.445  -3.732   2.868  0.00  0.00    +0.077 C 
ENDBRANCH   3  10
ENDBRANCH   2   3
ENDBRANCH   1   2
BRANCH   1  13
ATOM     13  C   LIG A   1      -0.895   2.244  -1.501  0.00  0.00    -0.000 C 
BRANCH  13  14
ATOM     14  C   LIG A   1       0.215   1.317  -2.587  0.00  0.00    -0.000 C 
BRANCH  14  15
ATOM     15  C   LIG A   1       1.573   1.848  -3.071  0.00  0.00    -0.000 C 
BRANCH  15  16
ATOM     16  C   LIG A   1       2.307   0.704  -3.833  0.00  0.00    -0.000 C 
BRANCH  16  17
ATOM     17  C   LIG A   1       3.814   0.950  -3.848  0.00  0.00    -0.000 C 
BRANCH  17  18
ATOM     18  C   LIG A   1       4.636   0.537  -2.587  0.00  0.00    +0.000 C 
BRANCH  18  19
ATOM     19  C   LIG A   1       4.405   1.253  -1.211  0.00  0.00    +0.000 C 
BRANCH  19  20
ATOM     20  C   LIG A   1       3.260   0.787  -0.193  0.00  0.00    +0.007 C 
BRANCH  20  21
ATOM     21  C   LIG A   1       1.804   0.951  -0.576  0.00  0.00    +0.074 C 
BRANCH  21  22
ATOM     22  C   LIG A   1       0.416   0.253  -0.188  0.00  0.00    +0.130 C 
ATOM     23  C   LIG A   1      -0.860  -0.391  -1.246  0.00  0.00    +0.086 C 
ATOM     24  O   LIG A   1       0.261   0.198   1.209  0.00  0.00    -0.298 OA
ENDBRANCH  21  22
ENDBRANCH  20  21
ENDBRANCH  19  20
ENDBRANCH  18  19
ENDBRANCH  17  18
ENDBRANCH  16  17
ENDBRANCH  15  16
ENDBRANCH  14  15
ENDBRANCH  13  14
ENDBRANCH   1  13
TORSDOF 13
