REMARK  Name = NuBBE_59
REMARK  16 active torsions:
REMARK  status: ('A' for Active; 'I' for Inactive)
REMARK    1  A    between atoms: C_2  and  O_3
REMARK    2  A    between atoms: C_2  and  C_40
REMARK    3  A    between atoms: O_3  and  C_4
REMARK    4  A    between atoms: C_8  and  O_17
REMARK    5  A    between atoms: C_11  and  O_13
REMARK    6  A    between atoms: O_13  and  C_14
REMARK    7  A    between atoms: C_14  and  C_15
REMARK    8  A    between atoms: O_17  and  C_18
REMARK    9  A    between atoms: C_18  and  C_19
REMARK   10  A    between atoms: C_22  and  O_24
REMARK   11  A    between atoms: C_26  and  C_28
REMARK   12  A    between atoms: C_29  and  C_30
REMARK   13  A    between atoms: C_29  and  C_31
REMARK   14  A    between atoms: C_31  and  C_32
REMARK   15  A    between atoms: C_33  and  C_34
REMARK   16  A    between atoms: C_33  and  C_35
REMARK                            x       y       z     vdW  Elec       q    Type
REMARK                         _______ _______ _______ _____ _____    ______ ____
ROOT
ATOM      1  C   LIG A   1      -0.851  -1.410  -0.720  0.00  0.00    +0.200 C 
ATOM      2  C   LIG A   1      -2.094  -0.597  -0.505  0.00  0.00    +0.023 C 
ATOM      3  C   LIG A   1      -1.977   0.671  -0.073  0.00  0.00    +0.012 C 
ATOM      4  C   LIG A   1      -2.572   1.835  -0.815  0.00  0.00    +0.343 C 
ATOM      5  O   LIG A   1      -1.464   2.743  -0.871  0.00  0.00    -0.297 OA
ATOM      6  C   LIG A   1      -0.865   2.701   0.438  0.00  0.00    +0.327 C 
ATOM      7  C   LIG A   1      -0.859   1.159   0.851  0.00  0.00    +0.089 C 
ATOM      8  C   LIG A   1      -1.286   0.967   2.360  0.00  0.00    +0.131 C 
ATOM      9  C   LIG A   1      -0.389   0.072   3.204  0.00  0.00    +0.036 C 
ATOM     10  C   LIG A   1       1.088   0.387   2.991  0.00  0.00    -0.005 C 
ATOM     11  C   LIG A   1       1.349   1.863   3.324  0.00  0.00    +0.008 C 
ATOM     12  C   LIG A   1       1.510  -0.098   1.567  0.00  0.00    -0.022 C 
ATOM     13  C   LIG A   1       1.494  -1.660   1.593  0.00  0.00    +0.012 C 
ATOM     14  C   LIG A   1       0.536   0.491   0.433  0.00  0.00    +0.018 C 
ATOM     15  C   LIG A   1       0.366  -0.459  -0.794  0.00  0.00    +0.054 C 
ENDROOT
BRANCH   8  16
ATOM     16  O   LIG A   1      -2.606   0.428   2.530  0.00  0.00    -0.391 OA
ATOM     17  H   LIG A   1      -3.250   1.058   2.170  0.00  0.00    +0.210 HD
ENDBRANCH   8  16
BRANCH   1  18
ATOM     18  O   LIG A   1      -0.951  -2.037  -2.025  0.00  0.00    -0.454 OA
BRANCH  18  20
ATOM     19  O   LIG A   1      -2.152  -3.768  -1.123  0.00  0.00    -0.245 OA
ATOM     20  C   LIG A   1      -1.634  -3.189  -2.095  0.00  0.00    +0.340 C 
BRANCH  20  21
ATOM     21  C   LIG A   1      -1.730  -3.726  -3.477  0.00  0.00    +0.059 A 
ATOM     22  C   LIG A   1      -2.378  -4.960  -3.670  0.00  0.00    +0.015 A 
ATOM     23  C   LIG A   1      -2.492  -5.504  -4.945  0.00  0.00    +0.001 A 
ATOM     24  C   LIG A   1      -1.967  -4.826  -6.043  0.00  0.00    +0.000 A 
ATOM     25  C   LIG A   1      -1.332  -3.597  -5.861  0.00  0.00    +0.001 A 
ATOM     26  C   LIG A   1      -1.217  -3.042  -4.579  0.00  0.00    +0.015 A 
ENDBRANCH  20  21
ENDBRANCH  18  20
ENDBRANCH   1  18
BRANCH   6  27
ATOM     27  O   LIG A   1      -1.665   3.526   1.298  0.00  0.00    -0.434 OA
BRANCH  27  28
ATOM     28  C   LIG A   1      -1.533   4.867   1.111  0.00  0.00    +0.306 C 
ATOM     29  C   LIG A   1      -2.780   5.561   1.573  0.00  0.00    +0.136 C 
ATOM     30  O   LIG A   1      -0.593   5.437   0.557  0.00  0.00    -0.251 OA
ENDBRANCH  27  28
ENDBRANCH   6  27
BRANCH   4  31
ATOM     31  O   LIG A   1      -2.932   1.413  -2.133  0.00  0.00    -0.431 OA
BRANCH  31  32
ATOM     32  C   LIG A   1      -4.164   1.791  -2.543  0.00  0.00    +0.306 C 
ATOM     33  C   LIG A   1      -4.615   0.966  -3.713  0.00  0.00    +0.136 C 
ATOM     34  O   LIG A   1      -4.878   2.613  -1.987  0.00  0.00    -0.251 OA
ENDBRANCH  31  32
ENDBRANCH   4  31
BRANCH  12  35
ATOM     35  C   LIG A   1       3.004   0.325   1.215  0.00  0.00    +0.034 C 
BRANCH  35  36
ATOM     36  C   LIG A   1       4.086  -0.225   2.121  0.00  0.00    -0.023 C 
ATOM     37  C   LIG A   1       5.419  -0.029   2.046  0.00  0.00    -0.055 C 
ATOM     38  C   LIG A   1       6.141   0.802   1.024  0.00  0.00    +0.043 C 
BRANCH  37  39
ATOM     39  C   LIG A   1       6.299  -0.626   3.041  0.00  0.00    -0.005 C 
ATOM     40  C   LIG A   1       6.428  -1.944   3.239  0.00  0.00    +0.008 C 
ENDBRANCH  37  39
ENDBRANCH  35  36
ENDBRANCH  12  35
TORSDOF 11
