@<TRIPOS>MOLECULE
NuBBE_64
 53 56 0 0 0
SMALL
GASTEIGER

@<TRIPOS>ATOM
      1 O          -6.5595   -1.9551    1.6884 O.3     1  LIG1       -0.5068
      2 C          -5.2281   -2.0148    1.4013 C.ar    1  LIG1        0.1169
      3 C          -4.2941   -1.3125    2.1530 C.ar    1  LIG1       -0.0198
      4 C          -2.9404   -1.4009    1.8209 C.ar    1  LIG1       -0.0516
      5 C          -2.5136   -2.1818    0.7321 C.ar    1  LIG1       -0.0067
      6 C          -1.0416   -2.2992    0.3722 C.3     1  LIG1        0.1322
      7 C          -0.4121   -3.4563    1.1296 C.3     1  LIG1        0.0520
      8 C           1.0415   -3.5112    0.7711 C.2     1  LIG1        0.1740
      9 C           1.7229   -2.2243    0.5309 C.ar    1  LIG1        0.1010
     10 C           3.1082   -2.1651    0.4011 C.ar    1  LIG1        0.1343
     11 C           3.7405   -0.9359    0.2827 C.ar    1  LIG1        0.0226
     12 C           2.9887    0.2456    0.2863 C.ar    1  LIG1        0.1296
     13 C           1.5865    0.2294    0.3667 C.ar    1  LIG1        0.0676
     14 C           0.6858    1.4697    0.3534 C.3     1  LIG1        0.1193
     15 H           0.0254    1.2895    1.2150 H       1  LIG1        0.0676
     16 O          -0.2278    1.4244   -0.7637 O.3     1  LIG1       -0.3609
     17 C           0.1145    2.1606   -1.9431 C.3     1  LIG1        0.1108
     18 H          -0.8044    2.1699   -2.5439 H       1  LIG1        0.0646
     19 C           0.4255    3.6314   -1.6183 C.3     1  LIG1        0.1117
     20 H           0.6771    4.1852   -2.5295 H       1  LIG1        0.0647
     21 C           1.5726    3.7239   -0.6119 C.3     1  LIG1        0.1121
     22 H           1.6800    4.7714   -0.3032 H       1  LIG1        0.0647
     23 O           2.7890    3.3662   -1.2671 O.3     1  LIG1       -0.3865
     24 O          -0.7389    4.2580   -1.0446 O.3     1  LIG1       -0.3865
     25 C           1.1706    1.4369   -2.7914 C.3     1  LIG1        0.0729
     26 O           1.5273    2.1890   -3.9458 O.3     1  LIG1       -0.3924
     27 C           1.2470    2.8904    0.6470 C.3     1  LIG1        0.1139
     28 H           2.1103    2.8328    1.3146 H       1  LIG1        0.0649
     29 O           0.2534    3.6197    1.4117 O.3     1  LIG1       -0.3862
     30 C           0.9684   -1.0443    0.5040 C.ar    1  LIG1        0.1446
     31 O          -0.3924   -1.0613    0.6935 O.3     1  LIG1       -0.4825
     32 O           3.6773    1.4254    0.2222 O.3     1  LIG1       -0.5062
     33 O           3.9161   -3.2688    0.4171 O.3     1  LIG1       -0.5058
     34 O           1.6846   -4.5571    0.7494 O.2     1  LIG1       -0.2917
     35 C          -3.4765   -2.8893   -0.0053 C.ar    1  LIG1       -0.0516
     36 C          -4.8299   -2.8032    0.3290 C.ar    1  LIG1       -0.0198
     37 H          -6.6858   -1.3505    2.4380 H       1  LIG1        0.2921
     38 H          -4.5939   -0.6936    2.9926 H       1  LIG1        0.0654
     39 H          -2.2176   -0.8448    2.4154 H       1  LIG1        0.0623
     40 H          -0.9565   -2.4435   -0.7143 H       1  LIG1        0.0789
     41 H          -0.8830   -4.4061    0.8527 H       1  LIG1        0.0385
     42 H          -0.4832   -3.3296    2.2163 H       1  LIG1        0.0385
     43 H           4.8243   -0.9181    0.2021 H       1  LIG1        0.0691
     44 H           3.3335    2.8818   -0.6140 H       1  LIG1        0.2100
     45 H          -1.4381    4.2282   -1.7241 H       1  LIG1        0.2100
     46 H           2.0798    1.1966   -2.2387 H       1  LIG1        0.0584
     47 H           0.7652    0.4753   -3.1255 H       1  LIG1        0.0584
     48 H           2.2383    2.7987   -3.6675 H       1  LIG1        0.2095
     49 H          -0.4568    3.8623    0.7757 H       1  LIG1        0.2100
     50 H           4.6280    1.2300    0.3354 H       1  LIG1        0.2922
     51 H           3.3477   -4.0661    0.5259 H       1  LIG1        0.2922
     52 H          -3.1830   -3.5115   -0.8479 H       1  LIG1        0.0623
     53 H          -5.5726   -3.3476   -0.2475 H       1  LIG1        0.0654
@<TRIPOS>BOND
     1     1     2    1
     2     2     3   ar
     3     3     4   ar
     4     4     5   ar
     5     5     6    1
     6     6     7    1
     7     7     8    1
     8     8     9    1
     9     9    10   ar
    10    10    11   ar
    11    11    12   ar
    12    12    13   ar
    13    13    14    1
    14    14    15    1
    15    14    16    1
    16    16    17    1
    17    17    19    1
    18    19    20    1
    19    19    21    1
    20    19    24    1
    21    25    26    1
    22    14    27    1
    23    21    27    1
    24    13    30   ar
    25     9    30   ar
    26    30    31    1
    27     6    31    1
    28    12    32    1
    29    10    33    1
    30     8    34    2
    31     5    35   ar
    32    35    36   ar
    33     2    36   ar
    34    17    25    1
    35    17    18    1
    36    21    23    1
    37    21    22    1
    38    27    29    1
    39    27    28    1
    40     1    37    1
    41     3    38    1
    42     4    39    1
    43     6    40    1
    44     7    41    1
    45     7    42    1
    46    11    43    1
    47    23    44    1
    48    24    45    1
    49    25    46    1
    50    25    47    1
    51    26    48    1
    52    29    49    1
    53    32    50    1
    54    33    51    1
    55    35    52    1
    56    36    53    1
