@<TRIPOS>MOLECULE
NuBBE_1588
 46 49 0 0 0
SMALL
GASTEIGER

@<TRIPOS>ATOM
      1 C           2.6890   -5.1656   -0.6517 C.3     1  LIG1        0.0790
      2 O           2.0882   -3.9448   -1.0717 O.3     1  LIG1       -0.4905
      3 C           2.0776   -2.8579   -0.2273 C.ar    1  LIG1        0.1795
      4 C           2.6478   -2.8030    1.0823 C.ar    1  LIG1        0.2045
      5 O           3.3355   -3.9055    1.5320 O.3     1  LIG1       -0.4885
      6 C           3.2775   -4.2244    2.9209 C.3     1  LIG1        0.0791
      7 C           2.5560   -1.6078    1.8335 C.ar    1  LIG1        0.1687
      8 O           3.1926   -1.5063    3.0472 O.3     1  LIG1       -0.4912
      9 C           3.4930   -0.1750    3.4738 C.3     1  LIG1        0.0790
     10 C           1.7902   -0.5518    1.3480 C.ar    1  LIG1        0.0270
     11 C           1.1875   -0.6217    0.1096 C.ar    1  LIG1        0.1465
     12 O           0.4012    0.4590   -0.1997 O.2     1  LIG1       -0.4543
     13 C          -0.5264    0.3033   -1.2097 C.ar    1  LIG1        0.1395
     14 C          -1.6086    1.3226   -1.1949 C.ar    1  LIG1        0.0245
     15 C          -1.3934    2.6148   -0.6394 C.ar    1  LIG1       -0.0054
     16 C          -2.3900    3.6105   -0.6507 C.ar    1  LIG1        0.1660
     17 O          -2.0522    4.8157   -0.0976 O.3     1  LIG1       -0.4913
     18 C          -2.7341    5.9520   -0.6294 C.3     1  LIG1        0.0790
     19 C          -3.6167    3.2721   -1.1878 C.ar    1  LIG1        0.2076
     20 O          -4.7256    4.0556   -1.2854 O.3     1  LIG1       -0.4489
     21 C          -5.6576    3.1707   -1.9243 C.3     1  LIG1        0.2334
     22 O          -5.1137    1.8627   -2.1735 O.3     1  LIG1       -0.4524
     23 C          -3.8476    2.0134   -1.6939 C.ar    1  LIG1        0.1706
     24 C          -2.8803    1.0270   -1.7072 C.ar    1  LIG1       -0.0052
     25 C          -0.4043   -0.6578   -2.1371 C.ar    1  LIG1        0.0288
     26 C           1.3673   -1.7268   -0.7093 C.ar    1  LIG1        0.1093
     27 C           0.7631   -1.5856   -2.0616 C.ar    1  LIG1        0.1967
     28 O           1.1887   -2.1119   -3.0642 O.2     1  LIG1       -0.2869
     29 H           2.2365   -5.5430    0.2716 H       1  LIG1        0.0660
     30 H           3.7758   -5.0589   -0.5661 H       1  LIG1        0.0660
     31 H           2.5005   -5.9278   -1.4150 H       1  LIG1        0.0660
     32 H           2.3517   -3.8997    3.4080 H       1  LIG1        0.0660
     33 H           4.1588   -3.8192    3.4265 H       1  LIG1        0.0660
     34 H           3.3245   -5.3156    3.0172 H       1  LIG1        0.0660
     35 H           4.1669    0.3121    2.7598 H       1  LIG1        0.0660
     36 H           3.9887   -0.2264    4.4450 H       1  LIG1        0.0660
     37 H           2.5905    0.4257    3.6287 H       1  LIG1        0.0660
     38 H           1.6117    0.3519    1.9151 H       1  LIG1        0.0692
     39 H          -0.4237    2.8694   -0.2121 H       1  LIG1        0.0662
     40 H          -2.3567    6.8462   -0.1241 H       1  LIG1        0.0660
     41 H          -3.8080    5.9306   -0.4301 H       1  LIG1        0.0660
     42 H          -2.5294    6.0567   -1.7006 H       1  LIG1        0.0660
     43 H          -5.9630    3.6175   -2.8776 H       1  LIG1        0.1166
     44 H          -6.5397    3.0734   -1.2821 H       1  LIG1        0.1166
     45 H          -3.1289    0.0505   -2.1073 H       1  LIG1        0.0662
     46 H          -1.0609   -0.7771   -2.9879 H       1  LIG1        0.0693
@<TRIPOS>BOND
     1     1     2    1
     2     2     3    1
     3     3     4   ar
     4     4     5    1
     5     5     6    1
     6     4     7   ar
     7     7     8    1
     8     8     9    1
     9     7    10   ar
    10    10    11   ar
    11    11    12   ar
    12    12    13   ar
    13    13    14    1
    14    14    15   ar
    15    15    16   ar
    16    16    17    1
    17    17    18    1
    18    16    19   ar
    19    19    20    1
    20    20    21    1
    21    21    22    1
    22    19    23   ar
    23    22    23    1
    24    23    24   ar
    25    14    24   ar
    26    13    25   ar
    27    11    26   ar
    28     3    26   ar
    29    26    27   ar
    30    25    27   ar
    31    27    28    2
    32     1    29    1
    33     1    30    1
    34     1    31    1
    35     6    32    1
    36     6    33    1
    37     6    34    1
    38     9    35    1
    39     9    36    1
    40     9    37    1
    41    10    38    1
    42    15    39    1
    43    18    40    1
    44    18    41    1
    45    18    42    1
    46    21    43    1
    47    21    44    1
    48    24    45    1
    49    25    46    1
