@<TRIPOS>MOLECULE
NuBBE_2314
 54 57 0 0 0
SMALL
GASTEIGER

@<TRIPOS>ATOM
      1 C          -3.1819   -0.5493   -0.1770 C.ar    1  LIG1        0.1656
      2 C          -3.9437    0.3847    0.4999 C.ar    1  LIG1        0.2075
      3 C          -3.3566    1.4393    1.1610 C.ar    1  LIG1        0.1702
      4 C          -1.9866    1.6303    1.1761 C.ar    1  LIG1       -0.0124
      5 C          -1.1715    0.7162    0.4863 C.ar    1  LIG1       -0.0339
      6 C           0.3496    0.8761    0.5057 C.3     1  LIG1        0.0220
      7 H           0.5673    1.7448    1.1407 H       1  LIG1        0.0381
      8 C           1.0319   -0.3909    1.1405 C.3     1  LIG1       -0.0255
      9 H           0.3202   -1.2245    1.1185 H       1  LIG1        0.0311
     10 C           2.2230   -0.7627    0.1995 C.3     1  LIG1        0.0129
     11 C           3.5086    0.0498    0.4775 C.3     1  LIG1        0.0172
     12 C           3.3089    1.5446    0.3286 C.2     1  LIG1        0.1651
     13 O           3.9802    2.3428    0.9737 O.2     1  LIG1       -0.2945
     14 C           2.3107    2.0353   -0.7259 C.3     1  LIG1        0.1447
     15 C           1.0953    1.0753   -0.8675 C.3     1  LIG1        0.1348
     16 C           1.6503   -0.3370   -1.1609 C.3     1  LIG1        0.0941
     17 O           2.6398   -0.3546   -2.1831 O.3     1  LIG1       -0.3882
     18 O           0.2497    1.3999   -1.9837 O.3     1  LIG1       -0.3704
     19 C          -0.2813    2.7187   -1.9983 C.3     1  LIG1        0.0374
     20 O           1.9106    3.3554   -0.3315 O.3     1  LIG1       -0.3813
     21 C           2.5918   -2.2721    0.2224 C.3     1  LIG1       -0.0262
     22 C           1.4907   -3.2235   -0.1795 C.2     1  LIG1       -0.0905
     23 C           1.3076   -3.6765   -1.4277 C.2     1  LIG1       -0.1026
     24 C           1.3590   -0.1898    2.6174 C.3     1  LIG1       -0.0612
     25 C          -1.7929   -0.3594   -0.1900 C.ar    1  LIG1       -0.0125
     26 O          -4.2664    2.2350    1.7888 O.3     1  LIG1       -0.4525
     27 C          -5.4919    1.5380    1.4857 C.3     1  LIG1        0.2334
     28 O          -5.3012    0.3925    0.6332 O.3     1  LIG1       -0.4489
     29 O          -3.8237   -1.5712   -0.8183 O.3     1  LIG1       -0.4913
     30 C          -3.0887   -2.7894   -0.9086 C.3     1  LIG1        0.0790
     31 H          -1.5686    2.4764    1.7124 H       1  LIG1        0.0658
     32 H           4.3151   -0.2276   -0.2136 H       1  LIG1        0.0349
     33 H           3.8814   -0.1448    1.4916 H       1  LIG1        0.0349
     34 H           2.8371    2.1355   -1.6814 H       1  LIG1        0.0703
     35 H           0.8441   -0.9926   -1.4973 H       1  LIG1        0.0629
     36 H           2.1512   -0.3227   -3.0292 H       1  LIG1        0.2099
     37 H           0.4777    3.4273   -2.3398 H       1  LIG1        0.0524
     38 H          -0.6725    3.0205   -1.0246 H       1  LIG1        0.0524
     39 H          -1.1013    2.7443   -2.7211 H       1  LIG1        0.0524
     40 H           2.7333    3.8093   -0.0547 H       1  LIG1        0.2105
     41 H           2.9210   -2.5525    1.2315 H       1  LIG1        0.0314
     42 H           3.4601   -2.4483   -0.4278 H       1  LIG1        0.0314
     43 H           0.8209   -3.5674    0.6059 H       1  LIG1        0.0566
     44 H           1.9465   -3.3614   -2.2489 H       1  LIG1        0.0532
     45 H           0.4961   -4.3584   -1.6636 H       1  LIG1        0.0532
     46 H           2.1120    0.5858    2.7786 H       1  LIG1        0.0233
     47 H           1.7197   -1.1211    3.0647 H       1  LIG1        0.0233
     48 H           0.4595    0.1145    3.1643 H       1  LIG1        0.0233
     49 H          -1.1665   -1.0498   -0.7389 H       1  LIG1        0.0658
     50 H          -6.1830    2.2357    0.9982 H       1  LIG1        0.1166
     51 H          -5.9455    1.2039    2.4271 H       1  LIG1        0.1166
     52 H          -3.7027   -3.5181   -1.4454 H       1  LIG1        0.0660
     53 H          -2.8807   -3.1867    0.0909 H       1  LIG1        0.0660
     54 H          -2.1636   -2.6794   -1.4825 H       1  LIG1        0.0660
@<TRIPOS>BOND
     1     1     2   ar
     2     2     3   ar
     3     3     4   ar
     4     4     5   ar
     5     5     6    1
     6     6     7    1
     7     6     8    1
     8     8    10    1
     9    10    11    1
    10    11    12    1
    11    12    13    2
    12    12    14    1
    13    14    15    1
    14     6    15    1
    15    15    16    1
    16    10    16    1
    17    16    17    1
    18    15    18    1
    19    18    19    1
    20    14    20    1
    21    10    21    1
    22    21    22    1
    23    22    23    2
    24     5    25   ar
    25     1    25   ar
    26     3    26    1
    27    26    27    1
    28    27    28    1
    29     2    28    1
    30     1    29    1
    31    29    30    1
    32     8    24    1
    33     8     9    1
    34     4    31    1
    35    11    32    1
    36    11    33    1
    37    14    34    1
    38    16    35    1
    39    17    36    1
    40    19    37    1
    41    19    38    1
    42    19    39    1
    43    20    40    1
    44    21    41    1
    45    21    42    1
    46    22    43    1
    47    23    44    1
    48    23    45    1
    49    24    46    1
    50    24    47    1
    51    24    48    1
    52    25    49    1
    53    27    50    1
    54    27    51    1
    55    30    52    1
    56    30    53    1
    57    30    54    1
