@<TRIPOS>MOLECULE
NuBBE_1548
 68 71 0 0 0
SMALL
GASTEIGER

@<TRIPOS>ATOM
      1 C          -3.3548   -1.8036    0.3355 C.3     1  LIG1       -0.0589
      2 C          -1.9233   -1.1856    0.1507 C.3     1  LIG1       -0.0226
      3 C          -2.0598    0.3201    0.6798 C.3     1  LIG1       -0.0321
      4 H          -2.9293    0.2632    1.3576 H       1  LIG1        0.0309
      5 C          -0.9903    0.8502    1.6684 C.3     1  LIG1       -0.0340
      6 H          -1.5254    1.6152    2.2566 H       1  LIG1        0.0307
      7 C          -0.5368   -0.1634    2.7406 C.3     1  LIG1       -0.0494
      8 C          -1.0240   -1.5876    2.5230 C.3     1  LIG1       -0.0493
      9 C          -0.9445   -2.0096    1.0540 C.3     1  LIG1       -0.0318
     10 H          -1.2837   -3.0555    1.0263 H       1  LIG1        0.0307
     11 C           0.5304   -2.0469    0.6025 C.3     1  LIG1       -0.0088
     12 C           0.7591   -1.7995   -0.8823 C.3     1  LIG1        0.1400
     13 H           0.8264   -0.7241   -1.0778 H       1  LIG1        0.0771
     14 O           2.0063   -2.3947   -1.2721 O.3     1  LIG1       -0.4578
     15 C           3.1139   -1.6649   -0.9584 C.2     1  LIG1        0.3043
     16 C           4.3548   -2.4213   -1.3109 C.3     1  LIG1        0.0332
     17 O           3.1133   -0.5668   -0.4183 O.2     1  LIG1       -0.2512
     18 C          -0.4184   -2.3187   -1.7071 C.3     1  LIG1        0.1402
     19 H          -0.2040   -2.2598   -2.7820 H       1  LIG1        0.0771
     20 O          -0.7856   -3.6757   -1.3765 O.3     1  LIG1       -0.4578
     21 C          -0.0906   -4.6752   -1.9788 C.2     1  LIG1        0.3043
     22 C          -0.6211   -6.0123   -1.5565 C.3     1  LIG1        0.0332
     23 O           0.8214   -4.5306   -2.7846 O.2     1  LIG1       -0.2512
     24 C          -1.6156   -1.4021   -1.3821 C.3     1  LIG1       -0.0062
     25 C           0.1950    1.6206    1.0207 C.3     1  LIG1       -0.0252
     26 H           0.9183    0.8942    0.6380 H       1  LIG1        0.0313
     27 C          -0.2243    2.6054   -0.1264 C.3     1  LIG1       -0.0191
     28 C           0.2434    2.0936   -1.5014 C.3     1  LIG1       -0.0586
     29 C           0.4408    3.9892    0.2005 C.3     1  LIG1        0.0229
     30 H          -0.2426    4.8153   -0.0256 H       1  LIG1        0.0383
     31 C           1.8199    4.2424   -0.4413 C.3     1  LIG1       -0.0459
     32 C           2.4206    5.5979   -0.0897 C.3     1  LIG1       -0.0646
     33 C           0.6203    3.8719    1.6893 C.2     1  LIG1        0.1372
     34 C           0.9034    2.4637    2.1031 C.3     1  LIG1        0.0097
     35 O           0.6286    4.8231    2.4608 O.2     1  LIG1       -0.2971
     36 C          -1.7698    2.7530   -0.1513 C.3     1  LIG1       -0.0464
     37 C          -2.5107    1.4146   -0.3174 C.3     1  LIG1       -0.0489
     38 H          -3.6653   -1.8261    1.3852 H       1  LIG1        0.0235
     39 H          -3.3973   -2.8348   -0.0335 H       1  LIG1        0.0235
     40 H          -4.1031   -1.2200   -0.2145 H       1  LIG1        0.0235
     41 H          -0.8982    0.1676    3.7234 H       1  LIG1        0.0268
     42 H           0.5555   -0.1636    2.8371 H       1  LIG1        0.0268
     43 H          -2.0515   -1.6803    2.8908 H       1  LIG1        0.0268
     44 H          -0.4250   -2.2699    3.1396 H       1  LIG1        0.0268
     45 H           0.9501   -3.0230    0.8832 H       1  LIG1        0.0305
     46 H           1.1493   -1.3352    1.1546 H       1  LIG1        0.0305
     47 H           5.2061   -1.7344   -1.3038 H       1  LIG1        0.0342
     48 H           4.2667   -2.8437   -2.3144 H       1  LIG1        0.0342
     49 H           4.5206   -3.2095   -0.5729 H       1  LIG1        0.0342
     50 H          -1.3629   -5.9069   -0.7611 H       1  LIG1        0.0342
     51 H           0.1988   -6.6295   -1.1788 H       1  LIG1        0.0342
     52 H          -1.0965   -6.4972   -2.4149 H       1  LIG1        0.0342
     53 H          -2.4962   -1.8142   -1.8937 H       1  LIG1        0.0307
     54 H          -1.4197   -0.4582   -1.8812 H       1  LIG1        0.0307
     55 H           1.3198    1.8951   -1.5225 H       1  LIG1        0.0235
     56 H           0.0089    2.8188   -2.2890 H       1  LIG1        0.0235
     57 H          -0.2377    1.1617   -1.7805 H       1  LIG1        0.0235
     58 H           1.7339    4.2087   -1.5328 H       1  LIG1        0.0269
     59 H           2.5324    3.4618   -0.1465 H       1  LIG1        0.0269
     60 H           1.7526    6.4115   -0.3875 H       1  LIG1        0.0230
     61 H           3.3712    5.7297   -0.6174 H       1  LIG1        0.0230
     62 H           2.6260    5.6866    0.9806 H       1  LIG1        0.0230
     63 H           0.5325    2.2979    3.1179 H       1  LIG1        0.0345
     64 H           1.9854    2.3016    2.0796 H       1  LIG1        0.0345
     65 H          -2.0696    3.4248   -0.9659 H       1  LIG1        0.0271
     66 H          -2.1153    3.2381    0.7717 H       1  LIG1        0.0271
     67 H          -2.4512    1.1013   -1.3587 H       1  LIG1        0.0268
     68 H          -3.5815    1.6058   -0.1612 H       1  LIG1        0.0268
@<TRIPOS>BOND
     1     1     2    1
     2     2     3    1
     3     3     4    1
     4     3     5    1
     5     5     6    1
     6     5     7    1
     7     7     8    1
     8     8     9    1
     9     9    10    1
    10     2     9    1
    11     9    11    1
    12    11    12    1
    13    14    15    1
    14    15    16    1
    15    15    17    2
    16    12    18    1
    17    20    21    1
    18    21    22    1
    19    21    23    2
    20    18    24    1
    21     2    24    1
    22     5    25    1
    23    25    26    1
    24    25    27    1
    25    27    28    1
    26    27    29    1
    27    29    30    1
    28    29    31    1
    29    31    32    1
    30    29    33    1
    31    33    34    1
    32    25    34    1
    33    33    35    2
    34    27    36    1
    35    36    37    1
    36     3    37    1
    37    12    14    1
    38    12    13    1
    39    18    20    1
    40    18    19    1
    41     1    38    1
    42     1    39    1
    43     1    40    1
    44     7    41    1
    45     7    42    1
    46     8    43    1
    47     8    44    1
    48    11    45    1
    49    11    46    1
    50    16    47    1
    51    16    48    1
    52    16    49    1
    53    22    50    1
    54    22    51    1
    55    22    52    1
    56    24    53    1
    57    24    54    1
    58    28    55    1
    59    28    56    1
    60    28    57    1
    61    31    58    1
    62    31    59    1
    63    32    60    1
    64    32    61    1
    65    32    62    1
    66    34    63    1
    67    34    64    1
    68    36    65    1
    69    36    66    1
    70    37    67    1
    71    37    68    1
