@<TRIPOS>MOLECULE
NuBBE_2494
 48 50 0 0 0
SMALL
GASTEIGER

@<TRIPOS>ATOM
      1 C           0.1508    4.2205   -2.1524 C.3     1  LIG1       -0.0612
      2 C           0.2825    3.7771   -0.7004 C.3     1  LIG1       -0.0296
      3 C           0.9982    2.4443   -0.5551 C.ar    1  LIG1       -0.0340
      4 C           2.4097    2.4262   -0.4368 C.ar    1  LIG1       -0.0466
      5 C           3.2413    3.6840   -0.4346 C.3     1  LIG1       -0.0394
      6 C           3.0745    1.2040   -0.2834 C.ar    1  LIG1       -0.0583
      7 C           2.3769   -0.0013   -0.2406 C.ar    1  LIG1       -0.0571
      8 C           0.9818   -0.0299   -0.3449 C.ar    1  LIG1       -0.0304
      9 C           0.2932    1.2072   -0.5233 C.ar    1  LIG1        0.0245
     10 C          -1.2051    1.1528   -0.6805 C.2     1  LIG1        0.1640
     11 O          -1.8216    2.0027   -1.3174 O.2     1  LIG1       -0.2920
     12 C          -1.9663   -0.0095   -0.0698 C.3     1  LIG1        0.0150
     13 C          -1.0420   -0.9980    0.6387 C.3     1  LIG1       -0.0128
     14 C          -1.7502   -2.2049    1.3331 C.3     1  LIG1        0.0274
     15 C          -2.8015   -1.6954    2.3434 C.3     1  LIG1       -0.0528
     16 C          -2.4450   -3.1774    0.3723 C.3     1  LIG1       -0.0528
     17 C          -0.6885   -2.9874    2.1308 C.2     1  LIG1        0.1393
     18 O          -0.9932   -3.7916    3.0123 O.2     1  LIG1       -0.2968
     19 C           0.7681   -2.7255    1.8033 C.3     1  LIG1        0.0072
     20 C           0.9207   -2.5910    0.2965 C.3     1  LIG1       -0.0366
     21 C           0.1776   -1.3491   -0.2862 C.3     1  LIG1       -0.0019
     22 C          -0.1764   -1.7021   -1.7549 C.3     1  LIG1       -0.0552
     23 H          -0.3978    5.1662   -2.2073 H       1  LIG1        0.0233
     24 H          -0.3820    3.4841   -2.7611 H       1  LIG1        0.0233
     25 H           1.1301    4.3751   -2.6156 H       1  LIG1        0.0233
     26 H          -0.6978    3.7465   -0.2136 H       1  LIG1        0.0311
     27 H           0.8163    4.5525   -0.1387 H       1  LIG1        0.0311
     28 H           3.0432    4.2663    0.4707 H       1  LIG1        0.0278
     29 H           3.0346    4.2928   -1.3187 H       1  LIG1        0.0278
     30 H           4.3131    3.4572   -0.4513 H       1  LIG1        0.0278
     31 H           4.1597    1.1796   -0.1914 H       1  LIG1        0.0620
     32 H           2.9709   -0.9016   -0.1273 H       1  LIG1        0.0621
     33 H          -2.5323   -0.4993   -0.8686 H       1  LIG1        0.0348
     34 H          -2.6795    0.4254    0.6382 H       1  LIG1        0.0348
     35 H          -0.6238   -0.4263    1.4876 H       1  LIG1        0.0323
     36 H          -3.6422   -1.2058    1.8414 H       1  LIG1        0.0239
     37 H          -2.3596   -0.9833    3.0498 H       1  LIG1        0.0239
     38 H          -3.2208   -2.5160    2.9377 H       1  LIG1        0.0239
     39 H          -3.1340   -2.6600   -0.3020 H       1  LIG1        0.0239
     40 H          -3.0305   -3.9207    0.9276 H       1  LIG1        0.0239
     41 H          -1.7355   -3.7502   -0.2290 H       1  LIG1        0.0239
     42 H           1.3578   -3.5790    2.1554 H       1  LIG1        0.0342
     43 H           1.1085   -1.8320    2.3352 H       1  LIG1        0.0342
     44 H           0.5040   -3.5039   -0.1512 H       1  LIG1        0.0278
     45 H           1.9775   -2.6233    0.0226 H       1  LIG1        0.0278
     46 H           0.7324   -1.9591   -2.3143 H       1  LIG1        0.0238
     47 H          -0.6486   -0.8811   -2.3033 H       1  LIG1        0.0238
     48 H          -0.8494   -2.5599   -1.8229 H       1  LIG1        0.0238
@<TRIPOS>BOND
     1     1     2    1
     2     2     3    1
     3     3     4   ar
     4     4     5    1
     5     4     6   ar
     6     6     7   ar
     7     7     8   ar
     8     8     9   ar
     9     3     9   ar
    10     9    10    1
    11    10    11    2
    12    10    12    1
    13    12    13    1
    14    13    14    1
    15    14    15    1
    16    14    16    1
    17    14    17    1
    18    17    18    2
    19    17    19    1
    20    19    20    1
    21    20    21    1
    22     8    21    1
    23    13    21    1
    24    21    22    1
    25     1    23    1
    26     1    24    1
    27     1    25    1
    28     2    26    1
    29     2    27    1
    30     5    28    1
    31     5    29    1
    32     5    30    1
    33     6    31    1
    34     7    32    1
    35    12    33    1
    36    12    34    1
    37    13    35    1
    38    15    36    1
    39    15    37    1
    40    15    38    1
    41    16    39    1
    42    16    40    1
    43    16    41    1
    44    19    42    1
    45    19    43    1
    46    20    44    1
    47    20    45    1
    48    22    46    1
    49    22    47    1
    50    22    48    1
