@<TRIPOS>MOLECULE
NuBBE_56
 71 75 0 0 0
SMALL
GASTEIGER

@<TRIPOS>ATOM
      1 O          -5.0243   -4.0555    1.2108 O.3     1  LIG1       -0.3829
      2 C          -5.4260   -3.0454    0.2621 C.3     1  LIG1        0.1454
      3 H          -6.0811   -2.3310    0.7744 H       1  LIG1        0.0683
      4 C          -6.1867   -3.7627   -0.8548 C.3     1  LIG1        0.1151
      5 H          -7.1204   -4.1597   -0.4408 H       1  LIG1        0.0648
      6 C          -6.4798   -2.8103   -2.0140 C.3     1  LIG1        0.1096
      7 H          -6.9453   -3.3535   -2.8431 H       1  LIG1        0.0646
      8 C          -5.2123   -2.0874   -2.5063 C.3     1  LIG1        0.0883
      9 H          -5.5368   -1.2656   -3.1581 H       1  LIG1        0.0621
     10 O          -4.5498   -1.4450   -1.4051 O.3     1  LIG1       -0.3339
     11 C          -4.2004   -2.3147   -0.3202 C.3     1  LIG1        0.2307
     12 H          -3.5070   -3.0904   -0.6516 H       1  LIG1        0.1084
     13 O          -3.6246   -1.5321    0.7421 O.3     1  LIG1       -0.4606
     14 C          -2.2705   -1.3296    0.7273 C.ar    1  LIG1        0.1310
     15 C          -1.3824   -1.8560   -0.2192 C.ar    1  LIG1        0.0226
     16 C          -0.0131   -1.6317   -0.1024 C.ar    1  LIG1        0.1348
     17 O           0.8389   -2.1115   -1.0520 O.3     1  LIG1       -0.5058
     18 C           0.4583   -0.8586    0.9449 C.ar    1  LIG1        0.1092
     19 C           1.8819   -0.5919    1.1609 C.ar    1  LIG1        0.2382
     20 C           2.1797    0.7923    1.6268 C.ar    1  LIG1        0.2138
     21 O           3.3536    1.4262    1.2331 O.3     1  LIG1       -0.4532
     22 C           3.8625    1.0973   -0.0875 C.3     1  LIG1        0.2311
     23 H           3.5769    0.0909   -0.3857 H       1  LIG1        0.1084
     24 O           5.3009    1.1506   -0.0644 O.3     1  LIG1       -0.3339
     25 C           5.9433    0.8487   -1.3147 C.3     1  LIG1        0.0883
     26 H           6.9948    1.1152   -1.1487 H       1  LIG1        0.0621
     27 C           5.4216    1.7132   -2.4822 C.3     1  LIG1        0.1096
     28 H           5.7930    1.3137   -3.4340 H       1  LIG1        0.0646
     29 C           3.8944    1.7916   -2.5086 C.3     1  LIG1        0.1151
     30 H           3.5699    2.5646   -3.2150 H       1  LIG1        0.0648
     31 C           3.3216    2.1122   -1.1205 C.3     1  LIG1        0.1454
     32 H           3.6006    3.1278   -0.8139 H       1  LIG1        0.0683
     33 O           1.8835    2.0561   -1.2214 O.3     1  LIG1       -0.3829
     34 O           3.3356    0.5607   -2.9921 O.3     1  LIG1       -0.3864
     35 O           5.9361    3.0478   -2.3607 O.3     1  LIG1       -0.3866
     36 C           5.9368   -0.6405   -1.6557 C.3     1  LIG1       -0.0360
     37 C           1.2481    1.3044    2.4680 C.ar    1  LIG1        0.1809
     38 O           0.0567    0.6164    2.7837 O.2     1  LIG1       -0.4507
     39 C          -0.4107   -0.2603    1.8338 C.ar    1  LIG1        0.1465
     40 C          -1.7781   -0.5197    1.7601 C.ar    1  LIG1        0.0235
     41 C           1.3301    2.6012    3.1931 C.ar    1  LIG1        0.0213
     42 C           0.1542    3.2692    3.6005 C.ar    1  LIG1       -0.0475
     43 C           0.2044    4.4561    4.3445 C.ar    1  LIG1       -0.0195
     44 C           1.4397    4.9865    4.6887 C.ar    1  LIG1        0.1169
     45 C           2.6112    4.3474    4.3096 C.ar    1  LIG1       -0.0195
     46 C           2.5565    3.1614    3.5711 C.ar    1  LIG1       -0.0475
     47 O           1.5534    6.1372    5.4096 O.3     1  LIG1       -0.5068
     48 O           2.7319   -1.4416    1.0034 O.2     1  LIG1       -0.2830
     49 C          -4.2551   -2.9404   -3.3333 C.3     1  LIG1       -0.0360
     50 O          -7.4265   -1.8279   -1.5558 O.3     1  LIG1       -0.3866
     51 O          -5.4277   -4.8948   -1.3013 O.3     1  LIG1       -0.3864
     52 H          -5.2023   -3.6957    2.0993 H       1  LIG1        0.2102
     53 H          -1.7229   -2.4366   -1.0654 H       1  LIG1        0.0691
     54 H           0.3618   -2.6780   -1.6787 H       1  LIG1        0.2922
     55 H           1.6064    2.8992   -1.6262 H       1  LIG1        0.2102
     56 H           2.4043    0.5482   -2.6893 H       1  LIG1        0.2100
     57 H           6.9023    2.9764   -2.2527 H       1  LIG1        0.2100
     58 H           4.9305   -1.0594   -1.7187 H       1  LIG1        0.0255
     59 H           6.4748   -1.2092   -0.8908 H       1  LIG1        0.0255
     60 H           6.4386   -0.8132   -2.6155 H       1  LIG1        0.0255
     61 H          -2.4577   -0.0757    2.4826 H       1  LIG1        0.0691
     62 H          -0.8267    2.8638    3.3549 H       1  LIG1        0.0626
     63 H          -0.7206    4.9324    4.6555 H       1  LIG1        0.0654
     64 H           3.5733    4.7635    4.5925 H       1  LIG1        0.0654
     65 H           3.4945    2.6743    3.3187 H       1  LIG1        0.0626
     66 H           0.6866    6.5733    5.4411 H       1  LIG1        0.2921
     67 H          -4.7762   -3.4062   -4.1759 H       1  LIG1        0.0255
     68 H          -3.7666   -3.7257   -2.7528 H       1  LIG1        0.0255
     69 H          -3.4500   -2.3138   -3.7333 H       1  LIG1        0.0255
     70 H          -6.9337   -1.0098   -1.3513 H       1  LIG1        0.2100
     71 H          -5.1277   -5.3384   -0.4794 H       1  LIG1        0.2100
@<TRIPOS>BOND
     1     2     4    1
     2     4     6    1
     3     6     8    1
     4     8     9    1
     5     8    10    1
     6    10    11    1
     7     2    11    1
     8    13    14    1
     9    14    15   ar
    10    15    16   ar
    11    16    17    1
    12    16    18   ar
    13    18    19   ar
    14    19    20   ar
    15    20    21    1
    16    22    24    1
    17    24    25    1
    18    25    27    1
    19    27    28    1
    20    27    29    1
    21    29    31    1
    22    22    31    1
    23    27    35    1
    24    20    37   ar
    25    37    38   ar
    26    38    39   ar
    27    18    39   ar
    28    39    40   ar
    29    14    40   ar
    30    37    41    1
    31    41    42   ar
    32    42    43   ar
    33    43    44   ar
    34    44    45   ar
    35    45    46   ar
    36    41    46   ar
    37    44    47    1
    38    19    48    2
    39     8    49    1
    40     4    51    1
    41     4     5    1
    42     2     3    1
    43     2     1    1
    44     6    50    1
    45     6     7    1
    46    11    13    1
    47    11    12    1
    48    22    23    1
    49    22    21    1
    50    25    36    1
    51    25    26    1
    52    29    34    1
    53    29    30    1
    54    31    33    1
    55    31    32    1
    56     1    52    1
    57    15    53    1
    58    17    54    1
    59    33    55    1
    60    34    56    1
    61    35    57    1
    62    36    58    1
    63    36    59    1
    64    36    60    1
    65    40    61    1
    66    42    62    1
    67    43    63    1
    68    45    64    1
    69    46    65    1
    70    47    66    1
    71    49    67    1
    72    49    68    1
    73    49    69    1
    74    50    70    1
    75    51    71    1
