@<TRIPOS>MOLECULE
NuBBE_1302
 49 51 0 0 0
SMALL
GASTEIGER

@<TRIPOS>ATOM
      1 O          -3.2567   -0.8239   -0.8806 O.2     1  LIG1       -0.2870
      2 C          -2.0700   -0.7993   -0.5713 C.2     1  LIG1        0.1931
      3 C          -1.2429    0.4141   -0.7725 C.2     1  LIG1       -0.0135
      4 C          -1.8106    1.6196   -0.9344 C.2     1  LIG1       -0.0510
      5 C          -1.0207    2.8336   -1.1803 C.ar    1  LIG1       -0.0247
      6 C          -1.5612    3.8812   -1.9333 C.ar    1  LIG1       -0.0511
      7 C          -0.8098    5.0359   -2.1918 C.ar    1  LIG1       -0.0194
      8 C           0.4824    5.1637   -1.6820 C.ar    1  LIG1        0.1201
      9 C           1.0227    4.1284   -0.9247 C.ar    1  LIG1       -0.0194
     10 C           0.2710    2.9835   -0.6616 C.ar    1  LIG1       -0.0511
     11 O           1.3144    6.2284   -1.8892 O.3     1  LIG1       -0.4951
     12 C           0.6660    7.4765   -2.1030 C.3     1  LIG1        0.0788
     13 C          -1.4046   -2.0589   -0.1361 C.ar    1  LIG1        0.1054
     14 C          -1.8870   -3.2556   -0.6878 C.ar    1  LIG1        0.1347
     15 C          -1.3228   -4.4846   -0.3577 C.ar    1  LIG1        0.0231
     16 C          -0.2786   -4.5538    0.5642 C.ar    1  LIG1        0.1342
     17 C           0.2142   -3.3634    1.1431 C.ar    1  LIG1        0.0591
     18 C          -0.3411   -2.1160    0.7845 C.ar    1  LIG1        0.1467
     19 O           0.0873   -0.9457    1.3658 O.3     1  LIG1       -0.4807
     20 C           1.3904   -0.9197    1.9922 C.3     1  LIG1        0.1235
     21 C           2.4047   -0.4043    0.9635 C.3     1  LIG1       -0.0215
     22 C           1.2883    0.0816    3.1501 C.3     1  LIG1       -0.0215
     23 C           1.8435   -2.2514    2.5249 C.2     1  LIG1       -0.0408
     24 C           1.2895   -3.4019    2.1362 C.2     1  LIG1       -0.0478
     25 O           0.3140   -5.7284    0.9603 O.3     1  LIG1       -0.4943
     26 C          -0.1713   -6.9338    0.3795 C.3     1  LIG1        0.0788
     27 O          -2.9241   -3.3059   -1.5857 O.3     1  LIG1       -0.5058
     28 H          -0.1716    0.2700   -0.8254 H       1  LIG1        0.0656
     29 H          -2.8935    1.7322   -0.9088 H       1  LIG1        0.0625
     30 H          -2.5645    3.8069   -2.3483 H       1  LIG1        0.0625
     31 H          -1.2529    5.8054   -2.8145 H       1  LIG1        0.0654
     32 H           2.0293    4.2126   -0.5242 H       1  LIG1        0.0654
     33 H           0.7124    2.2110   -0.0418 H       1  LIG1        0.0625
     34 H           1.4403    8.2453   -2.1813 H       1  LIG1        0.0660
     35 H           0.0220    7.7295   -1.2538 H       1  LIG1        0.0660
     36 H           0.1035    7.4850   -3.0411 H       1  LIG1        0.0660
     37 H          -1.7350   -5.3680   -0.8333 H       1  LIG1        0.0691
     38 H           2.1406    0.6024    0.6264 H       1  LIG1        0.0271
     39 H           2.4155   -1.0352    0.0671 H       1  LIG1        0.0271
     40 H           3.4208   -0.3676    1.3716 H       1  LIG1        0.0271
     41 H           0.9273    1.0540    2.7948 H       1  LIG1        0.0271
     42 H           2.2546    0.2356    3.6445 H       1  LIG1        0.0271
     43 H           0.5685   -0.2593    3.9037 H       1  LIG1        0.0271
     44 H           2.6734   -2.2713    3.2268 H       1  LIG1        0.0611
     45 H           1.6395   -4.3565    2.5143 H       1  LIG1        0.0624
     46 H           0.3662   -7.7685    0.8389 H       1  LIG1        0.0660
     47 H           0.0313   -6.9563   -0.6965 H       1  LIG1        0.0660
     48 H          -1.2374   -7.0754    0.5863 H       1  LIG1        0.0660
     49 H          -3.3775   -2.4320   -1.5778 H       1  LIG1        0.2922
@<TRIPOS>BOND
     1     1     2    2
     2     2     3    1
     3     3     4    2
     4     4     5    1
     5     5     6   ar
     6     6     7   ar
     7     7     8   ar
     8     8     9   ar
     9     9    10   ar
    10     5    10   ar
    11     8    11    1
    12    11    12    1
    13     2    13    1
    14    13    14   ar
    15    14    15   ar
    16    15    16   ar
    17    16    17   ar
    18    17    18   ar
    19    13    18   ar
    20    18    19    1
    21    19    20    1
    22    20    21    1
    23    20    22    1
    24    20    23    1
    25    23    24    2
    26    17    24    1
    27    16    25    1
    28    25    26    1
    29    14    27    1
    30     3    28    1
    31     4    29    1
    32     6    30    1
    33     7    31    1
    34     9    32    1
    35    10    33    1
    36    12    34    1
    37    12    35    1
    38    12    36    1
    39    15    37    1
    40    21    38    1
    41    21    39    1
    42    21    40    1
    43    22    41    1
    44    22    42    1
    45    22    43    1
    46    23    44    1
    47    24    45    1
    48    26    46    1
    49    26    47    1
    50    26    48    1
    51    27    49    1
