@<TRIPOS>MOLECULE
NuBBE_2074
 51 55 0 0 0
SMALL
GASTEIGER

@<TRIPOS>ATOM
      1 O          -4.8440   -0.3353    0.7096 O.2     1  LIG1       -0.2500
      2 C          -3.6295   -0.3272    0.7354 C.2     1  LIG1        0.3189
      3 C          -2.6887    0.8174    1.0133 C.3     1  LIG1        0.1249
      4 C          -2.4477    0.6062    2.5390 C.3     1  LIG1       -0.0440
      5 C          -2.8081    2.3206    0.6593 C.3     1  LIG1        0.1832
      6 O          -4.0135    2.8650    1.1354 O.3     1  LIG1       -0.3636
      7 C          -2.5321    2.7219   -0.8321 C.3     1  LIG1        0.0029
      8 C          -1.0628    2.3173   -1.2514 C.3     1  LIG1       -0.0397
      9 C          -0.5176    1.3652   -0.1394 C.3     1  LIG1        0.0050
     10 C          -0.4489    2.3504    1.0758 C.3     1  LIG1        0.0572
     11 O          -1.7180    2.9798    1.3524 O.3     1  LIG1       -0.3471
     12 C           0.8614    0.6607   -0.2678 C.3     1  LIG1       -0.0266
     13 C           1.7695    1.2409   -1.3571 C.3     1  LIG1       -0.0491
     14 C           3.1752    0.6453   -1.2653 C.3     1  LIG1       -0.0494
     15 C           3.1634   -0.8793   -1.2828 C.3     1  LIG1       -0.0154
     16 C           2.2298   -1.4847   -0.2216 C.3     1  LIG1        0.1062
     17 H           2.5990   -1.2726    0.7907 H       1  LIG1        0.0736
     18 O           2.1525   -2.9078   -0.4348 O.3     1  LIG1       -0.4612
     19 C           3.1798   -3.6448    0.0724 C.2     1  LIG1        0.3042
     20 C           3.0133   -5.0866   -0.2977 C.3     1  LIG1        0.0332
     21 O           4.1315   -3.1999    0.6978 O.2     1  LIG1       -0.2512
     22 C           0.8120   -0.8959   -0.3759 C.3     1  LIG1        0.0029
     23 C          -0.2278   -1.5204    0.6040 C.3     1  LIG1       -0.0089
     24 C          -1.5803   -1.1142    0.0579 C.3     1  LIG1        0.1080
     25 H          -1.6434   -1.5504   -0.9501 H       1  LIG1        0.0737
     26 O          -2.8212   -1.4813    0.6677 O.3     1  LIG1       -0.4605
     27 C          -1.6750    0.3673   -0.0161 C.3     1  LIG1        0.0246
     28 H          -3.4004    0.7131    3.0755 H       1  LIG1        0.0242
     29 H          -1.7682    1.3122    3.0153 H       1  LIG1        0.0242
     30 H          -2.0661   -0.3932    2.7754 H       1  LIG1        0.0242
     31 H          -3.9774    3.8143    0.9346 H       1  LIG1        0.2128
     32 H          -2.6421    3.8061   -0.9612 H       1  LIG1        0.0317
     33 H          -3.2746    2.2620   -1.4953 H       1  LIG1        0.0317
     34 H          -0.4460    3.2189   -1.3490 H       1  LIG1        0.0273
     35 H          -1.0752    1.8346   -2.2361 H       1  LIG1        0.0273
     36 H           0.2720    3.1552    0.8855 H       1  LIG1        0.0566
     37 H          -0.0979    1.8471    1.9821 H       1  LIG1        0.0566
     38 H           1.3882    0.8453    0.6814 H       1  LIG1        0.0311
     39 H           1.8437    2.3293   -1.2523 H       1  LIG1        0.0268
     40 H           1.3483    1.0348   -2.3483 H       1  LIG1        0.0268
     41 H           3.7853    1.0176   -2.0959 H       1  LIG1        0.0267
     42 H           3.6550    0.9901   -0.3408 H       1  LIG1        0.0267
     43 H           4.1848   -1.2524   -1.1439 H       1  LIG1        0.0301
     44 H           2.8582   -1.2316   -2.2772 H       1  LIG1        0.0301
     45 H           3.5830   -5.7067    0.4001 H       1  LIG1        0.0342
     46 H           3.3791   -5.2477   -1.3145 H       1  LIG1        0.0342
     47 H           1.9621   -5.3781   -0.2235 H       1  LIG1        0.0342
     48 H           0.4827   -1.1539   -1.3946 H       1  LIG1        0.0340
     49 H          -0.0735   -1.1684    1.6297 H       1  LIG1        0.0305
     50 H          -0.1604   -2.6131    0.6310 H       1  LIG1        0.0305
     51 H          -2.1891    0.4072   -0.9968 H       1  LIG1        0.0355
@<TRIPOS>BOND
     1     1     2    2
     2     2     3    1
     3     3     4    1
     4     3     5    1
     5     5     6    1
     6     5     7    1
     7     7     8    1
     8     8     9    1
     9     9    10    1
    10    10    11    1
    11     5    11    1
    12     9    12    1
    13    12    13    1
    14    13    14    1
    15    14    15    1
    16    15    16    1
    17    18    19    1
    18    19    20    1
    19    19    21    2
    20    16    22    1
    21    12    22    1
    22    22    23    1
    23    23    24    1
    24    24    25    1
    25    24    26    1
    26     2    26    1
    27    24    27    1
    28     9    27    1
    29     3    27    1
    30    16    18    1
    31    16    17    1
    32     4    28    1
    33     4    29    1
    34     4    30    1
    35     6    31    1
    36     7    32    1
    37     7    33    1
    38     8    34    1
    39     8    35    1
    40    10    36    1
    41    10    37    1
    42    12    38    1
    43    13    39    1
    44    13    40    1
    45    14    41    1
    46    14    42    1
    47    15    43    1
    48    15    44    1
    49    20    45    1
    50    20    46    1
    51    20    47    1
    52    22    48    1
    53    23    49    1
    54    23    50    1
    55    27    51    1
