@<TRIPOS>MOLECULE
NuBBE_1493
 59 63 0 0 0
SMALL
GASTEIGER

@<TRIPOS>ATOM
      1 O          -1.6185    1.8821    0.5646 O.3     1  LIG1       -0.4914
      2 C          -0.6854    2.3543   -0.3958 C.3     1  LIG1        0.0790
      3 C          -1.4551    0.6017    1.0180 C.ar    1  LIG1        0.1619
      4 C          -0.9795   -0.4199    0.1936 C.ar    1  LIG1       -0.0107
      5 C          -0.7630   -1.7218    0.6740 C.ar    1  LIG1       -0.0149
      6 C          -1.1288   -2.0076    1.9961 C.ar    1  LIG1       -0.0524
      7 C          -1.6606   -1.0062    2.8150 C.ar    1  LIG1       -0.0159
      8 C          -1.8312    0.2975    2.3334 C.ar    1  LIG1        0.1624
      9 O          -2.3485    1.1742    3.2527 O.3     1  LIG1       -0.4843
     10 C          -3.0407    2.2999    2.7192 C.3     1  LIG1        0.1082
     11 C          -3.9771    2.7881    3.7667 C.2     1  LIG1       -0.0484
     12 C          -5.2723    2.4185    3.9061 C.2     1  LIG1       -0.0765
     13 C          -5.9752    1.4222    3.0197 C.3     1  LIG1       -0.0439
     14 C          -6.1013    2.9720    5.0221 C.3     1  LIG1       -0.0439
     15 C          -0.1603   -2.7938   -0.2070 C.3     1  LIG1        0.0891
     16 H          -0.6042   -3.7538    0.0871 H       1  LIG1        0.0650
     17 C           1.3742   -2.9631   -0.2367 C.3     1  LIG1        0.0205
     18 H           1.6023   -4.0185   -0.0430 H       1  LIG1        0.0356
     19 C           1.7604   -2.5618   -1.6404 C.3     1  LIG1        0.0205
     20 H           2.6323   -3.1169   -2.0056 H       1  LIG1        0.0356
     21 C           0.5227   -2.8614   -2.4423 C.3     1  LIG1        0.0544
     22 O          -0.5828   -2.5905   -1.5774 O.3     1  LIG1       -0.3712
     23 C           2.0705   -1.0730   -1.4939 C.3     1  LIG1        0.0891
     24 H           1.1774   -0.4504   -1.5791 H       1  LIG1        0.0650
     25 O           2.5460   -0.8917   -0.1466 O.3     1  LIG1       -0.3712
     26 C           2.2579   -2.0740    0.6101 C.3     1  LIG1        0.0544
     27 C           3.0754   -0.5605   -2.5010 C.ar    1  LIG1       -0.0149
     28 C           4.4491   -0.5713   -2.2137 C.ar    1  LIG1       -0.0105
     29 C           5.3198   -0.0847   -3.1631 C.ar    1  LIG1        0.1666
     30 C           4.8811    0.3986   -4.3721 C.ar    1  LIG1        0.1662
     31 C           3.5435    0.4233   -4.6994 C.ar    1  LIG1       -0.0158
     32 C           2.6339   -0.0619   -3.7526 C.ar    1  LIG1       -0.0524
     33 O           5.9037    0.8297   -5.1578 O.3     1  LIG1       -0.4526
     34 C           7.0344    0.5615   -4.3014 C.3     1  LIG1        0.2332
     35 O           6.6711   -0.0182   -3.0330 O.3     1  LIG1       -0.4526
     36 H          -0.9345    1.9774   -1.3914 H       1  LIG1        0.0660
     37 H           0.3451    2.1089   -0.1203 H       1  LIG1        0.0660
     38 H          -0.7752    3.4452   -0.4233 H       1  LIG1        0.0660
     39 H          -0.8038   -0.2123   -0.8553 H       1  LIG1        0.0659
     40 H          -1.0266   -3.0141    2.3966 H       1  LIG1        0.0622
     41 H          -1.9571   -1.2436    3.8350 H       1  LIG1        0.0655
     42 H          -3.6015    2.0511    1.8074 H       1  LIG1        0.0742
     43 H          -2.3338    3.1046    2.4933 H       1  LIG1        0.0742
     44 H          -3.5541    3.5000    4.4596 H       1  LIG1        0.0605
     45 H          -5.3590    1.0371    2.2054 H       1  LIG1        0.0274
     46 H          -6.8605    1.8823    2.5641 H       1  LIG1        0.0274
     47 H          -6.2993    0.5552    3.6080 H       1  LIG1        0.0274
     48 H          -5.5261    3.6331    5.6775 H       1  LIG1        0.0274
     49 H          -6.4982    2.1583    5.6415 H       1  LIG1        0.0274
     50 H          -6.9436    3.5487    4.6203 H       1  LIG1        0.0274
     51 H           0.4783   -3.9220   -2.7129 H       1  LIG1        0.0564
     52 H           0.4311   -2.2665   -3.3546 H       1  LIG1        0.0564
     53 H           1.8460   -1.8036    1.5845 H       1  LIG1        0.0564
     54 H           3.2192   -2.5722    0.7906 H       1  LIG1        0.0564
     55 H           4.8247   -0.9350   -1.2632 H       1  LIG1        0.0659
     56 H           3.2100    0.8116   -5.6555 H       1  LIG1        0.0655
     57 H           1.5712   -0.0378   -3.9895 H       1  LIG1        0.0622
     58 H           7.5670    1.5014   -4.1165 H       1  LIG1        0.1166
     59 H           7.7089   -0.1307   -4.8180 H       1  LIG1        0.1166
@<TRIPOS>BOND
     1     1     2    1
     2     1     3    1
     3     3     4   ar
     4     4     5   ar
     5     5     6   ar
     6     6     7   ar
     7     7     8   ar
     8     3     8   ar
     9     8     9    1
    10     9    10    1
    11    10    11    1
    12    11    12    2
    13    12    13    1
    14    12    14    1
    15    15    17    1
    16    17    19    1
    17    19    21    1
    18    21    22    1
    19    15    22    1
    20    19    23    1
    21    23    25    1
    22    25    26    1
    23    17    26    1
    24    27    28   ar
    25    28    29   ar
    26    29    30   ar
    27    30    31   ar
    28    31    32   ar
    29    27    32   ar
    30    30    33    1
    31    33    34    1
    32    34    35    1
    33    29    35    1
    34    17    18    1
    35    19    20    1
    36    15    16    1
    37    15     5    1
    38    23    27    1
    39    23    24    1
    40     2    36    1
    41     2    37    1
    42     2    38    1
    43     4    39    1
    44     6    40    1
    45     7    41    1
    46    10    42    1
    47    10    43    1
    48    11    44    1
    49    13    45    1
    50    13    46    1
    51    13    47    1
    52    14    48    1
    53    14    49    1
    54    14    50    1
    55    21    51    1
    56    21    52    1
    57    26    53    1
    58    26    54    1
    59    28    55    1
    60    31    56    1
    61    32    57    1
    62    34    58    1
    63    34    59    1
