@<TRIPOS>MOLECULE
NuBBE_2196
 57 59 0 0 0
SMALL
GASTEIGER

@<TRIPOS>ATOM
      1 C          -1.5166   -0.0564    1.6128 C.3     1  LIG1       -0.0555
      2 C          -0.1614    0.4923    1.1020 C.3     1  LIG1       -0.0066
      3 C          -0.2484    2.0048    0.6955 C.3     1  LIG1       -0.0198
      4 C          -1.0841    2.1973   -0.5712 C.3     1  LIG1        0.0142
      5 C          -0.4800    1.4150   -1.7074 C.2     1  LIG1        0.1595
      6 C           0.1312    0.0832   -1.4073 C.2     1  LIG1       -0.0042
      7 C           0.2298   -0.3617   -0.1336 C.2     1  LIG1       -0.0534
      8 C           0.7135   -1.7883    0.1257 C.3     1  LIG1        0.0076
      9 C           0.6526   -2.7046   -1.1139 C.3     1  LIG1        0.1157
     10 H           1.1723   -3.6507   -0.8954 H       1  LIG1        0.0746
     11 O          -0.7324   -2.9982   -1.4318 O.3     1  LIG1       -0.4603
     12 C          -1.3480   -3.9604   -0.7045 C.2     1  LIG1        0.3042
     13 C          -2.7591   -4.1324   -1.1650 C.3     1  LIG1        0.0332
     14 O          -0.8267   -4.6103    0.2025 O.2     1  LIG1       -0.2512
     15 C           1.3109   -2.0207   -2.3435 C.3     1  LIG1        0.0271
     16 C           2.8145   -1.8298   -2.0947 C.2     1  LIG1       -0.0814
     17 C           3.4962   -0.6744   -2.0730 C.2     1  LIG1       -0.1020
     18 C           1.1597   -2.9318   -3.5848 C.3     1  LIG1       -0.0524
     19 C           0.5440   -0.7010   -2.6336 C.3     1  LIG1       -0.0122
     20 O          -0.5518    1.8217   -2.8663 O.2     1  LIG1       -0.2924
     21 H           0.7804    2.2698    0.3947 H       1  LIG1        0.0318
     22 C          -0.6119    2.9991    1.8595 C.3     1  LIG1       -0.0309
     23 C          -0.0389    4.3977    1.5068 C.3     1  LIG1       -0.0595
     24 C          -2.1267    3.2030    2.0776 C.3     1  LIG1       -0.0595
     25 C           0.0256    2.5306    3.1942 C.3     1  LIG1       -0.0476
     26 C           1.2468    1.6497    2.9763 C.3     1  LIG1       -0.0518
     27 C           0.9057    0.3517    2.2358 C.3     1  LIG1       -0.0436
     28 H          -2.3316    0.1345    0.9075 H       1  LIG1        0.0238
     29 H          -1.7937    0.3696    2.5792 H       1  LIG1        0.0238
     30 H          -1.4919   -1.1395    1.7735 H       1  LIG1        0.0238
     31 H          -1.0839    3.2500   -0.8718 H       1  LIG1        0.0348
     32 H          -2.1237    1.8803   -0.4506 H       1  LIG1        0.0348
     33 H           0.1131   -2.2388    0.9211 H       1  LIG1        0.0346
     34 H           1.7453   -1.7548    0.4932 H       1  LIG1        0.0346
     35 H          -3.2841   -3.1743   -1.1084 H       1  LIG1        0.0342
     36 H          -3.2738   -4.8472   -0.5189 H       1  LIG1        0.0342
     37 H          -2.7662   -4.5120   -2.1906 H       1  LIG1        0.0342
     38 H           3.3822   -2.7436   -1.9104 H       1  LIG1        0.0573
     39 H           3.0289    0.2907   -2.2402 H       1  LIG1        0.0532
     40 H           4.5653   -0.6577   -1.8821 H       1  LIG1        0.0532
     41 H           1.5639   -3.9342   -3.4014 H       1  LIG1        0.0239
     42 H           1.6780   -2.5125   -4.4547 H       1  LIG1        0.0239
     43 H           0.1069   -3.0566   -3.8663 H       1  LIG1        0.0239
     44 H          -0.3716   -0.9205   -3.1994 H       1  LIG1        0.0324
     45 H           1.1454   -0.0667   -3.2982 H       1  LIG1        0.0324
     46 H          -0.5132    4.8144    0.6119 H       1  LIG1        0.0235
     47 H           1.0405    4.3568    1.3266 H       1  LIG1        0.0235
     48 H          -0.2103    5.1130    2.3199 H       1  LIG1        0.0235
     49 H          -2.6240    3.5769    1.1772 H       1  LIG1        0.0235
     50 H          -2.3057    3.9389    2.8713 H       1  LIG1        0.0235
     51 H          -2.6380    2.2878    2.3804 H       1  LIG1        0.0235
     52 H          -0.7000    1.9715    3.7971 H       1  LIG1        0.0271
     53 H           0.3128    3.3946    3.8069 H       1  LIG1        0.0271
     54 H           1.7072    1.4039    3.9404 H       1  LIG1        0.0266
     55 H           2.0061    2.2047    2.4107 H       1  LIG1        0.0266
     56 H           0.5648   -0.3886    2.9724 H       1  LIG1        0.0274
     57 H           1.8542   -0.0355    1.8464 H       1  LIG1        0.0274
@<TRIPOS>BOND
     1     1     2    1
     2     2     3    1
     3     3     4    1
     4     4     5    1
     5     5     6    1
     6     6     7    2
     7     2     7    1
     8     7     8    1
     9     8     9    1
    10     9    10    1
    11     9    11    1
    12    11    12    1
    13    12    13    1
    14    12    14    2
    15     9    15    1
    16    15    16    1
    17    16    17    2
    18    15    18    1
    19    15    19    1
    20     6    19    1
    21     5    20    2
    22     3    21    1
    23     3    22    1
    24    22    23    1
    25    22    24    1
    26    22    25    1
    27    25    26    1
    28    26    27    1
    29     2    27    1
    30     1    28    1
    31     1    29    1
    32     1    30    1
    33     4    31    1
    34     4    32    1
    35     8    33    1
    36     8    34    1
    37    13    35    1
    38    13    36    1
    39    13    37    1
    40    16    38    1
    41    17    39    1
    42    17    40    1
    43    18    41    1
    44    18    42    1
    45    18    43    1
    46    19    44    1
    47    19    45    1
    48    23    46    1
    49    23    47    1
    50    23    48    1
    51    24    49    1
    52    24    50    1
    53    24    51    1
    54    25    52    1
    55    25    53    1
    56    26    54    1
    57    26    55    1
    58    27    56    1
    59    27    57    1
