@<TRIPOS>MOLECULE
NuBBE_1352
 42 43 0 0 0
SMALL
GASTEIGER

@<TRIPOS>ATOM
      1 C           0.8516    0.1859   -2.5441 C.3     1  LIG1       -0.0558
      2 C           1.3677    0.0547   -1.0922 C.3     1  LIG1       -0.0108
      3 C           0.4733   -0.9204   -0.3099 C.2     1  LIG1       -0.0643
      4 C          -0.9195   -0.3763   -0.0185 C.3     1  LIG1       -0.0256
      5 C          -0.8859    0.9738    0.7316 C.3     1  LIG1       -0.0089
      6 H          -0.3715    0.8137    1.6906 H       1  LIG1        0.0331
      7 C          -2.3169    1.5168    1.0481 C.3     1  LIG1        0.0636
      8 C          -2.2681    2.8677    1.7782 C.3     1  LIG1       -0.0361
      9 O          -3.0221    1.7124   -0.1815 O.3     1  LIG1       -0.3888
     10 C          -3.1296    0.5317    1.9021 C.3     1  LIG1       -0.0361
     11 C          -0.0460    1.9772   -0.0875 C.3     1  LIG1       -0.0465
     12 C           1.3516    1.4378   -0.3948 C.3     1  LIG1       -0.0436
     13 C           0.8995   -2.1525    0.0643 C.2     1  LIG1       -0.0728
     14 C           0.1092   -3.1341    0.8942 C.3     1  LIG1       -0.0435
     15 C           2.2587   -2.6970   -0.3276 C.3     1  LIG1       -0.0317
     16 C           2.9680   -1.9017   -1.4155 C.3     1  LIG1       -0.0486
     17 C           2.8481   -0.4131   -1.1356 C.3     1  LIG1       -0.0436
     18 H          -0.1533    0.6159   -2.5970 H       1  LIG1        0.0238
     19 H           0.8084   -0.7863   -3.0470 H       1  LIG1        0.0238
     20 H           1.5065    0.8364   -3.1353 H       1  LIG1        0.0238
     21 H          -1.5075   -1.0947    0.5518 H       1  LIG1        0.0314
     22 H          -1.4558   -0.2641   -0.9687 H       1  LIG1        0.0314
     23 H          -3.2745    3.1897    2.0713 H       1  LIG1        0.0257
     24 H          -1.8875    3.6640    1.1304 H       1  LIG1        0.0257
     25 H          -1.6510    2.8144    2.6808 H       1  LIG1        0.0257
     26 H          -3.9065    2.0581    0.0295 H       1  LIG1        0.2101
     27 H          -4.0902    0.9714    2.1964 H       1  LIG1        0.0257
     28 H          -2.5910    0.2502    2.8125 H       1  LIG1        0.0257
     29 H          -3.3869   -0.3738    1.3435 H       1  LIG1        0.0257
     30 H           0.0798    2.9116    0.4702 H       1  LIG1        0.0269
     31 H          -0.5596    2.2364   -1.0203 H       1  LIG1        0.0269
     32 H           1.8977    1.3761    0.5570 H       1  LIG1        0.0274
     33 H           1.8897    2.1729   -1.0074 H       1  LIG1        0.0274
     34 H          -0.6968   -2.6783    1.4716 H       1  LIG1        0.0274
     35 H           0.7637   -3.6179    1.6284 H       1  LIG1        0.0274
     36 H          -0.3160   -3.9121    0.2522 H       1  LIG1        0.0274
     37 H           2.1563   -3.7328   -0.6743 H       1  LIG1        0.0310
     38 H           2.8896   -2.7220    0.5702 H       1  LIG1        0.0310
     39 H           2.5435   -2.1444   -2.3963 H       1  LIG1        0.0269
     40 H           4.0243   -2.1924   -1.4524 H       1  LIG1        0.0269
     41 H           3.4073    0.1509   -1.8927 H       1  LIG1        0.0274
     42 H           3.3417   -0.2057   -0.1762 H       1  LIG1        0.0274
@<TRIPOS>BOND
     1     1     2    1
     2     2     3    1
     3     3     4    1
     4     4     5    1
     5     7     8    1
     6     7     9    1
     7     7    10    1
     8     5    11    1
     9    11    12    1
    10     2    12    1
    11     3    13    2
    12    13    14    1
    13    13    15    1
    14    15    16    1
    15    16    17    1
    16     2    17    1
    17     5     7    1
    18     5     6    1
    19     1    18    1
    20     1    19    1
    21     1    20    1
    22     4    21    1
    23     4    22    1
    24     8    23    1
    25     8    24    1
    26     8    25    1
    27     9    26    1
    28    10    27    1
    29    10    28    1
    30    10    29    1
    31    11    30    1
    32    11    31    1
    33    12    32    1
    34    12    33    1
    35    14    34    1
    36    14    35    1
    37    14    36    1
    38    15    37    1
    39    15    38    1
    40    16    39    1
    41    16    40    1
    42    17    41    1
    43    17    42    1
