REMARK  Name = NuBBE_488
REMARK  6 active torsions:
REMARK  status: ('A' for Active; 'I' for Inactive)
REMARK    1  A    between atoms: C_7  and  C_9
REMARK    2  A    between atoms: C_18  and  C_22
REMARK    3  A    between atoms: C_25  and  O_30
REMARK    4  A    between atoms: C_26  and  O_27
REMARK    5  A    between atoms: O_27  and  C_28
REMARK    6  A    between atoms: O_30  and  C_31
REMARK                            x       y       z     vdW  Elec       q    Type
REMARK                         _______ _______ _______ _____ _____    ______ ____
ROOT
ATOM      1  C   LIG A   1       0.972   1.582  -1.230  0.00  0.00    +0.056 C 
ATOM      2  C   LIG A   1       1.738   0.533  -1.993  0.00  0.00    +0.056 C 
ATOM      3  C   LIG A   1       0.636  -0.221  -2.686  0.00  0.00    +0.167 C 
ATOM      4  O   LIG A   1      -0.499  -0.198  -1.815  0.00  0.00    -0.371 OA
ATOM      5  C   LIG A   1      -0.315   0.850  -0.837  0.00  0.00    +0.154 C 
ATOM      6  C   LIG A   1       2.599  -0.148  -0.919  0.00  0.00    +0.154 C 
ATOM      7  O   LIG A   1       2.872   0.906   0.037  0.00  0.00    -0.371 OA
ATOM      8  C   LIG A   1       1.896   1.950  -0.097  0.00  0.00    +0.167 C 
ENDROOT
BRANCH   5   9
ATOM      9  C   LIG A   1      -1.530   1.758  -0.795  0.00  0.00    -0.015 A 
ATOM     10  C   LIG A   1      -1.893   2.387   0.422  0.00  0.00    +0.010 A 
ATOM     11  C   LIG A   1      -3.007   3.233   0.495  0.00  0.00    +0.050 A 
ATOM     12  C   LIG A   1      -3.736   3.440  -0.651  0.00  0.00    +0.166 A 
ATOM     13  O   LIG A   1      -4.841   4.225  -0.765  0.00  0.00    -0.453 OA
ATOM     14  C   LIG A   1      -5.158   4.048  -2.161  0.00  0.00    +0.466 C 
ATOM     15  O   LIG A   1      -4.241   3.174  -2.852  0.00  0.00    -0.453 OA
ATOM     16  C   LIG A   1      -3.394   2.840  -1.841  0.00  0.00    +0.167 A 
ATOM     17  C   LIG A   1      -2.303   2.002  -1.944  0.00  0.00    +0.055 A 
ENDBRANCH   5   9
BRANCH   6  18
ATOM     18  C   LIG A   1       2.118  -1.391  -0.184  0.00  0.00    -0.015 A 
ATOM     19  C   LIG A   1       2.007  -2.623  -0.840  0.00  0.00    +0.010 A 
ATOM     20  C   LIG A   1       1.591  -3.766  -0.146  0.00  0.00    +0.050 A 
ATOM     21  C   LIG A   1       1.296  -3.718   1.222  0.00  0.00    +0.162 A 
ATOM     22  C   LIG A   1       1.476  -2.514   1.913  0.00  0.00    +0.162 A 
ATOM     23  C   LIG A   1       1.860  -1.368   1.199  0.00  0.00    +0.055 A 
BRANCH  22  24
ATOM     24  O   LIG A   1       1.249  -2.479   3.264  0.00  0.00    -0.491 OA
ATOM     25  C   LIG A   1       2.057  -1.574   4.012  0.00  0.00    +0.277 C 
ENDBRANCH  22  24
BRANCH  21  26
ATOM     26  O   LIG A   1       0.914  -4.928   1.744  0.00  0.00    -0.491 OA
ATOM     27  C   LIG A   1       0.067  -4.889   2.887  0.00  0.00    +0.277 C 
ENDBRANCH  21  26
ENDBRANCH   6  18
TORSDOF 4
