REMARK  Name = NuBBE_534
REMARK  10 active torsions:
REMARK  status: ('A' for Active; 'I' for Inactive)
REMARK    1  A    between atoms: O_1  and  C_2
REMARK    2  A    between atoms: C_4  and  O_5
REMARK    3  A    between atoms: C_8  and  O_9
REMARK    4  A    between atoms: O_9  and  C_10
REMARK    5  A    between atoms: C_14  and  O_19
REMARK    6  A    between atoms: C_16  and  O_18
REMARK    7  A    between atoms: C_20  and  O_22
REMARK    8  A    between atoms: C_23  and  C_27
REMARK    9  A    between atoms: C_29  and  O_30
REMARK   10  A    between atoms: C_31  and  O_34
REMARK                            x       y       z     vdW  Elec       q    Type
REMARK                         _______ _______ _______ _____ _____    ______ ____
ROOT
ATOM      1  C   LIG A   1       0.312  -4.681   2.240  0.00  0.00    +0.124 A 
ATOM      2  C   LIG A   1       0.793  -5.019   0.980  0.00  0.00    +0.091 A 
ATOM      3  C   LIG A   1       1.157  -3.999   0.099  0.00  0.00    +0.135 A 
ATOM      4  C   LIG A   1       1.056  -2.654   0.487  0.00  0.00    +0.109 A 
ATOM      5  C   LIG A   1       1.504  -1.538  -0.363  0.00  0.00    +0.238 A 
ATOM      6  C   LIG A   1       1.032  -0.165   0.005  0.00  0.00    +0.214 A 
ATOM      7  C   LIG A   1       0.547  -0.001   1.256  0.00  0.00    +0.181 A 
ATOM      8  O   LIG A   1       0.378  -1.044   2.164  0.00  0.00    -0.451 OA
ATOM      9  C   LIG A   1       0.536  -2.335   1.734  0.00  0.00    +0.146 A 
ATOM     10  C   LIG A   1       0.164  -3.349   2.618  0.00  0.00    +0.092 A 
ATOM     11  O   LIG A   1       2.205  -1.733  -1.345  0.00  0.00    -0.283 OA
ENDROOT
BRANCH   7  12
ATOM     12  C   LIG A   1       0.148   1.317   1.835  0.00  0.00    +0.025 A 
ATOM     13  C   LIG A   1      -0.875   1.384   2.803  0.00  0.00    +0.060 A 
ATOM     14  C   LIG A   1      -1.196   2.600   3.406  0.00  0.00    +0.159 A 
ATOM     15  C   LIG A   1      -0.514   3.761   3.061  0.00  0.00    +0.158 A 
ATOM     16  C   LIG A   1       0.491   3.728   2.112  0.00  0.00    +0.050 A 
ATOM     17  C   LIG A   1       0.827   2.510   1.513  0.00  0.00    +0.015 A 
BRANCH  14  18
ATOM     18  O   LIG A   1      -2.173   2.703   4.359  0.00  0.00    -0.503 OA
ATOM     19  H   LIG A   1      -2.577   1.827   4.481  0.00  0.00    +0.292 HD
ENDBRANCH  14  18
BRANCH  15  20
ATOM     20  O   LIG A   1      -0.822   4.945   3.665  0.00  0.00    -0.503 OA
ATOM     21  H   LIG A   1      -1.526   4.720   4.305  0.00  0.00    +0.292 HD
ENDBRANCH  15  20
ENDBRANCH   7  12
BRANCH   1  22
ATOM     22  O   LIG A   1      -0.035  -5.638   3.146  0.00  0.00    -0.506 OA
ATOM     23  H   LIG A   1       0.189  -6.516   2.793  0.00  0.00    +0.292 HD
ENDBRANCH   1  22
BRANCH   3  24
ATOM     24  O   LIG A   1       1.578  -4.332  -1.159  0.00  0.00    -0.506 OA
ATOM     25  H   LIG A   1       1.760  -5.284  -1.216  0.00  0.00    +0.292 HD
ENDBRANCH   3  24
BRANCH   6  26
ATOM     26  O   LIG A   1       1.106   0.897  -0.884  0.00  0.00    -0.453 OA
BRANCH  26  27
ATOM     27  C   LIG A   1       1.171   0.672  -2.300  0.00  0.00    +0.339 C 
ATOM     28  O   LIG A   1       1.365   1.937  -2.968  0.00  0.00    -0.337 OA
ATOM     29  C   LIG A   1       0.266   2.846  -2.832  0.00  0.00    +0.198 C 
ATOM     30  C   LIG A   1      -1.067   2.256  -3.298  0.00  0.00    +0.171 C 
ATOM     31  C   LIG A   1      -1.301   0.886  -2.668  0.00  0.00    +0.180 C 
ATOM     32  C   LIG A   1      -0.085  -0.015  -2.893  0.00  0.00    +0.214 C 
BRANCH  31  33
ATOM     33  O   LIG A   1      -2.458   0.278  -3.271  0.00  0.00    -0.386 OA
ATOM     34  H   LIG A   1      -2.417  -0.659  -2.985  0.00  0.00    +0.210 HD
ENDBRANCH  31  33
BRANCH  30  35
ATOM     35  O   LIG A   1      -1.064   2.109  -4.727  0.00  0.00    -0.387 OA
ATOM     36  H   LIG A   1      -1.835   1.537  -4.921  0.00  0.00    +0.210 HD
ENDBRANCH  30  35
BRANCH  32  37
ATOM     37  O   LIG A   1      -0.396  -1.313  -2.361  0.00  0.00    -0.383 OA
ATOM     38  H   LIG A   1       0.405  -1.863  -2.506  0.00  0.00    +0.210 HD
ENDBRANCH  32  37
ENDBRANCH  26  27
ENDBRANCH   6  26
TORSDOF 10
