REMARK  Name = "1	2-Benzodiazepine"
REMARK  0 active torsions:
REMARK  status: ('A' for Active; 'I' for Inactive)
REMARK                            x       y       z     vdW  Elec       q    Type
REMARK                         _______ _______ _______ _____ _____    ______ ____
ROOT
ATOM      1  N   UNL     1      -0.885   1.539  -0.000  0.00  0.00    +0.000 N 
ATOM      2  N   UNL     1      -2.204   1.286   0.001  0.00  0.00    +0.000 NA
ATOM      3  C   UNL     1      -2.742   0.119   0.001  0.00  0.00    +0.000 C 
ATOM      4  C   UNL     1      -2.206  -1.244  -0.002  0.00  0.00    +0.000 C 
ATOM      5  C   UNL     1      -0.919  -1.582  -0.002  0.00  0.00    +0.000 C 
ATOM      6  C   UNL     1       0.249  -0.705  -0.001  0.00  0.00    +0.000 A 
ATOM      7  C   UNL     1       1.485  -1.395  -0.001  0.00  0.00    +0.000 A 
ATOM      8  C   UNL     1       2.704  -0.728  -0.001  0.00  0.00    +0.000 A 
ATOM      9  C   UNL     1       2.713   0.654   0.000  0.00  0.00    +0.000 A 
ATOM     10  C   UNL     1       1.501   1.351   0.000  0.00  0.00    +0.000 A 
ATOM     11  C   UNL     1       0.242   0.696   0.000  0.00  0.00    +0.000 A 
ATOM     12  H   UNL     1      -0.658   2.532   0.001  0.00  0.00    +0.000 HD
ENDROOT
TORSDOF 0
