REMARK  Name = "2	2'-Dibenzothiazyl disulfide"
REMARK  3 active torsions:
REMARK  status: ('A' for Active; 'I' for Inactive)
REMARK    1  A    between atoms: S_1  and  S_2
REMARK    2  A    between atoms: S_1  and  C_12
REMARK    3  A    between atoms: S_2  and  C_3
REMARK                            x       y       z     vdW  Elec       q    Type
REMARK                         _______ _______ _______ _____ _____    ______ ____
ROOT
ATOM      1  S   UNL     1       0.880  -0.030   0.053  0.00  0.00    +0.000 S 
ENDROOT
BRANCH   1   2
ATOM      2  C   UNL     1       2.653   0.051   0.037  0.00  0.00    +0.000 A 
ATOM      3  N   UNL     1       3.338  -1.076   0.034  0.00  0.00    +0.000 NA
ATOM      4  C   UNL     1       4.704  -0.821   0.006  0.00  0.00    +0.000 A 
ATOM      5  C   UNL     1       5.741  -1.781  -0.015  0.00  0.00    +0.000 A 
ATOM      6  C   UNL     1       7.080  -1.369  -0.054  0.00  0.00    +0.000 A 
ATOM      7  C   UNL     1       7.398  -0.015  -0.070  0.00  0.00    +0.000 A 
ATOM      8  C   UNL     1       6.392   0.955  -0.044  0.00  0.00    +0.000 A 
ATOM      9  C   UNL     1       5.050   0.531  -0.007  0.00  0.00    +0.000 A 
ATOM     10  S   UNL     1       3.611   1.475   0.026  0.00  0.00    +0.000 S 
ENDBRANCH   1   2
BRANCH   1  11
ATOM     11  S   UNL     1       0.249   1.940   0.053  0.00  0.00    +0.000 S 
BRANCH  11  12
ATOM     12  C   UNL     1      -1.524   1.859   0.037  0.00  0.00    +0.000 A 
ATOM     13  N   UNL     1      -2.209   2.986   0.034  0.00  0.00    +0.000 NA
ATOM     14  C   UNL     1      -3.576   2.731   0.006  0.00  0.00    +0.000 A 
ATOM     15  C   UNL     1      -4.612   3.691  -0.015  0.00  0.00    +0.000 A 
ATOM     16  C   UNL     1      -5.952   3.279  -0.054  0.00  0.00    +0.000 A 
ATOM     17  C   UNL     1      -6.270   1.925  -0.070  0.00  0.00    +0.000 A 
ATOM     18  C   UNL     1      -5.263   0.955  -0.044  0.00  0.00    +0.000 A 
ATOM     19  C   UNL     1      -3.921   1.379  -0.008  0.00  0.00    +0.000 A 
ATOM     20  S   UNL     1      -2.482   0.435   0.025  0.00  0.00    +0.000 S 
ENDBRANCH  11  12
ENDBRANCH   1  11
TORSDOF 3
