REMARK  Name = "N-Cyclohexyl-N'-phenyl-1	4-phenylenediamine"
REMARK  4 active torsions:
REMARK  status: ('A' for Active; 'I' for Inactive)
REMARK    1  A    between atoms: C_4  and  N_7
REMARK    2  A    between atoms: N_7  and  C_8
REMARK    3  A    between atoms: C_11  and  N_12
REMARK    4  A    between atoms: N_12  and  C_13
REMARK                            x       y       z     vdW  Elec       q    Type
REMARK                         _______ _______ _______ _____ _____    ______ ____
ROOT
ATOM      1  C   UNL     1       3.401  -1.855  -0.034  0.00  0.00    +0.000 A 
ATOM      2  C   UNL     1       4.680  -1.907   0.524  0.00  0.00    +0.000 A 
ATOM      3  C   UNL     1       5.350  -3.136   0.695  0.00  0.00    +0.000 A 
ATOM      4  C   UNL     1       4.721  -4.337   0.368  0.00  0.00    +0.000 A 
ATOM      5  C   UNL     1       3.459  -4.269  -0.216  0.00  0.00    +0.000 A 
ATOM      6  C   UNL     1       2.847  -3.048  -0.466  0.00  0.00    +0.000 A 
ENDROOT
BRANCH   1   7
ATOM      7  N   UNL     1       2.763  -0.639  -0.213  0.00  0.00    +0.000 N 
ATOM      8  H   UNL     1       3.210   0.009  -0.850  0.00  0.00    +0.000 HD
BRANCH   7  12
ATOM      9  C   UNL     1      -1.447   0.374  -0.224  0.00  0.00    +0.000 C 
ATOM     10  C   UNL     1      -0.424   1.413   0.225  0.00  0.00    +0.000 C 
ATOM     11  C   UNL     1       0.995   1.055  -0.223  0.00  0.00    +0.000 C 
ATOM     12  C   UNL     1       1.404  -0.349   0.256  0.00  0.00    +0.000 C 
ATOM     13  C   UNL     1       0.352  -1.367  -0.199  0.00  0.00    +0.000 C 
ATOM     14  C   UNL     1      -1.055  -1.013   0.246  0.00  0.00    +0.000 C 
ENDBRANCH   7  12
ENDBRANCH   1   7
BRANCH   4  15
ATOM     15  N   UNL     1       5.310  -5.582   0.647  0.00  0.00    +0.000 N 
ATOM     16  H   UNL     1       6.200  -5.577   1.127  0.00  0.00    +0.000 HD
BRANCH  15  17
ATOM     17  C   UNL     1       4.807  -6.849   0.309  0.00  0.00    +0.000 A 
ATOM     18  C   UNL     1       4.573  -7.810   1.296  0.00  0.00    +0.000 A 
ATOM     19  C   UNL     1       4.030  -9.053   0.956  0.00  0.00    +0.000 A 
ATOM     20  C   UNL     1       3.678  -9.327  -0.366  0.00  0.00    +0.000 A 
ATOM     21  C   UNL     1       3.889  -8.371  -1.354  0.00  0.00    +0.000 A 
ATOM     22  C   UNL     1       4.466  -7.149  -1.018  0.00  0.00    +0.000 A 
ENDBRANCH  15  17
ENDBRANCH   4  15
TORSDOF 4
