REMARK  Name = "Sodium phosphate	 dibasic"
REMARK  1 active torsions:
REMARK  status: ('A' for Active; 'I' for Inactive)
REMARK    1  A    between atoms: O_3  and  P_4
REMARK                            x       y       z     vdW  Elec       q    Type
REMARK                         _______ _______ _______ _____ _____    ______ ____
ROOT
ATOM      1 NA   UNL     1       1.254  -1.664   1.842  0.00  0.00    +0.000 Na
ENDROOT
TORSDOF 0
REMARK  Name = "Sodium phosphate	 dibasic"
REMARK  1 active torsions:
REMARK  status: ('A' for Active; 'I' for Inactive)
REMARK    1  A    between atoms: O_3  and  P_4
REMARK                            x       y       z     vdW  Elec       q    Type
REMARK                         _______ _______ _______ _____ _____    ______ ____
ROOT
ATOM      1 NA   UNL     2       1.638   2.121  -1.921  0.00  0.00    +0.000 Na
ENDROOT
TORSDOF 0
REMARK  Name = "Sodium phosphate	 dibasic"
REMARK  1 active torsions:
REMARK  status: ('A' for Active; 'I' for Inactive)
REMARK    1  A    between atoms: O_3  and  P_4
REMARK                            x       y       z     vdW  Elec       q    Type
REMARK                         _______ _______ _______ _____ _____    ______ ____
ROOT
ATOM      1  P   UNL     3       2.681  -0.039   0.078  0.00  0.00    +0.000 P 
ATOM      2  O   UNL     3       2.398  -1.520   0.334  0.00  0.00    +0.000 OA
ATOM      3  O   UNL     3       2.418   0.558  -1.315  0.00  0.00    +0.000 OA
ATOM      4  O   UNL     3       4.229  -0.039   0.078  0.00  0.00    +0.000 OA
ENDROOT
BRANCH   1   5
ATOM      5  O   UNL     3       0.951  -0.039   0.078  0.00  0.00    +0.000 OA
ATOM      6  H   UNL     3       0.920  -0.652  -0.693  0.00  0.00    +0.000 HD
ENDBRANCH   1   5
TORSDOF 1
