REMARK  Name = "Sodium phosphate	 monobasic"
REMARK  2 active torsions:
REMARK  status: ('A' for Active; 'I' for Inactive)
REMARK    1  A    between atoms: O_2  and  P_3
REMARK    2  A    between atoms: P_3  and  O_4
REMARK                            x       y       z     vdW  Elec       q    Type
REMARK                         _______ _______ _______ _____ _____    ______ ____
ROOT
ATOM      1 NA   UNL     1      -1.054   0.188  -0.145  0.00  0.00    +0.000 Na
ENDROOT
TORSDOF 0
REMARK  Name = "Sodium phosphate	 monobasic"
REMARK  2 active torsions:
REMARK  status: ('A' for Active; 'I' for Inactive)
REMARK    1  A    between atoms: O_2  and  P_3
REMARK    2  A    between atoms: P_3  and  O_4
REMARK                            x       y       z     vdW  Elec       q    Type
REMARK                         _______ _______ _______ _____ _____    ______ ____
ROOT
ATOM      1  P   UNL     2       2.710  -0.088   0.043  0.00  0.00    +0.000 P 
ATOM      2  O   UNL     2       2.389   0.761   1.277  0.00  0.00    +0.000 OA
ATOM      3  O   UNL     2       4.259  -0.088   0.043  0.00  0.00    +0.000 OA
ENDROOT
BRANCH   1   4
ATOM      4  O   UNL     2       0.980  -0.088   0.043  0.00  0.00    +0.000 OA
ATOM      5  H   UNL     2       1.105   0.637   0.736  0.00  0.00    +0.000 HD
ENDBRANCH   1   4
BRANCH   1   6
ATOM      6  O   UNL     2       2.502   0.905  -1.235  0.00  0.00    +0.000 OA
ATOM      7  H   UNL     2       2.704   0.427  -2.045  0.00  0.00    +0.000 HD
ENDBRANCH   1   6
TORSDOF 2
