REMARK  Name = "Zoledronate D	L-Lysine Monohydrate"
REMARK  17 active torsions:
REMARK  status: ('A' for Active; 'I' for Inactive)
REMARK    1  A    between atoms: NZ_2  and  CE_3
REMARK    2  A    between atoms: CE_3  and  CD_4
REMARK    3  A    between atoms: CD_4  and  CG_5
REMARK    4  A    between atoms: CG_5  and  CB_6
REMARK    5  A    between atoms: CB_6  and  CA_7
REMARK    6  A    between atoms: CA_7  and  N_8
REMARK    7  A    between atoms: CA_7  and  C_9
REMARK    8  A    between atoms: C_9  and  O_10
REMARK    9  A    between atoms: O_12  and  C_13
REMARK   10  A    between atoms: C_13  and  C_14
REMARK   11  A    between atoms: C_13  and  P_20
REMARK   12  A    between atoms: C_13  and  P_24
REMARK   13  A    between atoms: C_14  and  N_15
REMARK   14  A    between atoms: P_20  and  O_21
REMARK   15  A    between atoms: P_20  and  O_22
REMARK   16  A    between atoms: P_24  and  O_25
REMARK   17  A    between atoms: P_24  and  O_26
REMARK                            x       y       z     vdW  Elec       q    Type
REMARK                         _______ _______ _______ _____ _____    ______ ____
ROOT
ATOM      1  O   HOH     1       0.338  -1.477  -0.834  0.00  0.00    +0.000 OA
ATOM      2  H   HOH     0       1.179  -1.057  -0.951  0.00  0.00    +0.000 HD
ATOM      3  H   HOH     0       0.280  -1.174   0.106  0.00  0.00    +0.000 HD
ENDROOT
TORSDOF 0
REMARK  Name = "Zoledronate D	L-Lysine Monohydrate"
REMARK  17 active torsions:
REMARK  status: ('A' for Active; 'I' for Inactive)
REMARK    1  A    between atoms: NZ_2  and  CE_3
REMARK    2  A    between atoms: CE_3  and  CD_4
REMARK    3  A    between atoms: CD_4  and  CG_5
REMARK    4  A    between atoms: CG_5  and  CB_6
REMARK    5  A    between atoms: CB_6  and  CA_7
REMARK    6  A    between atoms: CA_7  and  N_8
REMARK    7  A    between atoms: CA_7  and  C_9
REMARK    8  A    between atoms: C_9  and  O_10
REMARK    9  A    between atoms: O_12  and  C_13
REMARK   10  A    between atoms: C_13  and  C_14
REMARK   11  A    between atoms: C_13  and  P_20
REMARK   12  A    between atoms: C_13  and  P_24
REMARK   13  A    between atoms: C_14  and  N_15
REMARK   14  A    between atoms: P_20  and  O_21
REMARK   15  A    between atoms: P_20  and  O_22
REMARK   16  A    between atoms: P_24  and  O_25
REMARK   17  A    between atoms: P_24  and  O_26
REMARK                            x       y       z     vdW  Elec       q    Type
REMARK                         _______ _______ _______ _____ _____    ______ ____
ROOT
ATOM      1  CA  LYS A   1       6.955  -1.387   2.531  0.00  0.00    +0.000 C 
ENDROOT
BRANCH   1   2
ATOM      2  N   LYS A   1       7.242   0.066   2.513  0.00  0.00    +0.000 NA
ATOM      3  H1  LYS A   1       6.779   0.562   3.278  0.00  0.00    +0.000 HD
ATOM      4  H2  LYS A   1       6.958   0.534   1.660  0.00  0.00    +0.000 HD
ENDBRANCH   1   2
BRANCH   1   5
ATOM      5  C   LYS A   1       7.293  -2.063   3.834  0.00  0.00    +0.000 C 
ATOM      6  OXT LYS A   1       8.479  -2.183   4.100  0.00  0.00    +0.000 OA
BRANCH   5   7
ATOM      7  O   LYS A   1       6.333  -2.509   4.707  0.00  0.00    +0.000 OA
ATOM      8  H   LYS A   1       5.358  -2.442   4.553  0.00  0.00    +0.000 HD
ENDBRANCH   5   7
ENDBRANCH   1   5
BRANCH   1   9
ATOM      9  CB  LYS A   1       5.574  -1.544   2.507  0.00  0.00    +0.000 C 
BRANCH   9  10
ATOM     10  CG  LYS A   1       4.955  -0.589   1.149  0.00  0.00    +0.000 C 
BRANCH  10  11
ATOM     11  CD  LYS A   1       3.073  -0.015   1.719  0.00  0.00    +0.000 C 
BRANCH  11  12
ATOM     12  CE  LYS A   1       3.891   0.607  -0.286  0.00  0.00    +0.000 C 
BRANCH  12  13
ATOM     13  NZ  LYS A   1       2.045   1.602  -0.742  0.00  0.00    +0.000 NA
ATOM     14  HZ1 LYS A   1       1.244   0.872  -1.175  0.00  0.00    +0.000 HD
ATOM     15  HZ2 LYS A   1       1.362   1.313   0.349  0.00  0.00    +0.000 HD
ENDBRANCH  12  13
ENDBRANCH  11  12
ENDBRANCH  10  11
ENDBRANCH   9  10
ENDBRANCH   1   9
TORSDOF 8
REMARK  Name = "Zoledronate D	L-Lysine Monohydrate"
REMARK  17 active torsions:
REMARK  status: ('A' for Active; 'I' for Inactive)
REMARK    1  A    between atoms: NZ_2  and  CE_3
REMARK    2  A    between atoms: CE_3  and  CD_4
REMARK    3  A    between atoms: CD_4  and  CG_5
REMARK    4  A    between atoms: CG_5  and  CB_6
REMARK    5  A    between atoms: CB_6  and  CA_7
REMARK    6  A    between atoms: CA_7  and  N_8
REMARK    7  A    between atoms: CA_7  and  C_9
REMARK    8  A    between atoms: C_9  and  O_10
REMARK    9  A    between atoms: O_12  and  C_13
REMARK   10  A    between atoms: C_13  and  C_14
REMARK   11  A    between atoms: C_13  and  P_20
REMARK   12  A    between atoms: C_13  and  P_24
REMARK   13  A    between atoms: C_14  and  N_15
REMARK   14  A    between atoms: P_20  and  O_21
REMARK   15  A    between atoms: P_20  and  O_22
REMARK   16  A    between atoms: P_24  and  O_25
REMARK   17  A    between atoms: P_24  and  O_26
REMARK                            x       y       z     vdW  Elec       q    Type
REMARK                         _______ _______ _______ _____ _____    ______ ____
ROOT
ATOM      1  C   UNL     2       2.389   0.091   0.029  0.00  0.00    +0.000 C 
ENDROOT
BRANCH   1   2
ATOM      2  O   UNL     2       0.634   0.254   0.349  0.00  0.00    +0.000 OA
ATOM      3  H   UNL     2       0.087   0.954  -0.171  0.00  0.00    +0.000 HD
ENDBRANCH   1   2
BRANCH   1   4
ATOM      4  P   UNL     2       2.999   1.513   1.006  0.00  0.00    +0.000 P 
ATOM      5  O   UNL     2       3.515   2.716   1.832  0.00  0.00    +0.000 OA
BRANCH   4   6
ATOM      6  O   UNL     2       4.285   2.539  -0.105  0.00  0.00    +0.000 OA
ATOM      7  H   UNL     2       4.569   2.246  -1.039  0.00  0.00    +0.000 HD
ENDBRANCH   4   6
BRANCH   4   8
ATOM      8  O   UNL     2       1.498   2.316   1.296  0.00  0.00    +0.000 OA
ATOM      9  H   UNL     2       0.789   2.506   0.644  0.00  0.00    +0.000 HD
ENDBRANCH   4   8
ENDBRANCH   1   4
BRANCH   1  10
ATOM     10  P   UNL     2       2.999  -1.466   0.772  0.00  0.00    +0.000 P 
ATOM     11  O   UNL     2       3.515  -2.784   1.401  0.00  0.00    +0.000 OA
BRANCH  10  12
ATOM     12  O   UNL     2       3.947  -0.770   2.703  0.00  0.00    +0.000 OA
ATOM     13  H   UNL     2       4.414   0.336   2.539  0.00  0.00    +0.000 HD
ENDBRANCH  10  12
BRANCH  10  14
ATOM     14  O   UNL     2       1.301  -1.670   1.421  0.00  0.00    +0.000 OA
ATOM     15  H   UNL     2       0.864  -0.851   1.813  0.00  0.00    +0.000 HD
ENDBRANCH  10  14
ENDBRANCH   1  10
BRANCH   1  16
ATOM     16  C   UNL     2       2.759   0.105  -1.972  0.00  0.00    +0.000 C 
BRANCH  16  17
ATOM     17  N   UNL     2       2.471  -1.088  -2.547  0.00  0.00    +0.000 N 
ATOM     18  C   UNL     2       2.821  -2.295  -2.104  0.00  0.00    +0.000 A 
ATOM     19  C   UNL     2       2.224  -3.061  -3.052  0.00  0.00    +0.000 A 
ATOM     20  N   UNL     2       1.499  -2.307  -3.951  0.00  0.00    +0.000 NA
ATOM     21  C   UNL     2       1.617  -1.076  -3.562  0.00  0.00    +0.000 A 
ENDBRANCH  16  17
ENDBRANCH   1  16
TORSDOF 9
