REMARK  Name = 2-mercaptobenzothiazole
REMARK  0 active torsions:
REMARK  status: ('A' for Active; 'I' for Inactive)
REMARK                            x       y       z     vdW  Elec       q    Type
REMARK                         _______ _______ _______ _____ _____    ______ ____
ROOT
ATOM      1  S   UNL     1      -3.116  -0.471   0.005  0.00  0.00    +0.000 S 
ATOM      2  C   UNL     1      -1.484  -0.187   0.008  0.00  0.00    +0.000 A 
ATOM      3  N   UNL     1      -0.532  -1.184   0.004  0.00  0.00    +0.000 N 
ATOM      4  C   UNL     1       0.793  -0.744   0.000  0.00  0.00    +0.000 A 
ATOM      5  C   UNL     1       0.907   0.645   0.013  0.00  0.00    +0.000 A 
ATOM      6  S   UNL     1      -0.697   1.397   0.014  0.00  0.00    +0.000 S 
ATOM      7  C   UNL     1       2.147   1.258   0.020  0.00  0.00    +0.000 A 
ATOM      8  C   UNL     1       3.285   0.447   0.005  0.00  0.00    +0.000 A 
ATOM      9  C   UNL     1       3.166  -0.953  -0.016  0.00  0.00    +0.000 A 
ATOM     10  C   UNL     1       1.908  -1.563  -0.016  0.00  0.00    +0.000 A 
ATOM     11  H   UNL     1      -0.793  -2.160   0.006  0.00  0.00    +0.000 HD
ENDROOT
TORSDOF 0
