REMARK  Name = 4-(Isopropylamino)diphenylamine
REMARK  6 active torsions:
REMARK  status: ('A' for Active; 'I' for Inactive)
REMARK    1  A    between atoms: C_1  and  C_2
REMARK    2  A    between atoms: C_2  and  C_3
REMARK    3  A    between atoms: C_2  and  N_4
REMARK    4  A    between atoms: N_4  and  C_5
REMARK    5  A    between atoms: C_8  and  N_9
REMARK    6  A    between atoms: N_9  and  C_10
REMARK                            x       y       z     vdW  Elec       q    Type
REMARK                         _______ _______ _______ _____ _____    ______ ____
ROOT
ATOM      1  C   UNL     1       4.461  -1.217  -1.226  0.00  0.00    +0.000 A 
ATOM      2  C   UNL     1       5.019  -1.249  -2.514  0.00  0.00    +0.000 A 
ATOM      3  C   UNL     1       6.393  -1.529  -2.709  0.00  0.00    +0.000 A 
ATOM      4  C   UNL     1       7.255  -1.676  -1.621  0.00  0.00    +0.000 A 
ATOM      5  C   UNL     1       6.688  -1.627  -0.351  0.00  0.00    +0.000 A 
ATOM      6  C   UNL     1       5.330  -1.449  -0.177  0.00  0.00    +0.000 A 
ENDROOT
BRANCH   1   7
ATOM      7  N   UNL     1       3.120  -0.964  -1.005  0.00  0.00    +0.000 N 
ATOM      8  H   UNL     1       2.472  -1.337  -1.688  0.00  0.00    +0.000 HD
BRANCH   7  10
ATOM      9  C   UNL     1       1.059  -0.064  -0.047  0.00  0.00    +0.000 C 
ATOM     10  C   UNL     1       2.588  -0.059   0.027  0.00  0.00    +0.000 C 
ATOM     11  C   UNL     1       2.960  -0.439   1.460  0.00  0.00    +0.000 C 
ENDBRANCH   7  10
ENDBRANCH   1   7
BRANCH   4  12
ATOM     12  N   UNL     1       8.635  -1.881  -1.762  0.00  0.00    +0.000 N 
ATOM     13  H   UNL     1       9.025  -1.764  -2.690  0.00  0.00    +0.000 HD
BRANCH  12  14
ATOM     14  C   UNL     1       9.572  -2.058  -0.727  0.00  0.00    +0.000 A 
ATOM     15  C   UNL     1      10.629  -1.162  -0.548  0.00  0.00    +0.000 A 
ATOM     16  C   UNL     1      11.539  -1.341   0.500  0.00  0.00    +0.000 A 
ATOM     17  C   UNL     1      11.363  -2.382   1.414  0.00  0.00    +0.000 A 
ATOM     18  C   UNL     1      10.287  -3.252   1.274  0.00  0.00    +0.000 A 
ATOM     19  C   UNL     1       9.409  -3.096   0.205  0.00  0.00    +0.000 A 
ENDBRANCH  12  14
ENDBRANCH   4  12
TORSDOF 4
