REMARK  Name = 5-O-phosphono-alpha-D-ribofuranosyl diphosphate
REMARK  14 active torsions:
REMARK  status: ('A' for Active; 'I' for Inactive)
REMARK    1  A    between atoms: O_1  and  C_2
REMARK    2  A    between atoms: C_3  and  O_4
REMARK    3  A    between atoms: C_5  and  O_6
REMARK    4  A    between atoms: O_6  and  P_7
REMARK    5  A    between atoms: P_7  and  O_8
REMARK    6  A    between atoms: P_7  and  O_10
REMARK    7  A    between atoms: O_10  and  P_11
REMARK    8  A    between atoms: P_11  and  O_12
REMARK    9  A    between atoms: P_11  and  O_13
REMARK   10  A    between atoms: C_16  and  C_17
REMARK   11  A    between atoms: C_17  and  O_18
REMARK   12  A    between atoms: O_18  and  P_19
REMARK   13  A    between atoms: P_19  and  O_20
REMARK   14  A    between atoms: P_19  and  O_21
REMARK                            x       y       z     vdW  Elec       q    Type
REMARK                         _______ _______ _______ _____ _____    ______ ____
ROOT
ATOM      1  C   UNL     1      -0.138  -0.860  -0.372  0.00  0.00    +0.000 C 
ATOM      2  C   UNL     1      -0.388   0.638  -0.413  0.00  0.00    +0.000 C 
ATOM      3  C   UNL     1       0.720   1.180   0.546  0.00  0.00    +0.000 C 
ATOM      4  O   UNL     1       1.806   0.275   0.500  0.00  0.00    +0.000 OA
ATOM      5  C   UNL     1       1.375  -0.928  -0.190  0.00  0.00    +0.000 C 
ENDROOT
BRANCH   1   6
ATOM      6  O   UNL     1      -0.814  -1.450   0.748  0.00  0.00    +0.000 OA
ATOM      7  H   UNL     1      -1.731  -1.609   0.452  0.00  0.00    +0.000 HD
ENDBRANCH   1   6
BRANCH   2   8
ATOM      8  O   UNL     1      -1.744   0.916  -0.045  0.00  0.00    +0.000 OA
ATOM      9  H   UNL     1      -1.830   0.619   0.883  0.00  0.00    +0.000 HD
ENDBRANCH   2   8
BRANCH   3  10
ATOM     10  O   UNL     1       0.107   1.234   1.758  0.00  0.00    +0.000 OA
BRANCH  10  11
ATOM     11  P   UNL     1      -0.043   1.182   3.480  0.00  0.00    +0.000 P 
ATOM     12  O   UNL     1      -0.115   2.709   3.520  0.00  0.00    +0.000 OA
BRANCH  11  13
ATOM     13  O   UNL     1       1.524   0.731   3.547  0.00  0.00    +0.000 OA
ATOM     14  H   UNL     1       2.035   1.268   2.912  0.00  0.00    +0.000 HD
ENDBRANCH  11  13
BRANCH  11  15
ATOM     15  O   UNL     1      -0.192   1.130   5.203  0.00  0.00    +0.000 OA
BRANCH  15  16
ATOM     16  P   UNL     1      -1.827   0.757   5.629  0.00  0.00    +0.000 P 
ATOM     17  O   UNL     1      -3.290   0.424   6.010  0.00  0.00    +0.000 OA
BRANCH  16  18
ATOM     18  O   UNL     1      -1.880  -0.147   4.249  0.00  0.00    +0.000 OA
ATOM     19  H   UNL     1      -1.592  -1.063   4.432  0.00  0.00    +0.000 HD
ENDBRANCH  16  18
BRANCH  16  20
ATOM     20  O   UNL     1      -1.132  -0.432   6.516  0.00  0.00    +0.000 OA
ATOM     21  H   UNL     1      -0.457  -0.040   7.105  0.00  0.00    +0.000 HD
ENDBRANCH  16  20
ENDBRANCH  15  16
ENDBRANCH  11  15
ENDBRANCH  10  11
ENDBRANCH   3  10
BRANCH   5  22
ATOM     22  C   UNL     1       2.059  -0.942  -1.547  0.00  0.00    +0.000 C 
BRANCH  22  23
ATOM     23  O   UNL     1       1.784  -2.123  -2.325  0.00  0.00    +0.000 OA
BRANCH  23  24
ATOM     24  P   UNL     1       2.555  -2.232  -3.870  0.00  0.00    +0.000 P 
ATOM     25  O   UNL     1       3.245  -2.331  -5.252  0.00  0.00    +0.000 OA
BRANCH  24  26
ATOM     26  O   UNL     1       2.860  -0.624  -3.794  0.00  0.00    +0.000 OA
ATOM     27  H   UNL     1       2.272  -0.103  -4.379  0.00  0.00    +0.000 HD
ENDBRANCH  24  26
BRANCH  24  28
ATOM     28  O   UNL     1       3.862  -2.712  -3.008  0.00  0.00    +0.000 OA
ATOM     29  H   UNL     1       3.602  -3.334  -2.305  0.00  0.00    +0.000 HD
ENDBRANCH  24  28
ENDBRANCH  23  24
ENDBRANCH  22  23
ENDBRANCH   5  22
TORSDOF 14
