REMARK  Name = Abacavir
REMARK  4 active torsions:
REMARK  status: ('A' for Active; 'I' for Inactive)
REMARK    1  A    between atoms: N_8  and  C_9
REMARK    2  A    between atoms: C_11  and  C_12
REMARK    3  A    between atoms: C_12  and  O_13
REMARK    4  A    between atoms: N_17  and  C_18
REMARK                            x       y       z     vdW  Elec       q    Type
REMARK                         _______ _______ _______ _____ _____    ______ ____
ROOT
ATOM      1  N   UNL     1       0.759   0.860   0.630  0.00  0.00    +0.000 N 
ATOM      2  C   UNL     1       2.069   0.776   1.012  0.00  0.00    +0.000 A 
ATOM      3  N   UNL     1       2.959   1.658   0.542  0.00  0.00    +0.000 NA
ATOM      4  C   UNL     1       4.200   1.464   1.039  0.00  0.00    +0.000 A 
ATOM      5  C   UNL     1       4.587   0.500   1.948  0.00  0.00    +0.000 A 
ATOM      6  N   UNL     1       5.928   0.655   2.253  0.00  0.00    +0.000 NA
ATOM      7  C   UNL     1       6.345   1.692   1.535  0.00  0.00    +0.000 A 
ATOM      8  N   UNL     1       5.351   2.206   0.753  0.00  0.00    +0.000 N 
ATOM      9  C   UNL     1       3.586  -0.412   2.353  0.00  0.00    +0.000 A 
ATOM     10  N   UNL     1       3.864  -1.507   3.197  0.00  0.00    +0.000 N 
ATOM     11  N   UNL     1       2.339  -0.224   1.853  0.00  0.00    +0.000 NA
ATOM     12  H   UNL     1       0.463   1.517  -0.067  0.00  0.00    +0.000 HD
ATOM     13  H   UNL     1       0.155   0.137   0.990  0.00  0.00    +0.000 HD
ATOM     14  H   UNL     1       4.784  -1.366   3.613  0.00  0.00    +0.000 HD
ENDROOT
BRANCH   8  15
ATOM     15  C   UNL     1       5.222   3.385  -0.080  0.00  0.00    +0.000 C 
ATOM     16  C   UNL     1       6.153   4.206  -1.027  0.00  0.00    +0.000 C 
ATOM     17  C   UNL     1       6.026   5.717  -0.656  0.00  0.00    +0.000 C 
ATOM     18  C   UNL     1       5.054   5.710   0.471  0.00  0.00    +0.000 C 
ATOM     19  C   UNL     1       4.608   4.467   0.753  0.00  0.00    +0.000 C 
BRANCH  17  20
ATOM     20  C   UNL     1       7.385   6.408  -0.451  0.00  0.00    +0.000 C 
BRANCH  20  21
ATOM     21  O   UNL     1       7.547   6.982   0.837  0.00  0.00    +0.000 OA
ATOM     22  H   UNL     1       8.118   6.389   1.354  0.00  0.00    +0.000 HD
ENDBRANCH  20  21
ENDBRANCH  17  20
ENDBRANCH   8  15
BRANCH  10  23
ATOM     23  C   UNL     1       2.861  -2.242   3.978  0.00  0.00    +0.000 C 
ATOM     24  C   UNL     1       1.377  -1.988   3.928  0.00  0.00    +0.000 C 
ATOM     25  C   UNL     1       1.927  -3.289   3.431  0.00  0.00    +0.000 C 
ENDBRANCH  10  23
TORSDOF 4
