REMARK  Name = Abametapir
REMARK  3 active torsions:
REMARK  status: ('A' for Active; 'I' for Inactive)
REMARK    1  A    between atoms: C_1  and  C_2
REMARK    2  A    between atoms: C_5  and  C_8
REMARK    3  A    between atoms: C_11  and  C_12
REMARK                            x       y       z     vdW  Elec       q    Type
REMARK                         _______ _______ _______ _____ _____    ______ ____
ROOT
ATOM      1  C   UNL     1       2.508  -0.121   0.005  0.00  0.00    +0.000 C 
ATOM      2  C   UNL     1       1.018  -0.008   0.006  0.00  0.00    +0.000 A 
ATOM      3  C   UNL     1       0.380   1.229   0.012  0.00  0.00    +0.000 A 
ATOM      4  C   UNL     1      -1.011   1.281   0.018  0.00  0.00    +0.000 A 
ATOM      5  C   UNL     1      -1.739   0.091   0.010  0.00  0.00    +0.000 A 
ATOM      6  N   UNL     1      -1.135  -1.124   0.001  0.00  0.00    +0.000 NA
ATOM      7  C   UNL     1       0.217  -1.145   0.008  0.00  0.00    +0.000 A 
ENDROOT
BRANCH   5   8
ATOM      8  C   UNL     1      -3.209   0.118  -0.061  0.00  0.00    +0.000 A 
ATOM      9  C   UNL     1      -3.853   0.755  -1.122  0.00  0.00    +0.000 A 
ATOM     10  C   UNL     1      -5.242   0.831  -1.129  0.00  0.00    +0.000 A 
ATOM     11  C   UNL     1      -5.964   0.263  -0.083  0.00  0.00    +0.000 A 
ATOM     12  C   UNL     1      -7.457   0.311  -0.044  0.00  0.00    +0.000 C 
ATOM     13  C   UNL     1      -5.244  -0.361   0.931  0.00  0.00    +0.000 A 
ATOM     14  N   UNL     1      -3.895  -0.439   0.969  0.00  0.00    +0.000 NA
ENDBRANCH   5   8
TORSDOF 1
