REMARK  Name = Abemaciclib
REMARK  10 active torsions:
REMARK  status: ('A' for Active; 'I' for Inactive)
REMARK    1  A    between atoms: C_1  and  C_2
REMARK    2  A    between atoms: C_2  and  N_3
REMARK    3  A    between atoms: N_6  and  C_7
REMARK    4  A    between atoms: C_7  and  C_8
REMARK    5  A    between atoms: C_11  and  N_12
REMARK    6  A    between atoms: C_18  and  C_20
REMARK    7  A    between atoms: C_26  and  C_27
REMARK    8  A    between atoms: N_28  and  C_29
REMARK    9  A    between atoms: C_29  and  C_30
REMARK   10  A    between atoms: C_29  and  C_31
REMARK                            x       y       z     vdW  Elec       q    Type
REMARK                         _______ _______ _______ _____ _____    ______ ____
ROOT
ATOM      1  N   UNL     1       0.293   9.113   1.087  0.00  0.00    +0.000 N 
ATOM      2  C   UNL     1      -0.674   9.142   2.083  0.00  0.00    +0.000 A 
ATOM      3  N   UNL     1      -0.347   8.643   3.294  0.00  0.00    +0.000 NA
ATOM      4  C   UNL     1      -1.319   8.547   4.221  0.00  0.00    +0.000 A 
ATOM      5  C   UNL     1      -2.603   8.916   3.968  0.00  0.00    +0.000 A 
ATOM      6  F   UNL     1      -3.549   8.807   4.915  0.00  0.00    +0.000 F 
ATOM      7  C   UNL     1      -2.865   9.409   2.707  0.00  0.00    +0.000 A 
ATOM      8  N   UNL     1      -1.904   9.545   1.754  0.00  0.00    +0.000 NA
ATOM      9  H   UNL     1       0.403   9.923   0.513  0.00  0.00    +0.000 HD
ENDROOT
BRANCH   7  10
ATOM     10  C   UNL     1      -4.204   9.854   2.326  0.00  0.00    +0.000 A 
ATOM     11  C   UNL     1      -4.803  10.896   3.044  0.00  0.00    +0.000 A 
ATOM     12  C   UNL     1      -6.092  11.320   2.746  0.00  0.00    +0.000 A 
ATOM     13  F   UNL     1      -6.623  12.323   3.460  0.00  0.00    +0.000 F 
ATOM     14  C   UNL     1      -6.815  10.690   1.724  0.00  0.00    +0.000 A 
ATOM     15  N   UNL     1      -8.082  10.928   1.278  0.00  0.00    +0.000 NA
ATOM     16  C   UNL     1      -8.307  10.066   0.309  0.00  0.00    +0.000 A 
ATOM     17  C   UNL     1      -9.596  10.044  -0.430  0.00  0.00    +0.000 C 
ATOM     18  N   UNL     1      -7.211   9.238   0.111  0.00  0.00    +0.000 N 
ATOM     19  C   UNL     1      -6.225   9.653   1.004  0.00  0.00    +0.000 A 
ATOM     20  C   UNL     1      -4.909   9.232   1.272  0.00  0.00    +0.000 A 
BRANCH  18  21
ATOM     21  C   UNL     1      -7.038   8.125  -0.832  0.00  0.00    +0.000 C 
ATOM     22  C   UNL     1      -6.778   6.797  -0.108  0.00  0.00    +0.000 C 
ATOM     23  C   UNL     1      -8.194   7.878  -1.805  0.00  0.00    +0.000 C 
ENDBRANCH  18  21
ENDBRANCH   7  10
BRANCH   1  27
ATOM     24  C   UNL     1       2.444   5.760  -0.066  0.00  0.00    +0.000 A 
ATOM     25  C   UNL     1       1.526   5.682   0.974  0.00  0.00    +0.000 A 
ATOM     26  C   UNL     1       0.746   6.765   1.283  0.00  0.00    +0.000 A 
ATOM     27  C   UNL     1       1.006   7.989   0.689  0.00  0.00    +0.000 A 
ATOM     28  N   UNL     1       1.945   8.122  -0.273  0.00  0.00    +0.000 NA
ATOM     29  C   UNL     1       2.626   7.007  -0.641  0.00  0.00    +0.000 A 
BRANCH  24  30
ATOM     30  C   UNL     1       3.224   4.563  -0.524  0.00  0.00    +0.000 C 
BRANCH  30  34
ATOM     31  N   UNL     1       2.975   1.124   0.629  0.00  0.00    +0.000 NA
ATOM     32  C   UNL     1       3.960   1.650  -0.349  0.00  0.00    +0.000 C 
ATOM     33  C   UNL     1       3.275   2.369  -1.546  0.00  0.00    +0.000 C 
ATOM     34  N   UNL     1       2.403   3.498  -1.133  0.00  0.00    +0.000 NA
ATOM     35  C   UNL     1       1.407   2.933  -0.200  0.00  0.00    +0.000 C 
ATOM     36  C   UNL     1       2.052   2.209   1.014  0.00  0.00    +0.000 C 
BRANCH  31  38
ATOM     37  C   UNL     1       0.824  -0.208   0.079  0.00  0.00    +0.000 C 
ATOM     38  C   UNL     1       2.342  -0.084   0.070  0.00  0.00    +0.000 C 
ENDBRANCH  31  38
ENDBRANCH  30  34
ENDBRANCH  24  30
ENDBRANCH   1  27
TORSDOF 6
