REMARK  Name = Abiraterone
REMARK  4 active torsions:
REMARK  status: ('A' for Active; 'I' for Inactive)
REMARK    1  A    between atoms: C_5  and  C_6
REMARK    2  A    between atoms: C_12  and  C_13
REMARK    3  A    between atoms: C_24  and  O_25
REMARK    4  A    between atoms: C_28  and  C_29
REMARK                            x       y       z     vdW  Elec       q    Type
REMARK                         _______ _______ _______ _____ _____    ______ ____
ROOT
ATOM      1  C   UNL     1       1.769   0.079  -0.042  0.00  0.00    +0.000 C 
ATOM      2  C   UNL     1       2.271   0.023   1.286  0.00  0.00    +0.000 C 
ATOM      3  C   UNL     1       3.155   0.300   0.052  0.00  0.00    +0.000 C 
ATOM      4  C   UNL     1       2.627   0.967  -1.354  0.00  0.00    +0.000 C 
ATOM      5  C   UNL     1       2.749   1.690  -0.256  0.00  0.00    +0.000 C 
ATOM      6  C   UNL     1       1.929   2.902   0.088  0.00  0.00    +0.000 C 
ATOM      7  C   UNL     1       4.559   1.698  -0.655  0.00  0.00    +0.000 C 
ATOM      8  C   UNL     1       5.018   0.080  -1.482  0.00  0.00    +0.000 C 
ATOM      9  C   UNL     1       4.297  -1.439  -1.085  0.00  0.00    +0.000 C 
ATOM     10  C   UNL     1       2.491  -1.464  -0.872  0.00  0.00    +0.000 C 
ATOM     11  C   UNL     1       2.139  -2.662  -0.005  0.00  0.00    +0.000 C 
ATOM     12  C   UNL     1       2.854  -3.869  -0.437  0.00  0.00    +0.000 C 
ATOM     13  C   UNL     1       3.907  -3.913  -1.280  0.00  0.00    +0.000 C 
ATOM     14  C   UNL     1       4.427  -5.298  -1.429  0.00  0.00    +0.000 C 
ATOM     15  C   UNL     1       5.706  -5.297  -2.134  0.00  0.00    +0.000 C 
ATOM     16  C   UNL     1       6.705  -4.697  -3.012  0.00  0.00    +0.000 C 
ATOM     17  C   UNL     1       6.351  -3.089  -2.365  0.00  0.00    +0.000 C 
ATOM     18  C   UNL     1       4.664  -2.713  -2.009  0.00  0.00    +0.000 C 
ATOM     19  C   UNL     1       4.058  -2.387  -3.391  0.00  0.00    +0.000 C 
ENDROOT
BRANCH   4  20
ATOM     20  C   UNL     1       2.778   1.988  -2.731  0.00  0.00    +0.000 A 
ATOM     21  C   UNL     1       3.995   2.403  -3.319  0.00  0.00    +0.000 A 
ATOM     22  C   UNL     1       4.200   3.582  -4.087  0.00  0.00    +0.000 A 
ATOM     23  C   UNL     1       3.124   4.346  -4.441  0.00  0.00    +0.000 A 
ATOM     24  N   UNL     1       1.889   3.965  -4.078  0.00  0.00    +0.000 NA
ATOM     25  C   UNL     1       1.747   2.831  -3.246  0.00  0.00    +0.000 A 
ENDBRANCH   4  20
BRANCH  15  26
ATOM     26  O   UNL     1       6.646  -5.174  -1.009  0.00  0.00    +0.000 OA
ATOM     27  H   UNL     1       6.617  -4.397  -0.424  0.00  0.00    +0.000 HD
ENDBRANCH  15  26
TORSDOF 2
