REMARK  Name = Abrocitinib
REMARK  8 active torsions:
REMARK  status: ('A' for Active; 'I' for Inactive)
REMARK    1  A    between atoms: C_1  and  C_2
REMARK    2  A    between atoms: C_2  and  C_3
REMARK    3  A    between atoms: C_3  and  S_4
REMARK    4  A    between atoms: S_4  and  N_7
REMARK    5  A    between atoms: N_7  and  C_8
REMARK    6  A    between atoms: C_10  and  N_12
REMARK    7  A    between atoms: N_12  and  C_13
REMARK    8  A    between atoms: N_12  and  C_14
REMARK                            x       y       z     vdW  Elec       q    Type
REMARK                         _______ _______ _______ _____ _____    ______ ____
ROOT
ATOM      1  C   UNL     1       6.905  -0.029   3.205  0.00  0.00    +0.000 C 
ATOM      2  C   UNL     1       7.608  -0.655   4.451  0.00  0.00    +0.000 C 
ATOM      3  C   UNL     1       8.654   0.482   4.388  0.00  0.00    +0.000 C 
ATOM      4  C   UNL     1       7.553   1.299   3.661  0.00  0.00    +0.000 C 
ENDROOT
BRANCH   1   5
ATOM      5  N   UNL     1       7.272  -0.480   1.815  0.00  0.00    +0.000 NA
ATOM      6  H   UNL     1       7.943  -1.249   1.740  0.00  0.00    +0.000 HD
BRANCH   5   7
ATOM      7  S   UNL     1       6.965   0.399   0.391  0.00  0.00    +0.000 S 
ATOM      8  O   UNL     1       5.729   1.107   0.591  0.00  0.00    +0.000 OA
ATOM      9  O   UNL     1       7.171  -0.528  -0.708  0.00  0.00    +0.000 OA
BRANCH   7  10
ATOM     10  C   UNL     1       8.296   1.579   0.322  0.00  0.00    +0.000 C 
BRANCH  10  12
ATOM     11  C   UNL     1       9.467   3.582  -0.419  0.00  0.00    +0.000 C 
ATOM     12  C   UNL     1       8.280   2.653  -0.712  0.00  0.00    +0.000 C 
ENDBRANCH  10  12
ENDBRANCH   7  10
ENDBRANCH   5   7
ENDBRANCH   1   5
BRANCH   3  13
ATOM     13  N   UNL     1       9.880   0.111   3.700  0.00  0.00    +0.000 N 
ATOM     14  C   UNL     1      10.144   0.296   2.313  0.00  0.00    +0.000 C 
BRANCH  13  15
ATOM     15  C   UNL     1      10.916  -0.591   4.309  0.00  0.00    +0.000 A 
ATOM     16  C   UNL     1      12.234  -0.103   4.353  0.00  0.00    +0.000 A 
ATOM     17  C   UNL     1      12.963   1.012   3.835  0.00  0.00    +0.000 A 
ATOM     18  C   UNL     1      14.237   0.959   4.358  0.00  0.00    +0.000 A 
ATOM     19  N   UNL     1      14.302  -0.141   5.173  0.00  0.00    +0.000 N 
ATOM     20  C   UNL     1      13.115  -0.819   5.142  0.00  0.00    +0.000 A 
ATOM     21  N   UNL     1      12.866  -1.962   5.795  0.00  0.00    +0.000 NA
ATOM     22  C   UNL     1      11.604  -2.376   5.600  0.00  0.00    +0.000 A 
ATOM     23  N   UNL     1      10.627  -1.755   4.925  0.00  0.00    +0.000 NA
ATOM     24  H   UNL     1      15.092  -0.431   5.728  0.00  0.00    +0.000 HD
ENDBRANCH  13  15
ENDBRANCH   3  13
TORSDOF 6
