REMARK  Name = Acalabrutinib
REMARK  6 active torsions:
REMARK  status: ('A' for Active; 'I' for Inactive)
REMARK    1  A    between atoms: C_1  and  C_2
REMARK    2  A    between atoms: C_3  and  C_4
REMARK    3  A    between atoms: C_10  and  C_11
REMARK    4  A    between atoms: C_13  and  C_21
REMARK    5  A    between atoms: C_24  and  C_27
REMARK    6  A    between atoms: N_29  and  C_30
REMARK                            x       y       z     vdW  Elec       q    Type
REMARK                         _______ _______ _______ _____ _____    ______ ____
ROOT
ATOM      1  C   UNL     1       4.226  -1.813   0.408  0.00  0.00    +0.000 A 
ATOM      2  N   UNL     1       5.125  -1.107   1.086  0.00  0.00    +0.000 NA
ATOM      3  C   UNL     1       6.137  -0.813   0.198  0.00  0.00    +0.000 A 
ATOM      4  C   UNL     1       5.903  -1.429  -1.008  0.00  0.00    +0.000 A 
ATOM      5  N   UNL     1       4.696  -2.074  -0.869  0.00  0.00    +0.000 N 
ATOM      6  C   UNL     1       4.218  -2.826  -1.926  0.00  0.00    +0.000 A 
ATOM      7  C   UNL     1       4.905  -2.859  -3.073  0.00  0.00    +0.000 A 
ATOM      8  N   UNL     1       6.111  -2.223  -3.257  0.00  0.00    +0.000 NA
ATOM      9  C   UNL     1       6.617  -1.539  -2.257  0.00  0.00    +0.000 A 
ATOM     10  N   UNL     1       7.831  -0.967  -2.456  0.00  0.00    +0.000 N 
ATOM     11  H   UNL     1       8.273  -1.057  -3.357  0.00  0.00    +0.000 HD
ATOM     12  H   UNL     1       8.306  -0.461  -1.727  0.00  0.00    +0.000 HD
ENDROOT
BRANCH   1  19
ATOM     13  C   UNL     1       1.352  -0.551   0.042  0.00  0.00    +0.000 C 
ATOM     14  O   UNL     1       2.105   0.406   0.126  0.00  0.00    +0.000 OA
ATOM     15  N   UNL     1       1.755  -1.865   0.145  0.00  0.00    +0.000 N 
ATOM     16  C   UNL     1       1.081  -3.000  -0.446  0.00  0.00    +0.000 C 
ATOM     17  C   UNL     1       1.396  -4.144   0.494  0.00  0.00    +0.000 C 
ATOM     18  C   UNL     1       2.791  -3.813   1.039  0.00  0.00    +0.000 C 
ATOM     19  C   UNL     1       2.902  -2.277   0.960  0.00  0.00    +0.000 C 
BRANCH  13  22
ATOM     20  C   UNL     1      -2.700   0.192   0.022  0.00  0.00    +0.000 C 
ATOM     21  C   UNL     1      -1.253  -0.068  -0.058  0.00  0.00    +0.000 C 
ATOM     22  C   UNL     1      -0.080  -0.291  -0.077  0.00  0.00    +0.000 C 
ENDBRANCH  13  22
ENDBRANCH   1  19
BRANCH   3  23
ATOM     23  C   UNL     1       7.284   0.009   0.545  0.00  0.00    +0.000 A 
ATOM     24  C   UNL     1       7.536   1.220  -0.104  0.00  0.00    +0.000 A 
ATOM     25  C   UNL     1       8.529   2.086   0.384  0.00  0.00    +0.000 A 
ATOM     26  C   UNL     1       9.469   1.653   1.340  0.00  0.00    +0.000 A 
ATOM     27  C   UNL     1       9.282   0.385   1.897  0.00  0.00    +0.000 A 
ATOM     28  C   UNL     1       8.152  -0.387   1.565  0.00  0.00    +0.000 A 
BRANCH  26  29
ATOM     29  C   UNL     1      10.642   2.550   1.677  0.00  0.00    +0.000 C 
ATOM     30  O   UNL     1      10.705   3.626   1.085  0.00  0.00    +0.000 OA
ATOM     31  N   UNL     1      11.635   2.061   2.534  0.00  0.00    +0.000 N 
ATOM     32  H   UNL     1      11.678   1.079   2.743  0.00  0.00    +0.000 HD
BRANCH  31  33
ATOM     33  C   UNL     1      12.797   2.815   2.819  0.00  0.00    +0.000 A 
ATOM     34  C   UNL     1      14.048   2.209   2.720  0.00  0.00    +0.000 A 
ATOM     35  C   UNL     1      15.181   3.029   2.697  0.00  0.00    +0.000 A 
ATOM     36  C   UNL     1      15.070   4.346   3.110  0.00  0.00    +0.000 A 
ATOM     37  C   UNL     1      13.802   4.822   3.376  0.00  0.00    +0.000 A 
ATOM     38  N   UNL     1      12.672   4.110   3.164  0.00  0.00    +0.000 NA
ENDBRANCH  31  33
ENDBRANCH  26  29
ENDBRANCH   3  23
TORSDOF 5
