REMARK  Name = Acarbose
REMARK  27 active torsions:
REMARK  status: ('A' for Active; 'I' for Inactive)
REMARK    1  A    between atoms: C_2  and  C_4
REMARK    2  A    between atoms: C_4  and  O_5
REMARK    3  A    between atoms: C_4  and  C_6
REMARK    4  A    between atoms: C_6  and  O_7
REMARK    5  A    between atoms: C_6  and  C_8
REMARK    6  A    between atoms: C_8  and  O_10
REMARK    7  A    between atoms: C_8  and  C_46
REMARK    8  A    between atoms: O_10  and  C_11
REMARK    9  A    between atoms: C_14  and  C_15
REMARK   10  A    between atoms: C_15  and  O_16
REMARK   11  A    between atoms: C_17  and  O_19
REMARK   12  A    between atoms: O_19  and  C_20
REMARK   13  A    between atoms: C_22  and  C_23
REMARK   14  A    between atoms: C_24  and  N_25
REMARK   15  A    between atoms: N_25  and  C_26
REMARK   16  A    between atoms: C_29  and  C_30
REMARK   17  A    between atoms: C_30  and  O_31
REMARK   18  A    between atoms: C_32  and  O_33
REMARK   19  A    between atoms: C_34  and  O_35
REMARK   20  A    between atoms: C_36  and  O_37
REMARK   21  A    between atoms: C_38  and  O_39
REMARK   22  A    between atoms: C_40  and  O_41
REMARK   23  A    between atoms: C_42  and  O_43
REMARK   24  A    between atoms: C_44  and  O_45
REMARK   25  A    between atoms: C_46  and  O_47
REMARK   26  A    between atoms: C_46  and  C_48
REMARK   27  A    between atoms: C_48  and  O_49
REMARK                            x       y       z     vdW  Elec       q    Type
REMARK                         _______ _______ _______ _____ _____    ______ ____
ROOT
ATOM      1  C   UNL     1       7.811   1.052   1.360  0.00  0.00    +0.000 C 
ATOM      2  O   UNL     1       8.087   0.454   2.559  0.00  0.00    +0.000 OA
ATOM      3  C   UNL     1       9.412  -0.538   2.672  0.00  0.00    +0.000 C 
ATOM      4  C   UNL     1      10.532   0.366   2.212  0.00  0.00    +0.000 C 
ATOM      5  C   UNL     1      10.220   1.275   1.112  0.00  0.00    +0.000 C 
ATOM      6  C   UNL     1       8.928   2.034   1.266  0.00  0.00    +0.000 C 
ENDROOT
BRANCH   6   7
ATOM      7  O   UNL     1       8.656   2.817   0.126  0.00  0.00    +0.000 OA
ATOM      8  H   UNL     1       8.377   2.147  -0.525  0.00  0.00    +0.000 HD
ENDBRANCH   6   7
BRANCH   5   9
ATOM      9  O   UNL     1      11.274   2.225   1.145  0.00  0.00    +0.000 OA
ATOM     10  H   UNL     1      11.188   2.730   1.984  0.00  0.00    +0.000 HD
ENDBRANCH   5   9
BRANCH   4  11
ATOM     11  O   UNL     1      11.705  -0.431   2.145  0.00  0.00    +0.000 OA
BRANCH  11  12
ATOM     12  C   UNL     1      11.633  -1.455   3.175  0.00  0.00    +0.000 C 
ATOM     13  O   UNL     1      12.102  -0.757   4.521  0.00  0.00    +0.000 OA
ATOM     14  C   UNL     1      11.193   0.621   5.352  0.00  0.00    +0.000 C 
ATOM     15  C   UNL     1      12.000   1.342   7.181  0.00  0.00    +0.000 C 
ATOM     16  C   UNL     1       9.191  -0.173   5.595  0.00  0.00    +0.000 C 
ATOM     17  C   UNL     1       8.351  -1.230   3.976  0.00  0.00    +0.000 C 
ATOM     18  C   UNL     1       9.861  -2.353   2.925  0.00  0.00    +0.000 C 
BRANCH  18  19
ATOM     19  O   UNL     1      10.145  -2.629   1.563  0.00  0.00    +0.000 OA
ATOM     20  H   UNL     1      10.308  -1.807   1.081  0.00  0.00    +0.000 HD
ENDBRANCH  18  19
BRANCH  17  21
ATOM     21  O   UNL     1       7.129  -1.894   4.069  0.00  0.00    +0.000 OA
ATOM     22  H   UNL     1       7.407  -2.787   4.295  0.00  0.00    +0.000 HD
ENDBRANCH  17  21
BRANCH  16  23
ATOM     23  N   UNL     1       8.222   0.805   5.968  0.00  0.00    +0.000 NA
ATOM     24  H   UNL     1       7.269   0.454   5.888  0.00  0.00    +0.000 HD
BRANCH  23  25
ATOM     25  C   UNL     1       8.714   1.141   7.245  0.00  0.00    +0.000 C 
ATOM     26  C   UNL     1       8.894   0.040   8.287  0.00  0.00    +0.000 C 
ATOM     27  C   UNL     1       9.871  -0.919   8.568  0.00  0.00    +0.000 C 
ATOM     28  C   UNL     1      11.223  -1.316   7.940  0.00  0.00    +0.000 C 
ATOM     29  C   UNL     1      11.196  -0.432   6.820  0.00  0.00    +0.000 C 
ATOM     30  C   UNL     1      10.071   1.366   6.792  0.00  0.00    +0.000 C 
BRANCH  30  31
ATOM     31  O   UNL     1      10.206   2.490   5.583  0.00  0.00    +0.000 OA
ATOM     32  H   UNL     1       9.711   2.273   4.776  0.00  0.00    +0.000 HD
ENDBRANCH  30  31
BRANCH  29  33
ATOM     33  O   UNL     1      12.960  -0.310   6.315  0.00  0.00    +0.000 OA
ATOM     34  H   UNL     1      13.370   0.614   6.157  0.00  0.00    +0.000 HD
ENDBRANCH  29  33
BRANCH  28  35
ATOM     35  O   UNL     1      11.350  -2.642   7.382  0.00  0.00    +0.000 OA
ATOM     36  H   UNL     1      10.745  -2.730   6.623  0.00  0.00    +0.000 HD
ENDBRANCH  28  35
BRANCH  27  37
ATOM     37  C   UNL     1       9.796  -1.790   9.744  0.00  0.00    +0.000 C 
BRANCH  37  38
ATOM     38  O   UNL     1       8.613  -1.524  10.447  0.00  0.00    +0.000 OA
ATOM     39  H   UNL     1       8.643  -0.577  10.671  0.00  0.00    +0.000 HD
ENDBRANCH  37  38
ENDBRANCH  27  37
ENDBRANCH  23  25
ENDBRANCH  16  23
ENDBRANCH  11  12
ENDBRANCH   4  11
BRANCH   3  40
ATOM     40  C   UNL     1       9.928  -1.603   4.475  0.00  0.00    +0.000 C 
BRANCH  40  41
ATOM     41  O   UNL     1      10.229  -0.356   4.100  0.00  0.00    +0.000 OA
ATOM     42  H   UNL     1       9.767   0.499   4.216  0.00  0.00    +0.000 HD
ENDBRANCH  40  41
ENDBRANCH   3  40
BRANCH   1  43
ATOM     43  O   UNL     1       7.386   0.020   0.525  0.00  0.00    +0.000 OA
BRANCH  43  44
ATOM     44  C   UNL     1       6.623  -0.983   1.295  0.00  0.00    +0.000 C 
BRANCH  44  45
ATOM     45  C   UNL     1       5.381  -0.585   2.178  0.00  0.00    +0.000 C 
BRANCH  45  46
ATOM     46  O   UNL     1       4.923  -1.834   2.802  0.00  0.00    +0.000 OA
ATOM     47  H   UNL     1       5.608  -2.072   3.477  0.00  0.00    +0.000 HD
ENDBRANCH  45  46
BRANCH  45  48
ATOM     48  C   UNL     1       5.344   0.503   3.315  0.00  0.00    +0.000 C 
BRANCH  48  49
ATOM     49  C   UNL     1       5.799   1.881   2.913  0.00  0.00    +0.000 C 
ATOM     50  O   UNL     1       6.721   2.523   3.418  0.00  0.00    +0.000 OA
ENDBRANCH  48  49
BRANCH  48  51
ATOM     51  O   UNL     1       6.041   0.140   4.466  0.00  0.00    +0.000 OA
ATOM     52  H   UNL     1       6.819  -0.081   3.958  0.00  0.00    +0.000 HD
ENDBRANCH  48  51
ENDBRANCH  45  48
ENDBRANCH  44  45
BRANCH  44  53
ATOM     53  C   UNL     1       6.396  -2.166   0.363  0.00  0.00    +0.000 C 
BRANCH  53  54
ATOM     54  O   UNL     1       5.029  -2.531   0.387  0.00  0.00    +0.000 OA
ATOM     55  H   UNL     1       4.823  -2.678   1.345  0.00  0.00    +0.000 HD
ENDBRANCH  53  54
BRANCH  53  56
ATOM     56  C   UNL     1       7.172  -3.433   0.734  0.00  0.00    +0.000 C 
BRANCH  56  57
ATOM     57  O   UNL     1       8.532  -3.395   0.497  0.00  0.00    +0.000 OA
ATOM     58  H   UNL     1       8.821  -2.816  -0.220  0.00  0.00    +0.000 HD
ENDBRANCH  56  57
ENDBRANCH  53  56
ENDBRANCH  44  53
ENDBRANCH  43  44
ENDBRANCH   1  43
TORSDOF 26
