REMARK  Name = Acebutolol
REMARK  15 active torsions:
REMARK  status: ('A' for Active; 'I' for Inactive)
REMARK    1  A    between atoms: C_1  and  C_2
REMARK    2  A    between atoms: C_2  and  C_3
REMARK    3  A    between atoms: C_3  and  C_4
REMARK    4  A    between atoms: N_6  and  C_7
REMARK    5  A    between atoms: C_10  and  O_11
REMARK    6  A    between atoms: O_11  and  C_12
REMARK    7  A    between atoms: C_12  and  C_13
REMARK    8  A    between atoms: C_13  and  O_14
REMARK    9  A    between atoms: C_13  and  C_15
REMARK   10  A    between atoms: C_15  and  N_16
REMARK   11  A    between atoms: N_16  and  C_17
REMARK   12  A    between atoms: C_17  and  C_18
REMARK   13  A    between atoms: C_17  and  C_19
REMARK   14  A    between atoms: C_20  and  C_22
REMARK   15  A    between atoms: C_22  and  C_23
REMARK                            x       y       z     vdW  Elec       q    Type
REMARK                         _______ _______ _______ _____ _____    ______ ____
ROOT
ATOM      1  C   UNL     1       6.621  -1.016   2.451  0.00  0.00    +0.000 A 
ATOM      2  C   UNL     1       7.335  -2.065   3.009  0.00  0.00    +0.000 A 
ATOM      3  C   UNL     1       8.735  -1.976   3.108  0.00  0.00    +0.000 A 
ATOM      4  C   UNL     1       9.474  -0.867   2.617  0.00  0.00    +0.000 A 
ATOM      5  C   UNL     1       8.728   0.240   2.079  0.00  0.00    +0.000 A 
ATOM      6  C   UNL     1       7.323   0.106   2.011  0.00  0.00    +0.000 A 
ENDROOT
BRANCH   1   9
ATOM      7  C   UNL     1       4.536  -0.504   1.273  0.00  0.00    +0.000 C 
ATOM      8  O   UNL     1       5.110  -0.077   0.271  0.00  0.00    +0.000 OA
ATOM      9  N   UNL     1       5.205  -1.035   2.370  0.00  0.00    +0.000 N 
ATOM     10  H   UNL     1       4.692  -1.562   3.065  0.00  0.00    +0.000 HD
BRANCH   7  11
ATOM     11  C   UNL     1       3.016  -0.525   1.344  0.00  0.00    +0.000 C 
BRANCH  11  13
ATOM     12  C   UNL     1       0.920   0.059   0.024  0.00  0.00    +0.000 C 
ATOM     13  C   UNL     1       2.436   0.052   0.043  0.00  0.00    +0.000 C 
ENDBRANCH  11  13
ENDBRANCH   7  11
ENDBRANCH   1   9
BRANCH   5  14
ATOM     14  C   UNL     1       9.115   1.671   1.622  0.00  0.00    +0.000 C 
ATOM     15  C   UNL     1      10.489   2.140   1.818  0.00  0.00    +0.000 C 
ATOM     16  O   UNL     1       8.288   2.485   1.170  0.00  0.00    +0.000 OA
ENDBRANCH   5  14
BRANCH   4  17
ATOM     17  O   UNL     1      10.835  -1.164   2.768  0.00  0.00    +0.000 OA
BRANCH  17  18
ATOM     18  C   UNL     1      11.772  -0.218   2.312  0.00  0.00    +0.000 C 
BRANCH  18  19
ATOM     19  C   UNL     1      13.280  -0.356   2.266  0.00  0.00    +0.000 C 
BRANCH  19  20
ATOM     20  O   UNL     1      13.667  -1.401   1.389  0.00  0.00    +0.000 OA
ATOM     21  H   UNL     1      13.243  -1.218   0.533  0.00  0.00    +0.000 HD
ENDBRANCH  19  20
BRANCH  19  22
ATOM     22  C   UNL     1      13.841   1.009   1.734  0.00  0.00    +0.000 C 
BRANCH  22  23
ATOM     23  N   UNL     1      15.293   0.944   1.786  0.00  0.00    +0.000 NA
ATOM     24  H   UNL     1      15.583   0.100   1.286  0.00  0.00    +0.000 HD
BRANCH  23  25
ATOM     25  C   UNL     1      15.972   2.122   1.254  0.00  0.00    +0.000 C 
ATOM     26  C   UNL     1      15.627   3.382   2.050  0.00  0.00    +0.000 C 
ATOM     27  C   UNL     1      17.472   1.852   1.351  0.00  0.00    +0.000 C 
ENDBRANCH  23  25
ENDBRANCH  22  23
ENDBRANCH  19  22
ENDBRANCH  18  19
ENDBRANCH  17  18
ENDBRANCH   4  17
TORSDOF 11
