REMARK  Name = Aceclofenac
REMARK  8 active torsions:
REMARK  status: ('A' for Active; 'I' for Inactive)
REMARK    1  A    between atoms: O_1  and  C_2
REMARK    2  A    between atoms: C_2  and  C_4
REMARK    3  A    between atoms: C_4  and  O_5
REMARK    4  A    between atoms: O_5  and  C_6
REMARK    5  A    between atoms: C_6  and  C_8
REMARK    6  A    between atoms: C_8  and  C_9
REMARK    7  A    between atoms: C_14  and  N_15
REMARK    8  A    between atoms: N_15  and  C_16
REMARK                            x       y       z     vdW  Elec       q    Type
REMARK                         _______ _______ _______ _____ _____    ______ ____
ROOT
ATOM      1  C   UNL     1       7.867   2.817   1.100  0.00  0.00    +0.000 A 
ATOM      2  C   UNL     1       8.880   2.819   2.100  0.00  0.00    +0.000 A 
ATOM      3  C   UNL     1       9.305   4.006   2.704  0.00  0.00    +0.000 A 
ATOM      4  C   UNL     1       8.812   5.222   2.252  0.00  0.00    +0.000 A 
ATOM      5  C   UNL     1       7.884   5.249   1.201  0.00  0.00    +0.000 A 
ATOM      6  C   UNL     1       7.380   4.063   0.600  0.00  0.00    +0.000 A 
ENDROOT
BRANCH   6   7
ATOM      7  N   UNL     1       6.457   4.242  -0.493  0.00  0.00    +0.000 N 
ATOM      8  H   UNL     1       5.949   5.117  -0.369  0.00  0.00    +0.000 HD
BRANCH   7   9
ATOM      9  C   UNL     1       5.664   3.273  -1.155  0.00  0.00    +0.000 A 
ATOM     10  C   UNL     1       5.916   2.816  -2.457  0.00  0.00    +0.000 A 
ATOM     11 CL   UNL     1       7.074   3.621  -3.429  0.00  0.00    +0.000 Cl
ATOM     12  C   UNL     1       5.308   1.668  -3.027  0.00  0.00    +0.000 A 
ATOM     13  C   UNL     1       4.642   0.807  -2.225  0.00  0.00    +0.000 A 
ATOM     14  C   UNL     1       4.336   1.335  -1.008  0.00  0.00    +0.000 A 
ATOM     15  C   UNL     1       4.582   2.678  -0.578  0.00  0.00    +0.000 A 
ATOM     16 CL   UNL     1       3.698   3.628   0.631  0.00  0.00    +0.000 Cl
ENDBRANCH   7   9
ENDBRANCH   6   7
BRANCH   1  17
ATOM     17  C   UNL     1       7.078   1.474   0.936  0.00  0.00    +0.000 C 
BRANCH  17  18
ATOM     18  C   UNL     1       5.673   1.616   1.731  0.00  0.00    +0.000 C 
ATOM     19  O   UNL     1       5.506   2.589   2.468  0.00  0.00    +0.000 OA
BRANCH  18  20
ATOM     20  O   UNL     1       4.662   0.648   1.515  0.00  0.00    +0.000 OA
BRANCH  20  21
ATOM     21  C   UNL     1       3.047   0.747   1.348  0.00  0.00    +0.000 C 
BRANCH  21  22
ATOM     22  C   UNL     1       2.294  -0.386   0.477  0.00  0.00    +0.000 C 
ATOM     23  O   UNL     1       2.808  -1.323  -0.035  0.00  0.00    +0.000 OA
BRANCH  22  24
ATOM     24  O   UNL     1       0.982  -0.069   0.186  0.00  0.00    +0.000 OA
ATOM     25  H   UNL     1       0.616   0.778   0.495  0.00  0.00    +0.000 HD
ENDBRANCH  22  24
ENDBRANCH  21  22
ENDBRANCH  20  21
ENDBRANCH  18  20
ENDBRANCH  17  18
ENDBRANCH   1  17
TORSDOF 8
