REMARK  Name = Aceclidine
REMARK  3 active torsions:
REMARK  status: ('A' for Active; 'I' for Inactive)
REMARK    1  A    between atoms: C_1  and  C_2
REMARK    2  A    between atoms: C_2  and  O_4
REMARK    3  A    between atoms: O_4  and  C_5
REMARK                            x       y       z     vdW  Elec       q    Type
REMARK                         _______ _______ _______ _____ _____    ______ ____
ROOT
ATOM      1  C   UNL     1       4.563  -1.006   0.346  0.00  0.00    +0.000 C 
ATOM      2  C   UNL     1       5.296   0.360   0.350  0.00  0.00    +0.000 C 
ATOM      3  N   UNL     1       6.066   0.573  -0.905  0.00  0.00    +0.000 NA
ATOM      4  C   UNL     1       7.170  -0.399  -0.907  0.00  0.00    +0.000 C 
ATOM      5  C   UNL     1       6.635  -1.840  -0.863  0.00  0.00    +0.000 C 
ATOM      6  C   UNL     1       5.085  -1.837  -0.862  0.00  0.00    +0.000 C 
ATOM      7  C   UNL     1       4.647  -1.112  -2.137  0.00  0.00    +0.000 C 
ATOM      8  C   UNL     1       5.211   0.321  -2.097  0.00  0.00    +0.000 C 
ENDROOT
BRANCH   1   9
ATOM      9  O   UNL     1       3.099  -0.953   0.370  0.00  0.00    +0.000 OA
BRANCH   9  11
ATOM     10  C   UNL     1       0.925  -0.030   0.078  0.00  0.00    +0.000 C 
ATOM     11  C   UNL     1       2.397   0.141  -0.031  0.00  0.00    +0.000 C 
ATOM     12  O   UNL     1       2.846   1.192  -0.474  0.00  0.00    +0.000 OA
ENDBRANCH   9  11
ENDBRANCH   1   9
TORSDOF 2
