REMARK  Name = Acemetacin
REMARK  10 active torsions:
REMARK  status: ('A' for Active; 'I' for Inactive)
REMARK    1  A    between atoms: C_1  and  O_2
REMARK    2  A    between atoms: O_2  and  C_3
REMARK    3  A    between atoms: C_10  and  C_12
REMARK    4  A    between atoms: C_19  and  C_20
REMARK    5  A    between atoms: C_21  and  C_22
REMARK    6  A    between atoms: C_22  and  C_23
REMARK    7  A    between atoms: C_23  and  O_25
REMARK    8  A    between atoms: O_25  and  C_26
REMARK    9  A    between atoms: C_26  and  C_27
REMARK   10  A    between atoms: C_27  and  O_28
REMARK                            x       y       z     vdW  Elec       q    Type
REMARK                         _______ _______ _______ _____ _____    ______ ____
ROOT
ATOM      1  C   UNL     1       3.072   0.971  -0.495  0.00  0.00    +0.000 A 
ATOM      2  C   UNL     1       4.161   0.830  -1.377  0.00  0.00    +0.000 A 
ATOM      3  C   UNL     1       4.771   1.979  -1.967  0.00  0.00    +0.000 A 
ATOM      4  C   UNL     1       4.253   3.239  -1.630  0.00  0.00    +0.000 A 
ATOM      5  C   UNL     1       3.156   3.342  -0.763  0.00  0.00    +0.000 A 
ATOM      6  C   UNL     1       2.618   2.227  -0.156  0.00  0.00    +0.000 A 
ATOM      7  N   UNL     1       4.990   4.230  -2.284  0.00  0.00    +0.000 N 
ATOM      8  C   UNL     1       4.813   5.647  -2.192  0.00  0.00    +0.000 C 
ATOM      9  O   UNL     1       5.462   6.414  -2.900  0.00  0.00    +0.000 OA
ATOM     10  C   UNL     1       5.926   3.581  -3.076  0.00  0.00    +0.000 A 
ATOM     11  C   UNL     1       6.843   4.376  -3.936  0.00  0.00    +0.000 C 
ATOM     12  C   UNL     1       5.844   2.189  -2.915  0.00  0.00    +0.000 A 
ENDROOT
BRANCH   8  13
ATOM     13  C   UNL     1       3.863   6.348  -1.343  0.00  0.00    +0.000 A 
ATOM     14  C   UNL     1       3.884   6.172   0.038  0.00  0.00    +0.000 A 
ATOM     15  C   UNL     1       2.789   6.616   0.771  0.00  0.00    +0.000 A 
ATOM     16  C   UNL     1       1.810   7.396   0.150  0.00  0.00    +0.000 A 
ATOM     17 CL   UNL     1       0.436   7.900   1.049  0.00  0.00    +0.000 Cl
ATOM     18  C   UNL     1       1.916   7.740  -1.198  0.00  0.00    +0.000 A 
ATOM     19  C   UNL     1       2.915   7.163  -1.969  0.00  0.00    +0.000 A 
ENDBRANCH   8  13
BRANCH   1  21
ATOM     20  C   UNL     1       1.064  -0.092   0.066  0.00  0.00    +0.000 C 
ATOM     21  O   UNL     1       2.496  -0.158   0.028  0.00  0.00    +0.000 OA
ENDBRANCH   1  21
BRANCH  12  22
ATOM     22  C   UNL     1       6.674   1.058  -3.581  0.00  0.00    +0.000 C 
BRANCH  22  23
ATOM     23  C   UNL     1       7.765   1.476  -4.565  0.00  0.00    +0.000 C 
ATOM     24  O   UNL     1       8.048   2.619  -4.885  0.00  0.00    +0.000 OA
BRANCH  23  25
ATOM     25  O   UNL     1       8.506   0.497  -5.155  0.00  0.00    +0.000 OA
BRANCH  25  26
ATOM     26  C   UNL     1       9.460   1.172  -6.032  0.00  0.00    +0.000 C 
BRANCH  26  27
ATOM     27  C   UNL     1      10.351   0.208  -6.752  0.00  0.00    +0.000 C 
ATOM     28  O   UNL     1      11.225   0.542  -7.537  0.00  0.00    +0.000 OA
BRANCH  27  29
ATOM     29  O   UNL     1      10.077  -1.076  -6.431  0.00  0.00    +0.000 OA
ATOM     30  H   UNL     1       9.339  -1.098  -5.784  0.00  0.00    +0.000 HD
ENDBRANCH  27  29
ENDBRANCH  26  27
ENDBRANCH  25  26
ENDBRANCH  23  25
ENDBRANCH  22  23
ENDBRANCH  12  22
TORSDOF 8
