REMARK  Name = Acenocoumarol
REMARK  7 active torsions:
REMARK  status: ('A' for Active; 'I' for Inactive)
REMARK    1  A    between atoms: C_1  and  C_2
REMARK    2  A    between atoms: C_2  and  C_4
REMARK    3  A    between atoms: C_4  and  C_5
REMARK    4  A    between atoms: C_5  and  C_6
REMARK    5  A    between atoms: C_5  and  C_15
REMARK    6  A    between atoms: C_9  and  N_12
REMARK    7  A    between atoms: C_16  and  O_17
REMARK                            x       y       z     vdW  Elec       q    Type
REMARK                         _______ _______ _______ _____ _____    ______ ____
ROOT
ATOM      1  C   UNL     1       4.665   1.003   0.356  0.00  0.00    +0.000 C 
ENDROOT
BRANCH   1   2
ATOM      2  C   UNL     1       5.546   2.118   0.960  0.00  0.00    +0.000 A 
ATOM      3  C   UNL     1       6.885   2.184   0.811  0.00  0.00    +0.000 A 
ATOM      4  C   UNL     1       7.616   3.361   1.258  0.00  0.00    +0.000 A 
ATOM      5  C   UNL     1       8.809   3.806   0.686  0.00  0.00    +0.000 A 
ATOM      6  C   UNL     1       9.539   4.821   1.305  0.00  0.00    +0.000 A 
ATOM      7  C   UNL     1       9.060   5.412   2.477  0.00  0.00    +0.000 A 
ATOM      8  C   UNL     1       7.826   5.024   3.005  0.00  0.00    +0.000 A 
ATOM      9  C   UNL     1       7.089   4.044   2.343  0.00  0.00    +0.000 A 
ATOM     10  O   UNL     1       5.754   3.816   2.708  0.00  0.00    +0.000 OA
ATOM     11  C   UNL     1       4.942   3.265   1.709  0.00  0.00    +0.000 A 
ATOM     12  O   UNL     1       3.792   3.630   1.545  0.00  0.00    +0.000 OA
BRANCH   3  13
ATOM     13  O   UNL     1       7.681   1.192   0.282  0.00  0.00    +0.000 OA
ATOM     14  H   UNL     1       7.155   0.389   0.130  0.00  0.00    +0.000 HD
ENDBRANCH   3  13
ENDBRANCH   1   2
BRANCH   1  15
ATOM     15  C   UNL     1       5.063   0.698  -1.106  0.00  0.00    +0.000 A 
ATOM     16  C   UNL     1       5.080  -0.625  -1.584  0.00  0.00    +0.000 A 
ATOM     17  C   UNL     1       5.447  -0.920  -2.894  0.00  0.00    +0.000 A 
ATOM     18  C   UNL     1       5.828   0.117  -3.742  0.00  0.00    +0.000 A 
ATOM     19  C   UNL     1       5.883   1.435  -3.277  0.00  0.00    +0.000 A 
ATOM     20  C   UNL     1       5.466   1.724  -1.978  0.00  0.00    +0.000 A 
BRANCH  18  21
ATOM     21  N   UNL     1       6.122  -0.176  -5.146  0.00  0.00    +0.000 N 
ATOM     22  O   UNL     1       6.000  -1.349  -5.527  0.00  0.00    +0.000 OA
ATOM     23  O   UNL     1       6.452   0.771  -5.874  0.00  0.00    +0.000 OA
ENDBRANCH  18  21
ENDBRANCH   1  15
BRANCH   1  24
ATOM     24  C   UNL     1       3.130   1.189   0.446  0.00  0.00    +0.000 C 
BRANCH  24  26
ATOM     25  C   UNL     1       0.828   0.083   0.019  0.00  0.00    +0.000 C 
ATOM     26  C   UNL     1       2.319  -0.052   0.089  0.00  0.00    +0.000 C 
ATOM     27  O   UNL     1       2.812  -1.173  -0.033  0.00  0.00    +0.000 OA
ENDBRANCH  24  26
ENDBRANCH   1  24
TORSDOF 6
