REMARK  Name = Acetohexamide
REMARK  5 active torsions:
REMARK  status: ('A' for Active; 'I' for Inactive)
REMARK    1  A    between atoms: C_1  and  C_2
REMARK    2  A    between atoms: C_2  and  C_4
REMARK    3  A    between atoms: C_7  and  S_10
REMARK    4  A    between atoms: S_10  and  N_13
REMARK    5  A    between atoms: N_16  and  C_17
REMARK                            x       y       z     vdW  Elec       q    Type
REMARK                         _______ _______ _______ _____ _____    ______ ____
ROOT
ATOM      1  S   UNL     1       5.581  -4.251  -3.181  0.00  0.00    +0.000 S 
ATOM      2  O   UNL     1       6.922  -3.734  -3.348  0.00  0.00    +0.000 OA
ATOM      3  O   UNL     1       5.292  -5.428  -2.387  0.00  0.00    +0.000 OA
ENDROOT
BRANCH   1   7
ATOM      4  C   UNL     1       3.177  -1.083  -0.844  0.00  0.00    +0.000 A 
ATOM      5  C   UNL     1       4.269  -1.734  -0.264  0.00  0.00    +0.000 A 
ATOM      6  C   UNL     1       5.037  -2.630  -1.025  0.00  0.00    +0.000 A 
ATOM      7  C   UNL     1       4.674  -2.934  -2.353  0.00  0.00    +0.000 A 
ATOM      8  C   UNL     1       3.594  -2.271  -2.934  0.00  0.00    +0.000 A 
ATOM      9  C   UNL     1       2.848  -1.346  -2.179  0.00  0.00    +0.000 A 
BRANCH   4  11
ATOM     10  C   UNL     1       0.940  -0.059  -0.075  0.00  0.00    +0.000 C 
ATOM     11  C   UNL     1       2.446  -0.063  -0.043  0.00  0.00    +0.000 C 
ATOM     12  O   UNL     1       3.083   0.730   0.646  0.00  0.00    +0.000 OA
ENDBRANCH   4  11
ENDBRANCH   1   7
BRANCH   1  13
ATOM     13  N   UNL     1       4.918  -4.495  -4.725  0.00  0.00    +0.000 N 
ATOM     14  C   UNL     1       5.451  -5.508  -5.536  0.00  0.00    +0.000 C 
ATOM     15  O   UNL     1       6.323  -6.255  -5.110  0.00  0.00    +0.000 OA
ATOM     16  N   UNL     1       4.953  -5.624  -6.820  0.00  0.00    +0.000 N 
ATOM     17  H   UNL     1       4.158  -3.918  -5.039  0.00  0.00    +0.000 HD
ATOM     18  H   UNL     1       4.152  -5.077  -7.099  0.00  0.00    +0.000 HD
BRANCH  16  19
ATOM     19  C   UNL     1       5.403  -6.685  -7.756  0.00  0.00    +0.000 C 
ATOM     20  C   UNL     1       6.939  -6.772  -7.881  0.00  0.00    +0.000 C 
ATOM     21  C   UNL     1       7.424  -7.937  -8.738  0.00  0.00    +0.000 C 
ATOM     22  C   UNL     1       6.826  -9.259  -8.270  0.00  0.00    +0.000 C 
ATOM     23  C   UNL     1       5.304  -9.188  -8.276  0.00  0.00    +0.000 C 
ATOM     24  C   UNL     1       4.791  -8.049  -7.394  0.00  0.00    +0.000 C 
ENDBRANCH  16  19
ENDBRANCH   1  13
TORSDOF 4
