REMARK  Name = Acetophenazine
REMARK  9 active torsions:
REMARK  status: ('A' for Active; 'I' for Inactive)
REMARK    1  A    between atoms: C_1  and  C_2
REMARK    2  A    between atoms: C_2  and  C_4
REMARK    3  A    between atoms: N_15  and  C_16
REMARK    4  A    between atoms: C_16  and  C_17
REMARK    5  A    between atoms: C_17  and  C_18
REMARK    6  A    between atoms: C_18  and  N_19
REMARK    7  A    between atoms: N_22  and  C_23
REMARK    8  A    between atoms: C_23  and  C_24
REMARK    9  A    between atoms: C_24  and  O_25
REMARK                            x       y       z     vdW  Elec       q    Type
REMARK                         _______ _______ _______ _____ _____    ______ ____
ROOT
ATOM      1  C   UNL     1       3.173  -1.354   0.219  0.00  0.00    +0.000 A 
ATOM      2  C   UNL     1       2.757  -2.565  -0.321  0.00  0.00    +0.000 A 
ATOM      3  C   UNL     1       3.482  -3.726  -0.037  0.00  0.00    +0.000 A 
ATOM      4  C   UNL     1       4.591  -3.688   0.823  0.00  0.00    +0.000 A 
ATOM      5  S   UNL     1       5.490  -5.201   1.131  0.00  0.00    +0.000 S 
ATOM      6  C   UNL     1       7.120  -4.503   1.373  0.00  0.00    +0.000 A 
ATOM      7  C   UNL     1       7.284  -3.219   1.936  0.00  0.00    +0.000 A 
ATOM      8  C   UNL     1       8.581  -2.706   2.073  0.00  0.00    +0.000 A 
ATOM      9  C   UNL     1       9.688  -3.448   1.663  0.00  0.00    +0.000 A 
ATOM     10  C   UNL     1       9.514  -4.717   1.115  0.00  0.00    +0.000 A 
ATOM     11  C   UNL     1       8.233  -5.246   0.971  0.00  0.00    +0.000 A 
ATOM     12  N   UNL     1       6.165  -2.392   2.202  0.00  0.00    +0.000 N 
ATOM     13  C   UNL     1       5.010  -2.472   1.395  0.00  0.00    +0.000 A 
ATOM     14  C   UNL     1       4.323  -1.311   1.007  0.00  0.00    +0.000 A 
ENDROOT
BRANCH   1  16
ATOM     15  C   UNL     1       0.950  -0.094   0.009  0.00  0.00    +0.000 C 
ATOM     16  C   UNL     1       2.452  -0.078  -0.015  0.00  0.00    +0.000 C 
ATOM     17  O   UNL     1       3.090   0.971  -0.124  0.00  0.00    +0.000 OA
ENDBRANCH   1  16
BRANCH  12  18
ATOM     18  C   UNL     1       6.135  -1.817   3.585  0.00  0.00    +0.000 C 
BRANCH  18  19
ATOM     19  C   UNL     1       4.814  -1.160   3.923  0.00  0.00    +0.000 C 
BRANCH  19  20
ATOM     20  C   UNL     1       4.677  -0.395   5.226  0.00  0.00    +0.000 C 
BRANCH  20  21
ATOM     21  N   UNL     1       3.302   0.151   5.292  0.00  0.00    +0.000 NA
ATOM     22  C   UNL     1       3.093   0.976   6.502  0.00  0.00    +0.000 C 
ATOM     23  C   UNL     1       3.650   2.423   6.412  0.00  0.00    +0.000 C 
ATOM     24  N   UNL     1       3.220   3.159   5.197  0.00  0.00    +0.000 NA
ATOM     25  C   UNL     1       3.580   2.327   4.029  0.00  0.00    +0.000 C 
ATOM     26  C   UNL     1       2.908   0.940   4.096  0.00  0.00    +0.000 C 
BRANCH  24  27
ATOM     27  C   UNL     1       1.763   3.417   5.241  0.00  0.00    +0.000 C 
BRANCH  27  28
ATOM     28  C   UNL     1       1.229   4.135   3.995  0.00  0.00    +0.000 C 
BRANCH  28  29
ATOM     29  O   UNL     1      -0.183   4.294   4.087  0.00  0.00    +0.000 OA
ATOM     30  H   UNL     1      -0.568   3.400   4.088  0.00  0.00    +0.000 HD
ENDBRANCH  28  29
ENDBRANCH  27  28
ENDBRANCH  24  27
ENDBRANCH  20  21
ENDBRANCH  19  20
ENDBRANCH  18  19
ENDBRANCH  12  18
TORSDOF 8
