REMARK  Name = Acetylsalicylic acid
REMARK  5 active torsions:
REMARK  status: ('A' for Active; 'I' for Inactive)
REMARK    1  A    between atoms: C_1  and  C_2
REMARK    2  A    between atoms: C_2  and  O_4
REMARK    3  A    between atoms: O_4  and  C_5
REMARK    4  A    between atoms: C_10  and  C_11
REMARK    5  A    between atoms: C_11  and  O_12
REMARK                            x       y       z     vdW  Elec       q    Type
REMARK                         _______ _______ _______ _____ _____    ______ ____
ROOT
ATOM      1  C   UNL     1       4.530  -0.608  -0.842  0.00  0.00    +0.000 A 
ATOM      2  C   UNL     1       5.220  -0.454  -2.060  0.00  0.00    +0.000 A 
ATOM      3  C   UNL     1       6.605  -0.636  -2.112  0.00  0.00    +0.000 A 
ATOM      4  C   UNL     1       7.309  -0.893  -0.942  0.00  0.00    +0.000 A 
ATOM      5  C   UNL     1       6.627  -1.046   0.271  0.00  0.00    +0.000 A 
ATOM      6  C   UNL     1       5.224  -0.939   0.344  0.00  0.00    +0.000 A 
ENDROOT
BRANCH   6   7
ATOM      7  C   UNL     1       4.492  -1.250   1.622  0.00  0.00    +0.000 C 
ATOM      8  O   UNL     1       3.292  -1.494   1.671  0.00  0.00    +0.000 OA
BRANCH   7   9
ATOM      9  O   UNL     1       5.228  -1.290   2.752  0.00  0.00    +0.000 OA
ATOM     10  H   UNL     1       6.191  -1.214   2.683  0.00  0.00    +0.000 HD
ENDBRANCH   7   9
ENDBRANCH   6   7
BRANCH   1  11
ATOM     11  O   UNL     1       3.116  -0.538  -0.921  0.00  0.00    +0.000 OA
BRANCH  11  13
ATOM     12  C   UNL     1       0.998   0.065   0.005  0.00  0.00    +0.000 C 
ATOM     13  C   UNL     1       2.482   0.317  -0.019  0.00  0.00    +0.000 C 
ATOM     14  O   UNL     1       3.041   1.179   0.651  0.00  0.00    +0.000 OA
ENDBRANCH  11  13
ENDBRANCH   1  11
TORSDOF 4
