REMARK  Name = Acetylcarnitine
REMARK  10 active torsions:
REMARK  status: ('A' for Active; 'I' for Inactive)
REMARK    1  A    between atoms: C_1  and  C_2
REMARK    2  A    between atoms: C_2  and  O_4
REMARK    3  A    between atoms: O_4  and  C_5
REMARK    4  A    between atoms: C_5  and  C_6
REMARK    5  A    between atoms: C_5  and  C_10
REMARK    6  A    between atoms: C_6  and  C_7
REMARK    7  A    between atoms: C_10  and  N_11
REMARK    8  A    between atoms: N_11  and  C_12
REMARK    9  A    between atoms: N_11  and  C_13
REMARK   10  A    between atoms: N_11  and  C_14
REMARK                            x       y       z     vdW  Elec       q    Type
REMARK                         _______ _______ _______ _____ _____    ______ ____
ROOT
ATOM      1  C   UNL     1       4.524   1.118   0.368  0.00  0.00    +0.000 C 
ENDROOT
BRANCH   1   2
ATOM      2  O   UNL     1       4.857   0.982  -1.035  0.00  0.00    +0.000 OA
BRANCH   2   4
ATOM      3  C   UNL     1       4.174  -1.385  -0.989  0.00  0.00    +0.000 C 
ATOM      4  C   UNL     1       4.817  -0.214  -1.676  0.00  0.00    +0.000 C 
ATOM      5  O   UNL     1       5.336  -0.319  -2.788  0.00  0.00    +0.000 OA
ENDBRANCH   2   4
ENDBRANCH   1   2
BRANCH   1   6
ATOM      6  C   UNL     1       3.017   1.219   0.479  0.00  0.00    +0.000 C 
BRANCH   6   7
ATOM      7  C   UNL     1       2.603   0.812   1.882  0.00  0.00    +0.000 C 
ATOM      8  O   UNL     1       3.552   0.628   2.695  0.00  0.00    +0.000 OA
ATOM      9  O   UNL     1       1.361   0.734   2.046  0.00  0.00    +0.000 OA
ENDBRANCH   6   7
ENDBRANCH   1   6
BRANCH   1  10
ATOM     10  C   UNL     1       5.138   2.425   0.947  0.00  0.00    +0.000 C 
BRANCH  10  11
ATOM     11  N   UNL     1       6.693   2.452   0.962  0.00  0.00    +0.000 N 
ATOM     12  C   UNL     1       7.204   1.325   1.844  0.00  0.00    +0.000 C 
ATOM     13  C   UNL     1       7.256   2.340  -0.442  0.00  0.00    +0.000 C 
ATOM     14  C   UNL     1       7.144   3.780   1.555  0.00  0.00    +0.000 C 
ENDBRANCH  10  11
ENDBRANCH   1  10
TORSDOF 6
