REMARK  Name = Acetazolamide
REMARK  3 active torsions:
REMARK  status: ('A' for Active; 'I' for Inactive)
REMARK    1  A    between atoms: C_1  and  C_2
REMARK    2  A    between atoms: C_8  and  S_10
REMARK    3  A    between atoms: S_10  and  N_11
REMARK                            x       y       z     vdW  Elec       q    Type
REMARK                         _______ _______ _______ _____ _____    ______ ____
ROOT
ATOM      1  C   UNL     1       1.074  -0.019  -0.114  0.00  0.00    +0.000 C 
ATOM      2  C   UNL     1       2.584  -0.135  -0.081  0.00  0.00    +0.000 C 
ATOM      3  O   UNL     1       3.113  -1.027   0.577  0.00  0.00    +0.000 OA
ATOM      4  N   UNL     1       3.262   0.841  -0.787  0.00  0.00    +0.000 N 
ATOM      5  C   UNL     1       4.645   0.932  -0.739  0.00  0.00    +0.000 A 
ATOM      6  N   UNL     1       5.316   2.064  -0.702  0.00  0.00    +0.000 NA
ATOM      7  N   UNL     1       6.692   1.859  -0.708  0.00  0.00    +0.000 NA
ATOM      8  C   UNL     1       6.988   0.579  -0.838  0.00  0.00    +0.000 A 
ATOM      9  S   UNL     1       5.634  -0.457  -0.941  0.00  0.00    +0.000 S 
ATOM     10  H   UNL     1       2.786   1.713  -0.981  0.00  0.00    +0.000 HD
ENDROOT
BRANCH   8  11
ATOM     11  S   UNL     1       8.636  -0.065  -1.018  0.00  0.00    +0.000 S 
ATOM     12  O   UNL     1       9.343   0.291   0.185  0.00  0.00    +0.000 OA
ATOM     13  O   UNL     1       8.520  -1.437  -1.477  0.00  0.00    +0.000 OA
BRANCH  11  14
ATOM     14  N   UNL     1       9.390   0.774  -2.277  0.00  0.00    +0.000 NA
ATOM     15  H   UNL     1       9.529   1.759  -2.058  0.00  0.00    +0.000 HD
ATOM     16  H   UNL     1       8.992   0.572  -3.192  0.00  0.00    +0.000 HD
ENDBRANCH  11  14
ENDBRANCH   8  11
TORSDOF 2
