REMARK  Name = Acetaminophen
REMARK  3 active torsions:
REMARK  status: ('A' for Active; 'I' for Inactive)
REMARK    1  A    between atoms: C_1  and  C_2
REMARK    2  A    between atoms: N_4  and  C_5
REMARK    3  A    between atoms: C_8  and  O_9
REMARK                            x       y       z     vdW  Elec       q    Type
REMARK                         _______ _______ _______ _____ _____    ______ ____
ROOT
ATOM      1  C   UNL     1       4.775  -0.398   1.166  0.00  0.00    +0.000 A 
ATOM      2  C   UNL     1       5.525   0.678   0.675  0.00  0.00    +0.000 A 
ATOM      3  C   UNL     1       6.923   0.665   0.721  0.00  0.00    +0.000 A 
ATOM      4  C   UNL     1       7.574  -0.444   1.244  0.00  0.00    +0.000 A 
ATOM      5  C   UNL     1       6.846  -1.525   1.731  0.00  0.00    +0.000 A 
ATOM      6  C   UNL     1       5.444  -1.493   1.720  0.00  0.00    +0.000 A 
ENDROOT
BRANCH   1  10
ATOM      7  C   UNL     1       1.174   0.010   0.079  0.00  0.00    +0.000 C 
ATOM      8  C   UNL     1       2.677   0.076  -0.012  0.00  0.00    +0.000 C 
ATOM      9  O   UNL     1       3.212   0.480  -1.048  0.00  0.00    +0.000 OA
ATOM     10  N   UNL     1       3.359  -0.379   1.107  0.00  0.00    +0.000 N 
ATOM     11  H   UNL     1       2.854  -0.937   1.785  0.00  0.00    +0.000 HD
ENDBRANCH   1  10
BRANCH   4  12
ATOM     12  O   UNL     1       8.935  -0.516   1.302  0.00  0.00    +0.000 OA
ATOM     13  H   UNL     1       9.311   0.310   0.956  0.00  0.00    +0.000 HD
ENDBRANCH   4  12
TORSDOF 2
