REMARK  Name = Acetyl sulfisoxazole
REMARK  7 active torsions:
REMARK  status: ('A' for Active; 'I' for Inactive)
REMARK    1  A    between atoms: C_1  and  C_2
REMARK    2  A    between atoms: N_4  and  C_5
REMARK    3  A    between atoms: N_4  and  S_12
REMARK    4  A    between atoms: C_6  and  C_7
REMARK    5  A    between atoms: C_8  and  C_9
REMARK    6  A    between atoms: S_12  and  C_15
REMARK    7  A    between atoms: C_18  and  N_19
REMARK                            x       y       z     vdW  Elec       q    Type
REMARK                         _______ _______ _______ _____ _____    ______ ____
ROOT
ATOM      1  S   UNL     1       4.960   1.165  -0.351  0.00  0.00    +0.000 S 
ATOM      2  O   UNL     1       5.392   1.094   1.036  0.00  0.00    +0.000 OA
ATOM      3  O   UNL     1       5.401   0.185  -1.321  0.00  0.00    +0.000 OA
ENDROOT
BRANCH   1   4
ATOM      4  C   UNL     1       5.611   2.755  -0.924  0.00  0.00    +0.000 A 
ATOM      5  C   UNL     1       5.059   3.937  -0.430  0.00  0.00    +0.000 A 
ATOM      6  C   UNL     1       5.368   5.159  -1.041  0.00  0.00    +0.000 A 
ATOM      7  C   UNL     1       6.301   5.242  -2.081  0.00  0.00    +0.000 A 
ATOM      8  C   UNL     1       6.881   4.056  -2.548  0.00  0.00    +0.000 A 
ATOM      9  C   UNL     1       6.556   2.814  -1.967  0.00  0.00    +0.000 A 
BRANCH   7  10
ATOM     10  N   UNL     1       6.430   6.433  -2.804  0.00  0.00    +0.000 N 
ATOM     11  H   UNL     1       6.209   7.278  -2.284  0.00  0.00    +0.000 HD
ATOM     12  H   UNL     1       7.279   6.526  -3.353  0.00  0.00    +0.000 HD
ENDBRANCH   7  10
ENDBRANCH   1   4
BRANCH   1  16
ATOM     13  C   UNL     1       1.004   0.059   0.071  0.00  0.00    +0.000 C 
ATOM     14  C   UNL     1       2.519   0.059   0.114  0.00  0.00    +0.000 C 
ATOM     15  O   UNL     1       3.088  -0.944   0.542  0.00  0.00    +0.000 OA
ATOM     16  N   UNL     1       3.253   1.184  -0.384  0.00  0.00    +0.000 N 
BRANCH  16  17
ATOM     17  C   UNL     1       2.528   2.252  -0.987  0.00  0.00    +0.000 A 
ATOM     18  C   UNL     1       2.737   2.850  -2.213  0.00  0.00    +0.000 A 
ATOM     19  C   UNL     1       3.732   2.549  -3.259  0.00  0.00    +0.000 C 
ATOM     20  C   UNL     1       1.780   3.896  -2.273  0.00  0.00    +0.000 A 
ATOM     21  C   UNL     1       1.603   4.888  -3.360  0.00  0.00    +0.000 C 
ATOM     22  N   UNL     1       0.994   3.899  -1.193  0.00  0.00    +0.000 NA
ATOM     23  O   UNL     1       1.445   2.857  -0.405  0.00  0.00    +0.000 OA
ENDBRANCH  16  17
ENDBRANCH   1  16
TORSDOF 4
