REMARK  Name = Acetic acid
REMARK  2 active torsions:
REMARK  status: ('A' for Active; 'I' for Inactive)
REMARK    1  A    between atoms: C_1  and  C_2
REMARK    2  A    between atoms: C_2  and  O_3
REMARK                            x       y       z     vdW  Elec       q    Type
REMARK                         _______ _______ _______ _____ _____    ______ ____
ROOT
ATOM      1  C   UNL     1       1.101   0.077  -0.070  0.00  0.00    +0.000 C 
ATOM      2  C   UNL     1       2.599   0.089   0.000  0.00  0.00    +0.000 C 
ATOM      3  O   UNL     1       3.216   0.260   1.042  0.00  0.00    +0.000 OA
ENDROOT
BRANCH   2   4
ATOM      4  O   UNL     1       3.224  -0.106  -1.179  0.00  0.00    +0.000 OA
ATOM      5  H   UNL     1       2.641  -0.233  -1.950  0.00  0.00    +0.000 HD
ENDBRANCH   2   4
TORSDOF 1
