REMARK  Name = Acetohydroxamic acid
REMARK  2 active torsions:
REMARK  status: ('A' for Active; 'I' for Inactive)
REMARK    1  A    between atoms: C_1  and  C_2
REMARK    2  A    between atoms: N_4  and  O_5
REMARK                            x       y       z     vdW  Elec       q    Type
REMARK                         _______ _______ _______ _____ _____    ______ ____
ROOT
ATOM      1  C   UNL     1       0.985   0.000  -0.032  0.00  0.00    +0.000 C 
ATOM      2  C   UNL     1       2.488   0.030  -0.059  0.00  0.00    +0.000 C 
ATOM      3  O   UNL     1       3.135   0.803  -0.762  0.00  0.00    +0.000 OA
ATOM      4  N   UNL     1       3.086  -0.882   0.771  0.00  0.00    +0.000 N 
ATOM      5  H   UNL     1       2.602  -1.540   1.370  0.00  0.00    +0.000 HD
ENDROOT
BRANCH   4   6
ATOM      6  O   UNL     1       4.497  -0.906   0.792  0.00  0.00    +0.000 OA
ATOM      7  H   UNL     1       4.733  -0.200   0.151  0.00  0.00    +0.000 HD
ENDBRANCH   4   6
TORSDOF 1
