REMARK  Name = Acetylcysteine
REMARK  6 active torsions:
REMARK  status: ('A' for Active; 'I' for Inactive)
REMARK    1  A    between atoms: C_1  and  C_2
REMARK    2  A    between atoms: N_4  and  CA_5
REMARK    3  A    between atoms: CA_5  and  CB_6
REMARK    4  A    between atoms: CA_5  and  C_8
REMARK    5  A    between atoms: CB_6  and  SG_7
REMARK    6  A    between atoms: C_8  and  O_9
REMARK                            x       y       z     vdW  Elec       q    Type
REMARK                         _______ _______ _______ _____ _____    ______ ____
ROOT
ATOM      1  CA  CYS A   1       4.571   0.973  -0.733  0.00  0.00    +0.000 C 
ENDROOT
BRANCH   1   5
ATOM      2  C   UNK A   0       0.933   0.017  -0.059  0.00  0.00    +0.000 C 
ATOM      3  C   UNK A   0       2.427   0.020   0.121  0.00  0.00    +0.000 C 
ATOM      4  O   UNK A   0       2.979  -0.679   0.965  0.00  0.00    +0.000 OA
ATOM      5  N   CYS A   1       3.094   0.896  -0.710  0.00  0.00    +0.000 N 
ATOM      6  H   CYS A   1       2.509   1.573  -1.170  0.00  0.00    +0.000 HD
ENDBRANCH   1   5
BRANCH   1   7
ATOM      7  C   CYS A   1       5.180   2.224  -1.420  0.00  0.00    +0.000 C 
ATOM      8  OXT CYS A   1       6.389   2.407  -1.512  0.00  0.00    +0.000 OA
BRANCH   7   9
ATOM      9  O   CYS A   1       4.328   3.125  -1.953  0.00  0.00    +0.000 OA
ATOM     10  H   CYS A   1       3.378   2.975  -1.862  0.00  0.00    +0.000 HD
ENDBRANCH   7   9
ENDBRANCH   1   7
BRANCH   1  11
ATOM     11  CB  CYS A   1       5.240  -0.235  -1.445  0.00  0.00    +0.000 C 
BRANCH  11  12
ATOM     12  SG  CYS A   1       5.043  -1.922  -0.773  0.00  0.00    +0.000 S 
ATOM     13  HG  CYS A   1       4.955  -1.582   0.527  0.00  0.00    +0.000 HD
ENDBRANCH  11  12
ENDBRANCH   1  11
TORSDOF 5
