REMARK  Name = Acipimox
REMARK  3 active torsions:
REMARK  status: ('A' for Active; 'I' for Inactive)
REMARK    1  A    between atoms: C_1  and  C_2
REMARK    2  A    between atoms: CA_6  and  C_9
REMARK    3  A    between atoms: C_9  and  O_10
REMARK                            x       y       z     vdW  Elec       q    Type
REMARK                         _______ _______ _______ _____ _____    ______ ____
ROOT
ATOM      1  C   UNL     1       1.002  -0.080  -0.005  0.00  0.00    +0.000 C 
ATOM      2  C   UNL     1       2.498  -0.112  -0.029  0.00  0.00    +0.000 A 
ATOM      3  N   UNL     1       3.209   1.075  -0.088  0.00  0.00    +0.000 N 
ATOM      4  O   UNL     1       2.625   2.203  -0.086  0.00  0.00    +0.000 OA
ATOM      5  C   UNL     1       4.581   1.033  -0.161  0.00  0.00    +0.000 A 
ATOM      6  CA  UNL     1       5.218  -0.184  -0.276  0.00  0.00    +0.000 A 
ATOM      7  N   UNL     1       4.574  -1.374  -0.181  0.00  0.00    +0.000 NA
ATOM      8  C   UNL     1       3.228  -1.298  -0.012  0.00  0.00    +0.000 A 
ENDROOT
BRANCH   6   9
ATOM      9  C   UNL     1       6.679  -0.181  -0.579  0.00  0.00    +0.000 C 
ATOM     10  OXT UNL     1       7.325   0.858  -0.661  0.00  0.00    +0.000 OA
BRANCH   9  11
ATOM     11  O   UNL     1       7.220  -1.399  -0.797  0.00  0.00    +0.000 OA
ATOM     12  H   UNL     1       6.570  -2.128  -0.716  0.00  0.00    +0.000 HD
ENDBRANCH   9  11
ENDBRANCH   6   9
TORSDOF 2
