REMARK  Name = Acitretin
REMARK  13 active torsions:
REMARK  status: ('A' for Active; 'I' for Inactive)
REMARK    1  A    between atoms: C_1  and  O_2
REMARK    2  A    between atoms: O_2  and  C_3
REMARK    3  A    between atoms: C_4  and  C_5
REMARK    4  A    between atoms: C_6  and  C_7
REMARK    5  A    between atoms: C_8  and  C_9
REMARK    6  A    between atoms: C_10  and  C_11
REMARK    7  A    between atoms: C_11  and  C_12
REMARK    8  A    between atoms: C_13  and  C_14
REMARK    9  A    between atoms: C_15  and  C_16
REMARK   10  A    between atoms: C_16  and  C_17
REMARK   11  A    between atoms: C_18  and  C_19
REMARK   12  A    between atoms: C_19  and  O_20
REMARK   13  A    between atoms: C_22  and  C_23
REMARK                            x       y       z     vdW  Elec       q    Type
REMARK                         _______ _______ _______ _____ _____    ______ ____
ROOT
ATOM      1  C   UNL     1       5.268  -3.654  -3.294  0.00  0.00    +0.000 C 
ATOM      2  C   UNL     1       6.415  -4.320  -3.098  0.00  0.00    +0.000 C 
ENDROOT
BRANCH   1   8
ATOM      3  C   UNL     1       2.912  -0.953  -0.778  0.00  0.00    +0.000 A 
ATOM      4  C   UNL     1       2.542  -1.205  -2.099  0.00  0.00    +0.000 A 
ATOM      5  C   UNL     1       1.372  -0.501  -2.725  0.00  0.00    +0.000 C 
ATOM      6  C   UNL     1       3.309  -2.123  -2.887  0.00  0.00    +0.000 A 
ATOM      7  C   UNL     1       2.835  -2.397  -4.309  0.00  0.00    +0.000 C 
ATOM      8  C   UNL     1       4.505  -2.750  -2.371  0.00  0.00    +0.000 A 
ATOM      9  C   UNL     1       4.869  -2.457  -1.033  0.00  0.00    +0.000 A 
ATOM     10  C   UNL     1       6.050  -2.983  -0.257  0.00  0.00    +0.000 C 
ATOM     11  C   UNL     1       4.073  -1.553  -0.281  0.00  0.00    +0.000 A 
BRANCH   3  13
ATOM     12  C   UNL     1       0.916  -0.102   0.261  0.00  0.00    +0.000 C 
ATOM     13  O   UNL     1       2.326  -0.021   0.039  0.00  0.00    +0.000 OA
ENDBRANCH   3  13
ENDBRANCH   1   8
BRANCH   2  14
ATOM     14  C   UNL     1       7.172  -5.216  -3.936  0.00  0.00    +0.000 C 
ATOM     15  C   UNL     1       6.695  -5.448  -5.338  0.00  0.00    +0.000 C 
ATOM     16  C   UNL     1       8.286  -5.791  -3.414  0.00  0.00    +0.000 C 
BRANCH  16  17
ATOM     17  C   UNL     1       9.121  -6.678  -4.175  0.00  0.00    +0.000 C 
ATOM     18  C   UNL     1      10.245  -7.313  -3.809  0.00  0.00    +0.000 C 
BRANCH  18  19
ATOM     19  C   UNL     1      10.987  -8.193  -4.727  0.00  0.00    +0.000 C 
ATOM     20  C   UNL     1      10.453  -8.373  -6.118  0.00  0.00    +0.000 C 
ATOM     21  C   UNL     1      12.117  -8.824  -4.337  0.00  0.00    +0.000 C 
BRANCH  21  22
ATOM     22  C   UNL     1      13.025  -9.746  -5.068  0.00  0.00    +0.000 C 
ATOM     23  O   UNL     1      14.015 -10.208  -4.495  0.00  0.00    +0.000 OA
BRANCH  22  24
ATOM     24  O   UNL     1      12.779 -10.081  -6.340  0.00  0.00    +0.000 OA
ATOM     25  H   UNL     1      12.009  -9.729  -6.806  0.00  0.00    +0.000 HD
ENDBRANCH  22  24
ENDBRANCH  21  22
ENDBRANCH  18  19
ENDBRANCH  16  17
ENDBRANCH   2  14
TORSDOF 7
