REMARK  Name = Aclidinium
REMARK  11 active torsions:
REMARK  status: ('A' for Active; 'I' for Inactive)
REMARK    1  A    between atoms: O_1  and  C_2
REMARK    2  A    between atoms: C_2  and  C_3
REMARK    3  A    between atoms: C_2  and  C_24
REMARK    4  A    between atoms: C_2  and  C_29
REMARK    5  A    between atoms: C_3  and  O_5
REMARK    6  A    between atoms: O_5  and  C_6
REMARK    7  A    between atoms: N_8  and  C_9
REMARK    8  A    between atoms: C_9  and  C_10
REMARK    9  A    between atoms: C_10  and  C_11
REMARK   10  A    between atoms: C_11  and  O_12
REMARK   11  A    between atoms: O_12  and  C_13
REMARK                            x       y       z     vdW  Elec       q    Type
REMARK                         _______ _______ _______ _____ _____    ______ ____
ROOT
ATOM      1  C   UNL     1       3.023  -3.762  -0.618  0.00  0.00    +0.000 C 
ATOM      2  C   UNL     1       2.094  -4.959  -0.650  0.00  0.00    +0.000 C 
ATOM      3  N   UNL     1       2.662  -6.063   0.243  0.00  0.00    +0.000 N 
ATOM      4  C   UNL     1       4.034  -6.493  -0.335  0.00  0.00    +0.000 C 
ATOM      5  C   UNL     1       4.984  -5.302  -0.331  0.00  0.00    +0.000 C 
ATOM      6  C   UNL     1       4.282  -4.070   0.219  0.00  0.00    +0.000 C 
ATOM      7  C   UNL     1       3.823  -4.344   1.650  0.00  0.00    +0.000 C 
ATOM      8  C   UNL     1       2.867  -5.529   1.676  0.00  0.00    +0.000 C 
ENDROOT
BRANCH   1   9
ATOM      9  O   UNL     1       3.375  -3.432  -1.968  0.00  0.00    +0.000 OA
BRANCH   9  10
ATOM     10  C   UNL     1       2.739  -2.483  -2.727  0.00  0.00    +0.000 C 
ATOM     11  O   UNL     1       2.959  -2.538  -3.940  0.00  0.00    +0.000 OA
BRANCH  10  12
ATOM     12  C   UNL     1       1.754  -1.474  -2.022  0.00  0.00    +0.000 C 
BRANCH  12  13
ATOM     13  C   UNL     1       0.947  -0.544  -2.939  0.00  0.00    +0.000 A 
ATOM     14  C   UNL     1      -0.081   0.307  -2.543  0.00  0.00    +0.000 A 
ATOM     15  C   UNL     1      -0.551   1.158  -3.573  0.00  0.00    +0.000 A 
ATOM     16  C   UNL     1       0.008   0.830  -4.781  0.00  0.00    +0.000 A 
ATOM     17  S   UNL     1       1.181  -0.394  -4.631  0.00  0.00    +0.000 S 
ENDBRANCH  12  13
BRANCH  12  18
ATOM     18  C   UNL     1       2.462  -0.640  -0.907  0.00  0.00    +0.000 A 
ATOM     19  C   UNL     1       2.008   0.475  -0.208  0.00  0.00    +0.000 A 
ATOM     20  C   UNL     1       2.875   0.914   0.830  0.00  0.00    +0.000 A 
ATOM     21  C   UNL     1       3.970   0.101   0.946  0.00  0.00    +0.000 A 
ATOM     22  S   UNL     1       4.125  -0.841  -0.461  0.00  0.00    +0.000 S 
ENDBRANCH  12  18
BRANCH  12  23
ATOM     23  O   UNL     1       0.734  -2.295  -1.382  0.00  0.00    +0.000 OA
ATOM     24  H   UNL     1       0.140  -2.593  -2.102  0.00  0.00    +0.000 HD
ENDBRANCH  12  23
ENDBRANCH  10  12
ENDBRANCH   9  10
ENDBRANCH   1   9
BRANCH   3  25
ATOM     25  C   UNL     1       1.710  -7.251   0.227  0.00  0.00    +0.000 C 
BRANCH  25  26
ATOM     26  C   UNL     1       0.333  -6.865   0.748  0.00  0.00    +0.000 C 
BRANCH  26  27
ATOM     27  C   UNL     1      -0.597  -8.052   0.714  0.00  0.00    +0.000 C 
BRANCH  27  28
ATOM     28  O   UNL     1      -1.862  -7.568   1.144  0.00  0.00    +0.000 OA
BRANCH  28  29
ATOM     29  C   UNL     1      -2.812  -8.536   1.303  0.00  0.00    +0.000 A 
ATOM     30  C   UNL     1      -4.118  -8.167   0.983  0.00  0.00    +0.000 A 
ATOM     31  C   UNL     1      -5.170  -9.047   1.233  0.00  0.00    +0.000 A 
ATOM     32  C   UNL     1      -4.908 -10.318   1.744  0.00  0.00    +0.000 A 
ATOM     33  C   UNL     1      -3.602 -10.690   2.050  0.00  0.00    +0.000 A 
ATOM     34  C   UNL     1      -2.556  -9.795   1.845  0.00  0.00    +0.000 A 
ENDBRANCH  28  29
ENDBRANCH  27  28
ENDBRANCH  26  27
ENDBRANCH  25  26
ENDBRANCH   3  25
TORSDOF 11
