REMARK  Name = Acrivastine
REMARK  8 active torsions:
REMARK  status: ('A' for Active; 'I' for Inactive)
REMARK    1  A    between atoms: C_2  and  C_3
REMARK    2  A    between atoms: C_3  and  N_4
REMARK    3  A    between atoms: C_9  and  C_10
REMARK    4  A    between atoms: C_9  and  C_17
REMARK    5  A    between atoms: C_13  and  C_14
REMARK    6  A    between atoms: C_21  and  C_23
REMARK    7  A    between atoms: C_25  and  C_27
REMARK    8  A    between atoms: C_27  and  O_28
REMARK                            x       y       z     vdW  Elec       q    Type
REMARK                         _______ _______ _______ _____ _____    ______ ____
ROOT
ATOM      1  C   UNL     1       1.971  -0.000  -0.094  0.00  0.00    +0.000 C 
ATOM      2  C   UNL     1       2.743  -0.727  -0.949  0.00  0.00    +0.000 C 
ENDROOT
BRANCH   2   3
ATOM      3  C   UNL     1       4.272  -0.695  -0.886  0.00  0.00    +0.000 A 
ATOM      4  C   UNL     1       5.048  -1.575  -1.652  0.00  0.00    +0.000 A 
ATOM      5  C   UNL     1       6.452  -1.583  -1.569  0.00  0.00    +0.000 A 
ATOM      6  C   UNL     1       7.127  -0.693  -0.734  0.00  0.00    +0.000 A 
ATOM      7  C   UNL     1       8.605  -0.636  -0.592  0.00  0.00    +0.000 C 
ATOM      8  C   UNL     1       6.399   0.200   0.007  0.00  0.00    +0.000 A 
ATOM      9  C   UNL     1       5.024   0.182  -0.082  0.00  0.00    +0.000 A 
ENDBRANCH   2   3
BRANCH   2  10
ATOM     10  C   UNL     1       1.996  -1.675  -1.866  0.00  0.00    +0.000 A 
ATOM     11  C   UNL     1       2.214  -3.042  -1.689  0.00  0.00    +0.000 A 
ATOM     12  C   UNL     1       1.741  -3.937  -2.634  0.00  0.00    +0.000 A 
ATOM     13  C   UNL     1       1.005  -3.457  -3.704  0.00  0.00    +0.000 A 
ATOM     14  C   UNL     1       0.748  -2.090  -3.800  0.00  0.00    +0.000 A 
ATOM     15  N   UNL     1       1.244  -1.188  -2.900  0.00  0.00    +0.000 NA
BRANCH  14  16
ATOM     16  C   UNL     1      -0.077  -1.543  -4.907  0.00  0.00    +0.000 C 
ATOM     17  C   UNL     1      -0.641  -2.282  -5.883  0.00  0.00    +0.000 C 
BRANCH  17  18
ATOM     18  C   UNL     1      -1.483  -1.857  -7.016  0.00  0.00    +0.000 C 
ATOM     19  O   UNL     1      -1.913  -2.682  -7.817  0.00  0.00    +0.000 OA
BRANCH  18  20
ATOM     20  O   UNL     1      -1.745  -0.548  -7.116  0.00  0.00    +0.000 OA
ATOM     21  H   UNL     1      -1.357   0.017  -6.428  0.00  0.00    +0.000 HD
ENDBRANCH  18  20
ENDBRANCH  17  18
ENDBRANCH  14  16
ENDBRANCH   2  10
BRANCH   1  22
ATOM     22  C   UNL     1       2.493   0.941   0.959  0.00  0.00    +0.000 C 
BRANCH  22  23
ATOM     23  N   UNL     1       1.557   1.750   1.729  0.00  0.00    +0.000 NA
ATOM     24  C   UNL     1       1.085   2.836   0.848  0.00  0.00    +0.000 C 
ATOM     25  C   UNL     1       2.065   3.982   1.040  0.00  0.00    +0.000 C 
ATOM     26  C   UNL     1       2.349   3.916   2.522  0.00  0.00    +0.000 C 
ATOM     27  C   UNL     1       2.270   2.429   2.851  0.00  0.00    +0.000 C 
ENDBRANCH  22  23
ENDBRANCH   1  22
TORSDOF 7
