REMARK  Name = Acyclovir
REMARK  5 active torsions:
REMARK  status: ('A' for Active; 'I' for Inactive)
REMARK    1  A    between atoms: N_9  and  C_10
REMARK    2  A    between atoms: C_10  and  O_11
REMARK    3  A    between atoms: O_11  and  C_12
REMARK    4  A    between atoms: C_12  and  C_13
REMARK    5  A    between atoms: C_13  and  O_14
REMARK                            x       y       z     vdW  Elec       q    Type
REMARK                         _______ _______ _______ _____ _____    ______ ____
ROOT
ATOM      1  N   UNL     1       1.126   0.048  -0.087  0.00  0.00    +0.000 N 
ATOM      2  C   UNL     1       2.475  -0.018  -0.093  0.00  0.00    +0.000 A 
ATOM      3  N   UNL     1       3.075  -1.174  -0.092  0.00  0.00    +0.000 NA
ATOM      4  C   UNL     1       4.476  -1.243  -0.092  0.00  0.00    +0.000 A 
ATOM      5  O   UNL     1       5.081  -2.310  -0.091  0.00  0.00    +0.000 OA
ATOM      6  C   UNL     1       5.172   0.049  -0.093  0.00  0.00    +0.000 A 
ATOM      7  C   UNL     1       4.437   1.201  -0.092  0.00  0.00    +0.000 A 
ATOM      8  N   UNL     1       3.097   1.203  -0.093  0.00  0.00    +0.000 N 
ATOM      9  N   UNL     1       5.313   2.236  -0.090  0.00  0.00    +0.000 N 
ATOM     10  C   UNL     1       6.568   1.674  -0.094  0.00  0.00    +0.000 A 
ATOM     11  N   UNL     1       6.519   0.354  -0.093  0.00  0.00    +0.000 NA
ATOM     12  H   UNL     1       0.615  -0.827  -0.095  0.00  0.00    +0.000 HD
ATOM     13  H   UNL     1       0.598   0.905  -0.101  0.00  0.00    +0.000 HD
ATOM     14  H   UNL     1       2.565   2.066  -0.099  0.00  0.00    +0.000 HD
ENDROOT
BRANCH   9  15
ATOM     15  C   UNL     1       5.052   3.660  -0.080  0.00  0.00    +0.000 C 
BRANCH  15  16
ATOM     16  O   UNL     1       3.642   3.884  -0.069  0.00  0.00    +0.000 OA
BRANCH  16  17
ATOM     17  C   UNL     1       3.352   5.273  -0.067  0.00  0.00    +0.000 C 
BRANCH  17  18
ATOM     18  C   UNL     1       1.843   5.466  -0.057  0.00  0.00    +0.000 C 
BRANCH  18  19
ATOM     19  O   UNL     1       1.521   6.847  -0.056  0.00  0.00    +0.000 OA
ATOM     20  H   UNL     1       1.893   7.239   0.754  0.00  0.00    +0.000 HD
ENDBRANCH  18  19
ENDBRANCH  17  18
ENDBRANCH  16  17
ENDBRANCH  15  16
ENDBRANCH   9  15
TORSDOF 5
