REMARK  Name = Adagrasib
REMARK  8 active torsions:
REMARK  status: ('A' for Active; 'I' for Inactive)
REMARK    1  A    between atoms: C_2  and  C_3
REMARK    2  A    between atoms: C_3  and  O_4
REMARK    3  A    between atoms: O_4  and  C_5
REMARK    4  A    between atoms: N_11  and  C_13
REMARK    5  A    between atoms: C_30  and  C_32
REMARK    6  A    between atoms: C_35  and  C_37
REMARK    7  A    between atoms: C_37  and  C_38
REMARK    8  A    between atoms: N_44  and  C_45
REMARK                            x       y       z     vdW  Elec       q    Type
REMARK                         _______ _______ _______ _____ _____    ______ ____
ROOT
ATOM      1  C   UNL     1       4.555   1.482  -2.511  0.00  0.00    +0.000 A 
ATOM      2  N   UNL     1       4.059   2.706  -2.786  0.00  0.00    +0.000 NA
ATOM      3  C   UNL     1       4.557   3.364  -3.888  0.00  0.00    +0.000 A 
ATOM      4  C   UNL     1       5.537   2.790  -4.706  0.00  0.00    +0.000 A 
ATOM      5  C   UNL     1       6.049   3.513  -5.918  0.00  0.00    +0.000 C 
ATOM      6  C   UNL     1       5.141   4.662  -6.405  0.00  0.00    +0.000 C 
ATOM      7  N   UNL     1       4.773   5.622  -5.365  0.00  0.00    +0.000 N 
ATOM      8  C   UNL     1       3.975   4.800  -4.239  0.00  0.00    +0.000 C 
ATOM      9  C   UNL     1       6.050   1.527  -4.365  0.00  0.00    +0.000 A 
ATOM     10  N   UNL     1       5.545   0.878  -3.254  0.00  0.00    +0.000 NA
ATOM     11  N   UNL     1       7.054   0.956  -5.186  0.00  0.00    +0.000 N 
ATOM     12  C   UNL     1       8.381   1.548  -5.464  0.00  0.00    +0.000 C 
ATOM     13  C   UNL     1       9.531   0.592  -5.076  0.00  0.00    +0.000 C 
ATOM     14  N   UNL     1       9.401  -0.709  -5.770  0.00  0.00    +0.000 N 
ATOM     15  C   UNL     1      10.417  -1.274  -6.568  0.00  0.00    +0.000 C 
ATOM     16  O   UNL     1      11.505  -0.711  -6.743  0.00  0.00    +0.000 OA
ATOM     17  C   UNL     1       8.079  -1.279  -5.474  0.00  0.00    +0.000 C 
ATOM     18  C   UNL     1       6.932  -0.329  -5.889  0.00  0.00    +0.000 C 
ENDROOT
BRANCH   7  19
ATOM     19  C   UNL     1       5.057   7.311  -5.543  0.00  0.00    +0.000 A 
ATOM     20  C   UNL     1       5.990   7.252  -4.086  0.00  0.00    +0.000 A 
ATOM     21  C   UNL     1       6.559   8.403  -3.702  0.00  0.00    +0.000 A 
ATOM     22  C   UNL     1       6.251   9.384  -4.605  0.00  0.00    +0.000 A 
ATOM     23  C   UNL     1       5.369   9.294  -5.937  0.00  0.00    +0.000 A 
ATOM     24  C   UNL     1       4.609   8.635  -6.825  0.00  0.00    +0.000 A 
ATOM     25  C   UNL     1       3.939   9.876  -8.422  0.00  0.00    +0.000 A 
ATOM     26 CL   UNL     1       3.246  11.213 -10.069  0.00  0.00    +0.000 Cl
ATOM     27  C   UNL     1       4.213  11.115  -8.517  0.00  0.00    +0.000 A 
ATOM     28  C   UNL     1       4.392  10.130  -7.813  0.00  0.00    +0.000 A 
ATOM     29  C   UNL     1       5.221  10.341  -6.618  0.00  0.00    +0.000 A 
ENDBRANCH   7  19
BRANCH  15  30
ATOM     30  C   UNL     1      10.193  -2.618  -7.257  0.00  0.00    +0.000 C 
ATOM     31  F   UNL     1       9.027  -3.271  -7.103  0.00  0.00    +0.000 F 
ATOM     32  C   UNL     1      11.125  -3.188  -8.028  0.00  0.00    +0.000 C 
ENDBRANCH  15  30
BRANCH   1  33
ATOM     33  O   UNL     1       4.023   0.784  -1.412  0.00  0.00    +0.000 OA
BRANCH  33  34
ATOM     34  C   UNL     1       2.580   0.743  -1.305  0.00  0.00    +0.000 C 
BRANCH  34  35
ATOM     35  C   UNL     1       2.148  -0.054  -0.057  0.00  0.00    +0.000 C 
ATOM     36  C   UNL     1       2.685   0.528   1.256  0.00  0.00    +0.000 C 
ATOM     37  C   UNL     1       2.953  -0.673   2.161  0.00  0.00    +0.000 C 
ATOM     38  C   UNL     1       2.477  -1.864   1.352  0.00  0.00    +0.000 C 
ATOM     39  N   UNL     1       2.667  -1.430  -0.027  0.00  0.00    +0.000 NA
ATOM     40  C   UNL     1       1.998  -2.310  -0.969  0.00  0.00    +0.000 C 
ENDBRANCH  34  35
ENDBRANCH  33  34
ENDBRANCH   1  33
BRANCH  17  41
ATOM     41  C   UNL     1       7.952  -1.493  -3.979  0.00  0.00    +0.000 C 
BRANCH  41  42
ATOM     42  C   UNL     1       7.453  -2.910  -3.744  0.00  0.00    +0.000 C 
ATOM     43  N   UNL     1       7.039  -4.085  -3.550  0.00  0.00    +0.000 NA
ENDBRANCH  41  42
ENDBRANCH  17  41
TORSDOF 7
