REMARK  Name = Adapalene
REMARK  6 active torsions:
REMARK  status: ('A' for Active; 'I' for Inactive)
REMARK    1  A    between atoms: C_1  and  O_2
REMARK    2  A    between atoms: O_2  and  C_3
REMARK    3  A    between atoms: C_4  and  C_22
REMARK    4  A    between atoms: C_6  and  C_9
REMARK    5  A    between atoms: C_16  and  C_19
REMARK    6  A    between atoms: C_19  and  O_20
REMARK                            x       y       z     vdW  Elec       q    Type
REMARK                         _______ _______ _______ _____ _____    ______ ____
ROOT
ATOM      1  C   UNL     1       3.043  -1.057   0.197  0.00  0.00    +0.000 A 
ATOM      2  C   UNL     1       4.190  -1.026   1.018  0.00  0.00    +0.000 A 
ATOM      3  C   UNL     1       4.984  -2.187   1.099  0.00  0.00    +0.000 A 
ATOM      4  C   UNL     1       4.573  -3.401   0.563  0.00  0.00    +0.000 A 
ATOM      5  C   UNL     1       3.413  -3.405  -0.224  0.00  0.00    +0.000 A 
ATOM      6  C   UNL     1       2.664  -2.245  -0.423  0.00  0.00    +0.000 A 
ENDROOT
BRANCH   4   7
ATOM      7  C   UNL     1       5.349  -4.628   0.785  0.00  0.00    +0.000 A 
ATOM      8  C   UNL     1       5.780  -5.139   2.020  0.00  0.00    +0.000 A 
ATOM      9  C   UNL     1       6.598  -6.352   2.071  0.00  0.00    +0.000 A 
ATOM     10  C   UNL     1       6.293  -7.335   1.215  0.00  0.00    +0.000 A 
ATOM     11  C   UNL     1       6.155  -6.711  -0.085  0.00  0.00    +0.000 A 
ATOM     12  C   UNL     1       5.731  -5.383  -0.298  0.00  0.00    +0.000 A 
ATOM     13  C   UNL     1       6.926  -8.624   1.587  0.00  0.00    +0.000 A 
ATOM     14  C   UNL     1       8.211  -8.755   1.138  0.00  0.00    +0.000 A 
ATOM     15  C   UNL     1       8.780  -7.495   1.187  0.00  0.00    +0.000 A 
ATOM     16  C   UNL     1       8.047  -6.459   2.052  0.00  0.00    +0.000 A 
BRANCH  14  17
ATOM     17  C   UNL     1       8.996 -10.039   1.009  0.00  0.00    +0.000 C 
ATOM     18  O   UNL     1       9.350 -10.523  -0.034  0.00  0.00    +0.000 OA
BRANCH  17  19
ATOM     19  O   UNL     1       9.268 -10.612   2.210  0.00  0.00    +0.000 OA
ATOM     20  H   UNL     1       8.997 -10.086   2.978  0.00  0.00    +0.000 HD
ENDBRANCH  17  19
ENDBRANCH  14  17
ENDBRANCH   4   7
BRANCH   2  21
ATOM     21  C   UNL     1       4.470   0.130   1.986  0.00  0.00    +0.000 C 
ATOM     22  C   UNL     1       3.237   0.257   2.930  0.00  0.00    +0.000 C 
ATOM     23  C   UNL     1       3.436   1.373   3.956  0.00  0.00    +0.000 C 
ATOM     24  C   UNL     1       4.659   1.047   4.818  0.00  0.00    +0.000 C 
ATOM     25  C   UNL     1       5.911   0.957   3.936  0.00  0.00    +0.000 C 
ATOM     26  C   UNL     1       6.132   2.280   3.195  0.00  0.00    +0.000 C 
ATOM     27  C   UNL     1       4.914   2.601   2.318  0.00  0.00    +0.000 C 
ATOM     28  C   UNL     1       3.662   2.696   3.209  0.00  0.00    +0.000 C 
ATOM     29  C   UNL     1       4.719   1.483   1.278  0.00  0.00    +0.000 C 
ATOM     30  C   UNL     1       5.707  -0.149   2.903  0.00  0.00    +0.000 C 
ENDBRANCH   2  21
BRANCH   1  32
ATOM     31  C   UNL     1       0.964   0.060  -0.036  0.00  0.00    +0.000 C 
ATOM     32  O   UNL     1       2.385   0.120  -0.036  0.00  0.00    +0.000 OA
ENDBRANCH   1  32
TORSDOF 5
