REMARK  Name = Adefovir dipivoxil
REMARK  22 active torsions:
REMARK  status: ('A' for Active; 'I' for Inactive)
REMARK    1  A    between atoms: C_1  and  C_2
REMARK    2  A    between atoms: C_2  and  C_3
REMARK    3  A    between atoms: C_2  and  C_4
REMARK    4  A    between atoms: C_2  and  C_5
REMARK    5  A    between atoms: C_5  and  O_7
REMARK    6  A    between atoms: O_7  and  C_8
REMARK    7  A    between atoms: C_8  and  O_9
REMARK    8  A    between atoms: O_9  and  P_10
REMARK    9  A    between atoms: P_10  and  C_12
REMARK   10  A    between atoms: P_10  and  O_26
REMARK   11  A    between atoms: C_12  and  O_13
REMARK   12  A    between atoms: O_13  and  C_14
REMARK   13  A    between atoms: C_14  and  C_15
REMARK   14  A    between atoms: C_15  and  N_16
REMARK   15  A    between atoms: C_20  and  N_21
REMARK   16  A    between atoms: O_26  and  C_27
REMARK   17  A    between atoms: C_27  and  O_28
REMARK   18  A    between atoms: O_28  and  C_29
REMARK   19  A    between atoms: C_29  and  C_31
REMARK   20  A    between atoms: C_31  and  C_32
REMARK   21  A    between atoms: C_31  and  C_33
REMARK   22  A    between atoms: C_31  and  C_34
REMARK                            x       y       z     vdW  Elec       q    Type
REMARK                         _______ _______ _______ _____ _____    ______ ____
ROOT
ATOM      1  P   UNL     1       7.278   4.487   0.302  0.00  0.00    +0.000 P 
ATOM      2  O   UNL     1       7.564   4.134   1.729  0.00  0.00    +0.000 OA
ENDROOT
BRANCH   1   3
ATOM      3  C   UNL     1       8.495   3.989  -0.923  0.00  0.00    +0.000 C 
BRANCH   3   4
ATOM      4  O   UNL     1       8.310   2.652  -1.334  0.00  0.00    +0.000 OA
BRANCH   4   5
ATOM      5  C   UNL     1       9.300   2.406  -2.310  0.00  0.00    +0.000 C 
BRANCH   5   6
ATOM      6  C   UNL     1       9.231   0.959  -2.707  0.00  0.00    +0.000 C 
BRANCH   6   7
ATOM      7  N   UNL     1      10.284   0.612  -3.626  0.00  0.00    +0.000 N 
ATOM      8  C   UNL     1      11.141   1.474  -4.261  0.00  0.00    +0.000 A 
ATOM      9  N   UNL     1      11.987   0.847  -5.041  0.00  0.00    +0.000 NA
ATOM     10  C   UNL     1      11.661  -0.482  -4.897  0.00  0.00    +0.000 A 
ATOM     11  C   UNL     1      12.199  -1.635  -5.478  0.00  0.00    +0.000 A 
ATOM     12  N   UNL     1      11.667  -2.832  -5.145  0.00  0.00    +0.000 NA
ATOM     13  C   UNL     1      10.639  -2.851  -4.265  0.00  0.00    +0.000 A 
ATOM     14  N   UNL     1      10.038  -1.812  -3.646  0.00  0.00    +0.000 NA
ATOM     15  C   UNL     1      10.607  -0.655  -4.016  0.00  0.00    +0.000 A 
BRANCH  11  16
ATOM     16  N   UNL     1      13.242  -1.576  -6.372  0.00  0.00    +0.000 N 
ATOM     17  H   UNL     1      13.622  -0.669  -6.606  0.00  0.00    +0.000 HD
ATOM     18  H   UNL     1      13.595  -2.431  -6.765  0.00  0.00    +0.000 HD
ENDBRANCH  11  16
ENDBRANCH   6   7
ENDBRANCH   5   6
ENDBRANCH   4   5
ENDBRANCH   3   4
ENDBRANCH   1   3
BRANCH   1  19
ATOM     19  O   UNL     1       6.067   3.731  -0.444  0.00  0.00    +0.000 OA
BRANCH  19  20
ATOM     20  C   UNL     1       4.818   3.266   0.031  0.00  0.00    +0.000 C 
BRANCH  20  21
ATOM     21  O   UNL     1       4.518   1.824  -0.009  0.00  0.00    +0.000 OA
BRANCH  21  22
ATOM     22  C   UNL     1       3.158   1.586   0.013  0.00  0.00    +0.000 C 
ATOM     23  O   UNL     1       2.336   2.513   0.054  0.00  0.00    +0.000 OA
BRANCH  22  25
ATOM     24  C   UNL     1       1.136   0.056  -0.020  0.00  0.00    +0.000 C 
ATOM     25  C   UNL     1       2.691   0.104  -0.019  0.00  0.00    +0.000 C 
ATOM     26  C   UNL     1       3.167  -0.664   1.218  0.00  0.00    +0.000 C 
ATOM     27  C   UNL     1       3.166  -0.612  -1.287  0.00  0.00    +0.000 C 
ENDBRANCH  22  25
ENDBRANCH  21  22
ENDBRANCH  20  21
ENDBRANCH  19  20
ENDBRANCH   1  19
BRANCH   1  28
ATOM     28  O   UNL     1       7.455   6.118   0.004  0.00  0.00    +0.000 OA
BRANCH  28  29
ATOM     29  C   UNL     1       8.883   6.489   0.149  0.00  0.00    +0.000 C 
BRANCH  29  30
ATOM     30  O   UNL     1       9.329   7.854   0.233  0.00  0.00    +0.000 OA
BRANCH  30  31
ATOM     31  C   UNL     1      10.719   7.909   0.225  0.00  0.00    +0.000 C 
ATOM     32  O   UNL     1      11.441   6.899   0.180  0.00  0.00    +0.000 OA
BRANCH  31  33
ATOM     33  C   UNL     1      11.290   9.331   0.241  0.00  0.00    +0.000 C 
ATOM     34  C   UNL     1      10.844  10.072  -1.021  0.00  0.00    +0.000 C 
ATOM     35  C   UNL     1      10.792  10.050   1.495  0.00  0.00    +0.000 C 
ATOM     36  C   UNL     1      12.838   9.328   0.270  0.00  0.00    +0.000 C 
ENDBRANCH  31  33
ENDBRANCH  30  31
ENDBRANCH  29  30
ENDBRANCH  28  29
ENDBRANCH   1  28
TORSDOF 16
