REMARK  Name = Ademetionine
REMARK  11 active torsions:
REMARK  status: ('A' for Active; 'I' for Inactive)
REMARK    1  A    between atoms: C_1  and  S_2
REMARK    2  A    between atoms: S_2  and  C_3
REMARK    3  A    between atoms: S_2  and  C_10
REMARK    4  A    between atoms: C_3  and  C_4
REMARK    5  A    between atoms: C_4  and  CA_5
REMARK    6  A    between atoms: CA_5  and  N_6
REMARK    7  A    between atoms: CA_5  and  C_7
REMARK    8  A    between atoms: C_10  and  C_11
REMARK    9  A    between atoms: C_13  and  N_18
REMARK   10  A    between atoms: C_14  and  O_15
REMARK   11  A    between atoms: C_16  and  O_17
REMARK                            x       y       z     vdW  Elec       q    Type
REMARK                         _______ _______ _______ _____ _____    ______ ____
ROOT
ATOM      1  C   UNL     1       7.223  -0.464   0.051  0.00  0.00    +0.000 C 
ATOM      2  O   UNL     1       7.749   0.851  -0.306  0.00  0.00    +0.000 OA
ATOM      3  C   UNL     1       6.650   1.744  -0.609  0.00  0.00    +0.000 C 
ATOM      4  C   UNL     1       5.363   0.931  -0.657  0.00  0.00    +0.000 C 
ATOM      5  C   UNL     1       5.702  -0.319   0.183  0.00  0.00    +0.000 C 
ENDROOT
BRANCH   3   6
ATOM      6  N   UNL     1       6.909   2.565  -1.800  0.00  0.00    +0.000 N 
ATOM      7  C   UNL     1       6.778   3.936  -1.817  0.00  0.00    +0.000 A 
ATOM      8  N   UNL     1       6.952   4.458  -3.017  0.00  0.00    +0.000 NA
ATOM      9  C   UNL     1       7.175   3.378  -3.843  0.00  0.00    +0.000 A 
ATOM     10  C   UNL     1       7.183   2.220  -3.101  0.00  0.00    +0.000 A 
ATOM     11  N   UNL     1       7.423   1.033  -3.623  0.00  0.00    +0.000 NA
ATOM     12  C   UNL     1       7.530   0.976  -4.949  0.00  0.00    +0.000 A 
ATOM     13  N   UNL     1       7.564   2.012  -5.776  0.00  0.00    +0.000 NA
ATOM     14  C   UNL     1       7.428   3.232  -5.225  0.00  0.00    +0.000 A 
ATOM     15  N   UNL     1       7.590   4.283  -6.091  0.00  0.00    +0.000 N 
ATOM     16  H   UNL     1       7.653   4.028  -7.065  0.00  0.00    +0.000 HD
ATOM     17  H   UNL     1       7.374   5.203  -5.752  0.00  0.00    +0.000 HD
ENDBRANCH   3   6
BRANCH   4  18
ATOM     18  O   UNL     1       4.234   1.661  -0.169  0.00  0.00    +0.000 OA
ATOM     19  H   UNL     1       4.062   1.385   0.746  0.00  0.00    +0.000 HD
ENDBRANCH   4  18
BRANCH   5  20
ATOM     20  O   UNL     1       5.308  -0.119   1.555  0.00  0.00    +0.000 OA
ATOM     21  H   UNL     1       5.743   0.678   1.891  0.00  0.00    +0.000 HD
ENDBRANCH   5  20
BRANCH   1  22
ATOM     22  C   UNL     1       7.685  -1.577  -0.941  0.00  0.00    +0.000 C 
BRANCH  22  24
ATOM     23  C   UNL     1       7.819  -2.446  -3.712  0.00  0.00    +0.000 C 
ATOM     24  S   UNL     1       7.158  -1.274  -2.592  0.00  0.00    +0.000 S 
BRANCH  24  25
ATOM     25  C   UNL     1       5.411  -1.528  -2.765  0.00  0.00    +0.000 C 
BRANCH  25  26
ATOM     26  C   UNL     1       4.821  -0.806  -3.986  0.00  0.00    +0.000 C 
BRANCH  26  27
ATOM     27  CA  UNL     1       3.290  -0.694  -3.966  0.00  0.00    +0.000 C 
BRANCH  27  28
ATOM     28  N   UNL     1       2.701  -0.818  -2.590  0.00  0.00    +0.000 NA
ATOM     29  H1  UNL     1       2.900  -1.790  -2.327  0.00  0.00    +0.000 HD
ATOM     30  H2  UNL     1       1.691  -0.890  -2.745  0.00  0.00    +0.000 HD
ENDBRANCH  27  28
BRANCH  27  31
ATOM     31  C   UNL     1       2.748  -1.817  -4.908  0.00  0.00    +0.000 C 
ATOM     32  O   UNL     1       2.055  -2.700  -4.339  0.00  0.00    +0.000 OA
ATOM     33  OXT UNL     1       3.081  -1.705  -6.133  0.00  0.00    +0.000 OA
ENDBRANCH  27  31
ENDBRANCH  26  27
ENDBRANCH  25  26
ENDBRANCH  24  25
ENDBRANCH  22  24
ENDBRANCH   1  22
TORSDOF 10
