REMARK  Name = Adenine
REMARK  1 active torsions:
REMARK  status: ('A' for Active; 'I' for Inactive)
REMARK    1  A    between atoms: N_1  and  C_2
REMARK                            x       y       z     vdW  Elec       q    Type
REMARK                         _______ _______ _______ _____ _____    ______ ____
ROOT
ATOM      1  C   UNL     1       2.362   0.039  -0.053  0.00  0.00    +0.000 A 
ATOM      2  C   UNL     1       3.077  -1.137  -0.056  0.00  0.00    +0.000 A 
ATOM      3  N   UNL     1       2.742  -2.460  -0.053  0.00  0.00    +0.000 N 
ATOM      4  C   UNL     1       3.902  -3.182  -0.057  0.00  0.00    +0.000 A 
ATOM      5  N   UNL     1       4.960  -2.400  -0.062  0.00  0.00    +0.000 NA
ATOM      6  C   UNL     1       4.459  -1.124  -0.061  0.00  0.00    +0.000 A 
ATOM      7  N   UNL     1       5.186   0.006  -0.064  0.00  0.00    +0.000 NA
ATOM      8  C   UNL     1       4.417   1.105  -0.063  0.00  0.00    +0.000 A 
ATOM      9  N   UNL     1       3.066   1.183  -0.057  0.00  0.00    +0.000 NA
ATOM     10  H   UNL     1       1.804  -2.835  -0.049  0.00  0.00    +0.000 HD
ENDROOT
BRANCH   1  11
ATOM     11  N   UNL     1       0.992   0.088  -0.046  0.00  0.00    +0.000 N 
ATOM     12  H   UNL     1       0.416  -0.735  -0.057  0.00  0.00    +0.000 HD
ATOM     13  H   UNL     1       0.570   1.005  -0.054  0.00  0.00    +0.000 HD
ENDBRANCH   1  11
TORSDOF 1
