REMARK  Name = Adenosine
REMARK  6 active torsions:
REMARK  status: ('A' for Active; 'I' for Inactive)
REMARK    1  A    between atoms: N6_1  and  C6_2
REMARK    2  A    between atoms: N9_6  and  C1*_7
REMARK    3  A    between atoms: C4*_9  and  C5*_10
REMARK    4  A    between atoms: C5*_10  and  O5*_11
REMARK    5  A    between atoms: C3*_12  and  O3*_13
REMARK    6  A    between atoms: C2*_14  and  O2*_15
REMARK                            x       y       z     vdW  Elec       q    Type
REMARK                         _______ _______ _______ _____ _____    ______ ____
ROOT
ATOM      1  C6    A A   1       2.360   0.043  -0.011  0.00  0.00    +0.000 A 
ATOM      2  C5    A A   1       3.090  -1.157  -0.001  0.00  0.00    +0.000 A 
ATOM      3  N7    A A   1       2.704  -2.480  -0.002  0.00  0.00    +0.000 NA
ATOM      4  C8    A A   1       3.833  -3.159  -0.003  0.00  0.00    +0.000 A 
ATOM      5  N9    A A   1       4.928  -2.333   0.008  0.00  0.00    +0.000 N 
ATOM      6  C4    A A   1       4.474  -1.042   0.005  0.00  0.00    +0.000 A 
ATOM      7  N3    A A   1       5.190   0.090  -0.010  0.00  0.00    +0.000 NA
ATOM      8  C2    A A   1       4.385   1.174  -0.020  0.00  0.00    +0.000 A 
ATOM      9  N1    A A   1       3.035   1.213  -0.019  0.00  0.00    +0.000 NA
ENDROOT
BRANCH   5  10
ATOM     10  C1*   A A   1       6.302  -2.782  -0.060  0.00  0.00    +0.000 C 
ATOM     11  O4*   A A   1       7.013  -2.382   1.126  0.00  0.00    +0.000 OA
ATOM     12  C4*   A A   1       8.307  -1.876   0.736  0.00  0.00    +0.000 C 
ATOM     13  C3*   A A   1       8.492  -2.190  -0.755  0.00  0.00    +0.000 C 
ATOM     14  C2*   A A   1       7.067  -2.275  -1.279  0.00  0.00    +0.000 C 
BRANCH  13  15
ATOM     15  O3*   A A   1       9.147  -3.457  -0.946  0.00  0.00    +0.000 OA
ATOM     16  H3*   A A   1       8.745  -4.126  -0.367  0.00  0.00    +0.000 HD
ENDBRANCH  13  15
BRANCH  14  17
ATOM     17  O2*   A A   1       6.925  -3.161  -2.391  0.00  0.00    +0.000 OA
ATOM     18  H2*   A A   1       7.527  -3.916  -2.250  0.00  0.00    +0.000 HD
ENDBRANCH  14  17
BRANCH  12  19
ATOM     19  C5*   A A   1       8.399  -0.381   1.053  0.00  0.00    +0.000 C 
BRANCH  19  20
ATOM     20  O5*   A A   1       9.692   0.128   0.749  0.00  0.00    +0.000 OA
ATOM     21  H5*   A A   1      10.341  -0.343   1.300  0.00  0.00    +0.000 HD
ENDBRANCH  19  20
ENDBRANCH  12  19
ENDBRANCH   5  10
BRANCH   1  22
ATOM     22  N6    A A   1       0.984   0.071  -0.016  0.00  0.00    +0.000 N 
ATOM     23  H61   A A   1       0.480  -0.803  -0.017  0.00  0.00    +0.000 HD
ATOM     24  H62   A A   1       0.520   0.965  -0.021  0.00  0.00    +0.000 HD
ENDBRANCH   1  22
TORSDOF 6
