REMARK  Name = Adenosine phosphate
REMARK  9 active torsions:
REMARK  status: ('A' for Active; 'I' for Inactive)
REMARK    1  A    between atoms: N_1  and  C_2
REMARK    2  A    between atoms: N_6  and  C_7
REMARK    3  A    between atoms: C_9  and  C_10
REMARK    4  A    between atoms: C_10  and  O_11
REMARK    5  A    between atoms: O_11  and  P_12
REMARK    6  A    between atoms: P_12  and  O_13
REMARK    7  A    between atoms: P_12  and  O_14
REMARK    8  A    between atoms: C_16  and  O_17
REMARK    9  A    between atoms: C_18  and  O_19
REMARK                            x       y       z     vdW  Elec       q    Type
REMARK                         _______ _______ _______ _____ _____    ______ ____
ROOT
ATOM      1  C   UNL     1       6.440  -2.921  -0.127  0.00  0.00    +0.000 C 
ATOM      2  O   UNL     1       7.182  -2.584   1.058  0.00  0.00    +0.000 OA
ATOM      3  C   UNL     1       8.483  -2.086   0.662  0.00  0.00    +0.000 C 
ATOM      4  C   UNL     1       8.642  -2.351  -0.829  0.00  0.00    +0.000 C 
ATOM      5  C   UNL     1       7.209  -2.404  -1.339  0.00  0.00    +0.000 C 
ENDROOT
BRANCH   1  10
ATOM      6  C   UNL     1       2.508  -0.062  -0.060  0.00  0.00    +0.000 A 
ATOM      7  C   UNL     1       3.236  -1.263  -0.046  0.00  0.00    +0.000 A 
ATOM      8  N   UNL     1       2.845  -2.584  -0.046  0.00  0.00    +0.000 NA
ATOM      9  C   UNL     1       3.972  -3.267  -0.045  0.00  0.00    +0.000 A 
ATOM     10  N   UNL     1       5.072  -2.448  -0.036  0.00  0.00    +0.000 N 
ATOM     11  C   UNL     1       4.624  -1.153  -0.045  0.00  0.00    +0.000 A 
ATOM     12  N   UNL     1       5.338  -0.024  -0.072  0.00  0.00    +0.000 NA
ATOM     13  C   UNL     1       4.536   1.066  -0.065  0.00  0.00    +0.000 A 
ATOM     14  N   UNL     1       3.184   1.107  -0.065  0.00  0.00    +0.000 NA
BRANCH   6  15
ATOM     15  N   UNL     1       1.130  -0.032  -0.076  0.00  0.00    +0.000 N 
ATOM     16  H   UNL     1       0.625  -0.905  -0.056  0.00  0.00    +0.000 HD
ATOM     17  H   UNL     1       0.668   0.862  -0.058  0.00  0.00    +0.000 HD
ENDBRANCH   6  15
ENDBRANCH   1  10
BRANCH   4  18
ATOM     18  O   UNL     1       9.284  -3.613  -1.053  0.00  0.00    +0.000 OA
ATOM     19  H   UNL     1       8.917  -4.271  -0.439  0.00  0.00    +0.000 HD
ENDBRANCH   4  18
BRANCH   5  20
ATOM     20  O   UNL     1       7.062  -3.272  -2.463  0.00  0.00    +0.000 OA
ATOM     21  H   UNL     1       7.647  -4.040  -2.317  0.00  0.00    +0.000 HD
ENDBRANCH   5  20
BRANCH   3  22
ATOM     22  C   UNL     1       8.533  -0.613   0.979  0.00  0.00    +0.000 C 
BRANCH  22  23
ATOM     23  O   UNL     1       9.825  -0.012   0.682  0.00  0.00    +0.000 OA
BRANCH  23  24
ATOM     24  P   UNL     1       9.922   1.685   1.003  0.00  0.00    +0.000 P 
ATOM     25  O   UNL     1      10.008   3.204   1.291  0.00  0.00    +0.000 OA
BRANCH  24  26
ATOM     26  O   UNL     1       8.587   1.821   0.064  0.00  0.00    +0.000 OA
ATOM     27  H   UNL     1       8.710   1.441  -0.820  0.00  0.00    +0.000 HD
ENDBRANCH  24  26
BRANCH  24  28
ATOM     28  O   UNL     1       9.187   1.356   2.428  0.00  0.00    +0.000 OA
ATOM     29  H   UNL     1       9.714   0.777   3.001  0.00  0.00    +0.000 HD
ENDBRANCH  24  28
ENDBRANCH  23  24
ENDBRANCH  22  23
ENDBRANCH   3  22
TORSDOF 9
