REMARK  Name = Adiphenine
REMARK  11 active torsions:
REMARK  status: ('A' for Active; 'I' for Inactive)
REMARK    1  A    between atoms: C_1  and  C_2
REMARK    2  A    between atoms: C_2  and  N_3
REMARK    3  A    between atoms: N_3  and  C_4
REMARK    4  A    between atoms: N_3  and  C_6
REMARK    5  A    between atoms: C_4  and  C_5
REMARK    6  A    between atoms: C_6  and  C_7
REMARK    7  A    between atoms: C_7  and  O_8
REMARK    8  A    between atoms: O_8  and  C_9
REMARK    9  A    between atoms: C_9  and  C_11
REMARK   10  A    between atoms: C_11  and  C_12
REMARK   11  A    between atoms: C_11  and  C_18
REMARK                            x       y       z     vdW  Elec       q    Type
REMARK                         _______ _______ _______ _____ _____    ______ ____
ROOT
ATOM      1  C   UNL     1       8.614   3.820  -1.234  0.00  0.00    +0.000 C 
ENDROOT
BRANCH   1   2
ATOM      2  C   UNL     1       9.117   2.719  -2.194  0.00  0.00    +0.000 A 
ATOM      3  C   UNL     1       8.729   1.382  -1.992  0.00  0.00    +0.000 A 
ATOM      4  C   UNL     1       9.162   0.361  -2.837  0.00  0.00    +0.000 A 
ATOM      5  C   UNL     1      10.026   0.643  -3.887  0.00  0.00    +0.000 A 
ATOM      6  C   UNL     1      10.451   1.943  -4.093  0.00  0.00    +0.000 A 
ATOM      7  C   UNL     1       9.947   2.967  -3.298  0.00  0.00    +0.000 A 
ENDBRANCH   1   2
BRANCH   1   8
ATOM      8  C   UNL     1       9.198   5.250  -1.441  0.00  0.00    +0.000 A 
ATOM      9  C   UNL     1      10.527   5.509  -1.835  0.00  0.00    +0.000 A 
ATOM     10  C   UNL     1      10.954   6.799  -2.169  0.00  0.00    +0.000 A 
ATOM     11  C   UNL     1      10.087   7.875  -2.037  0.00  0.00    +0.000 A 
ATOM     12  C   UNL     1       8.823   7.667  -1.510  0.00  0.00    +0.000 A 
ATOM     13  C   UNL     1       8.406   6.380  -1.185  0.00  0.00    +0.000 A 
ENDBRANCH   1   8
BRANCH   1  14
ATOM     14  C   UNL     1       7.046   3.805  -1.236  0.00  0.00    +0.000 C 
ATOM     15  O   UNL     1       6.319   4.675  -1.681  0.00  0.00    +0.000 OA
BRANCH  14  16
ATOM     16  O   UNL     1       6.531   2.657  -0.677  0.00  0.00    +0.000 OA
BRANCH  16  17
ATOM     17  C   UNL     1       5.100   2.641  -0.765  0.00  0.00    +0.000 C 
BRANCH  17  18
ATOM     18  C   UNL     1       4.516   1.282  -0.350  0.00  0.00    +0.000 C 
BRANCH  18  19
ATOM     19  N   UNL     1       3.022   1.257  -0.316  0.00  0.00    +0.000 NA
BRANCH  19  21
ATOM     20  C   UNL     1       1.081  -0.374  -0.073  0.00  0.00    +0.000 C 
ATOM     21  C   UNL     1       2.583  -0.116   0.019  0.00  0.00    +0.000 C 
ENDBRANCH  19  21
BRANCH  19  22
ATOM     22  C   UNL     1       2.528   2.283   0.626  0.00  0.00    +0.000 C 
ATOM     23  C   UNL     1       1.030   2.539   0.650  0.00  0.00    +0.000 C 
ENDBRANCH  19  22
ENDBRANCH  18  19
ENDBRANCH  17  18
ENDBRANCH  16  17
ENDBRANCH  14  16
ENDBRANCH   1  14
TORSDOF 9
