REMARK  Name = Afatinib
REMARK  9 active torsions:
REMARK  status: ('A' for Active; 'I' for Inactive)
REMARK    1  A    between atoms: C_1  and  N_2
REMARK    2  A    between atoms: N_2  and  C_3
REMARK    3  A    between atoms: N_2  and  C_4
REMARK    4  A    between atoms: C_4  and  C_5
REMARK    5  A    between atoms: C_6  and  C_7
REMARK    6  A    between atoms: N_9  and  C_10
REMARK    7  A    between atoms: C_11  and  O_12
REMARK    8  A    between atoms: O_12  and  C_13
REMARK    9  A    between atoms: N_24  and  C_25
REMARK                            x       y       z     vdW  Elec       q    Type
REMARK                         _______ _______ _______ _____ _____    ______ ____
ROOT
ATOM      1  C   UNL     1       8.195  -4.837   0.883  0.00  0.00    +0.000 A 
ATOM      2  C   UNL     1       7.408  -3.835   1.447  0.00  0.00    +0.000 A 
ATOM      3  C   UNL     1       7.004  -3.986   2.803  0.00  0.00    +0.000 A 
ATOM      4  C   UNL     1       7.330  -5.108   3.593  0.00  0.00    +0.000 A 
ATOM      5  N   UNL     1       6.963  -5.201   4.883  0.00  0.00    +0.000 NA
ATOM      6  C   UNL     1       7.316  -6.317   5.546  0.00  0.00    +0.000 A 
ATOM      7  N   UNL     1       8.028  -7.348   5.060  0.00  0.00    +0.000 NA
ATOM      8  C   UNL     1       8.397  -7.257   3.769  0.00  0.00    +0.000 A 
ATOM      9  N   UNL     1       9.211  -8.315   3.285  0.00  0.00    +0.000 N 
ATOM     10  C   UNL     1       8.009  -6.150   2.969  0.00  0.00    +0.000 A 
ATOM     11  C   UNL     1       8.258  -6.022   1.587  0.00  0.00    +0.000 A 
ATOM     12  H   UNL     1       9.287  -9.078   3.948  0.00  0.00    +0.000 HD
ENDROOT
BRANCH   9  13
ATOM     13  C   UNL     1       9.881  -8.459   2.053  0.00  0.00    +0.000 A 
ATOM     14  C   UNL     1       9.462  -9.439   1.138  0.00  0.00    +0.000 A 
ATOM     15  C   UNL     1       9.863  -9.362  -0.205  0.00  0.00    +0.000 A 
ATOM     16 CL   UNL     1       9.256 -10.506  -1.342  0.00  0.00    +0.000 Cl
ATOM     17  C   UNL     1      10.680  -8.316  -0.637  0.00  0.00    +0.000 A 
ATOM     18  F   UNL     1      10.976  -8.165  -1.937  0.00  0.00    +0.000 F 
ATOM     19  C   UNL     1      11.145  -7.368   0.265  0.00  0.00    +0.000 A 
ATOM     20  C   UNL     1      10.784  -7.465   1.614  0.00  0.00    +0.000 A 
ENDBRANCH   9  13
BRANCH   1  23
ATOM     21  C   UNL     1       9.714  -3.836  -0.817  0.00  0.00    +0.000 C 
ATOM     22  O   UNL     1      10.193  -2.965  -0.081  0.00  0.00    +0.000 OA
ATOM     23  N   UNL     1       8.889  -4.848  -0.368  0.00  0.00    +0.000 N 
ATOM     24  H   UNL     1       8.807  -5.693  -0.923  0.00  0.00    +0.000 HD
BRANCH  21  26
ATOM     25  C   UNL     1      10.158  -2.564  -2.882  0.00  0.00    +0.000 C 
ATOM     26  C   UNL     1       9.860  -3.752  -2.311  0.00  0.00    +0.000 C 
BRANCH  25  27
ATOM     27  C   UNL     1      10.375  -2.328  -4.360  0.00  0.00    +0.000 C 
BRANCH  27  29
ATOM     28  C   UNL     1      11.285  -0.892  -6.079  0.00  0.00    +0.000 C 
ATOM     29  N   UNL     1      10.867  -0.973  -4.673  0.00  0.00    +0.000 NA
ATOM     30  C   UNL     1       9.840   0.048  -4.431  0.00  0.00    +0.000 C 
ENDBRANCH  27  29
ENDBRANCH  25  27
ENDBRANCH  21  26
ENDBRANCH   1  23
BRANCH   2  31
ATOM     31  O   UNL     1       6.781  -2.796   0.773  0.00  0.00    +0.000 OA
BRANCH  31  32
ATOM     32  C   UNL     1       7.048  -2.689  -0.621  0.00  0.00    +0.000 C 
ATOM     33  C   UNL     1       6.494  -3.786  -1.522  0.00  0.00    +0.000 C 
ATOM     34  C   UNL     1       6.599  -3.183  -2.898  0.00  0.00    +0.000 C 
ATOM     35  O   UNL     1       6.518  -1.764  -2.743  0.00  0.00    +0.000 OA
ATOM     36  C   UNL     1       6.584  -1.437  -1.336  0.00  0.00    +0.000 C 
ENDBRANCH  31  32
ENDBRANCH   2  31
TORSDOF 7
