REMARK  Name = Agomelatine
REMARK  6 active torsions:
REMARK  status: ('A' for Active; 'I' for Inactive)
REMARK    1  A    between atoms: C_1  and  O_2
REMARK    2  A    between atoms: O_2  and  C_3
REMARK    3  A    between atoms: C_6  and  C_7
REMARK    4  A    between atoms: C_7  and  C_8
REMARK    5  A    between atoms: C_8  and  N_9
REMARK    6  A    between atoms: C_10  and  C_11
REMARK                            x       y       z     vdW  Elec       q    Type
REMARK                         _______ _______ _______ _____ _____    ______ ____
ROOT
ATOM      1  C   UNL     1       2.954   0.208   1.376  0.00  0.00    +0.000 A 
ATOM      2  C   UNL     1       4.037   1.068   1.356  0.00  0.00    +0.000 A 
ATOM      3  C   UNL     1       4.861   1.437   2.450  0.00  0.00    +0.000 A 
ATOM      4  C   UNL     1       5.997   2.343   2.426  0.00  0.00    +0.000 A 
ATOM      5  C   UNL     1       6.719   2.559   3.617  0.00  0.00    +0.000 A 
ATOM      6  C   UNL     1       6.348   1.927   4.800  0.00  0.00    +0.000 A 
ATOM      7  C   UNL     1       5.248   1.070   4.819  0.00  0.00    +0.000 A 
ATOM      8  C   UNL     1       4.494   0.817   3.661  0.00  0.00    +0.000 A 
ATOM      9  C   UNL     1       3.379  -0.062   3.701  0.00  0.00    +0.000 A 
ATOM     10  C   UNL     1       2.618  -0.376   2.565  0.00  0.00    +0.000 A 
ENDROOT
BRANCH   1  12
ATOM     11  C   UNL     1       0.986   0.053   0.118  0.00  0.00    +0.000 C 
ATOM     12  O   UNL     1       2.402  -0.032   0.151  0.00  0.00    +0.000 OA
ENDBRANCH   1  12
BRANCH   4  13
ATOM     13  C   UNL     1       6.514   3.125   1.201  0.00  0.00    +0.000 C 
BRANCH  13  14
ATOM     14  C   UNL     1       5.717   2.885  -0.065  0.00  0.00    +0.000 C 
BRANCH  14  15
ATOM     15  N   UNL     1       6.021   3.524  -1.301  0.00  0.00    +0.000 N 
ATOM     16  C   UNL     1       5.310   3.305  -2.455  0.00  0.00    +0.000 C 
ATOM     17  C   UNL     1       4.113   2.364  -2.473  0.00  0.00    +0.000 C 
ATOM     18  O   UNL     1       5.657   3.890  -3.486  0.00  0.00    +0.000 OA
ATOM     19  H   UNL     1       6.809   4.152  -1.373  0.00  0.00    +0.000 HD
ENDBRANCH  14  15
ENDBRANCH  13  14
ENDBRANCH   4  13
TORSDOF 4
