REMARK  Name = Ajmaline
REMARK  5 active torsions:
REMARK  status: ('A' for Active; 'I' for Inactive)
REMARK    1  A    between atoms: C_5  and  O_6
REMARK    2  A    between atoms: C_14  and  O_15
REMARK    3  A    between atoms: C_16  and  C_17
REMARK    4  A    between atoms: C_17  and  C_18
REMARK    5  A    between atoms: N_21  and  C_22
REMARK                            x       y       z     vdW  Elec       q    Type
REMARK                         _______ _______ _______ _____ _____    ______ ____
ROOT
ATOM      1  C   UNL     1       2.650  -0.762  -0.780  0.00  0.00    +0.000 C 
ATOM      2  C   UNL     1       2.920   0.828  -1.252  0.00  0.00    +0.000 C 
ATOM      3  C   UNL     1       4.316   1.377  -0.393  0.00  0.00    +0.000 C 
ATOM      4  C   UNL     1       3.832   0.828   0.830  0.00  0.00    +0.000 C 
ATOM      5  C   UNL     1       3.775  -0.502  -0.036  0.00  0.00    +0.000 C 
ATOM      6  C   UNL     1       4.170  -0.859  -2.117  0.00  0.00    +0.000 C 
ATOM      7  C   UNL     1       5.336  -0.062  -2.348  0.00  0.00    +0.000 C 
ATOM      8  C   UNL     1       5.653  -0.681  -0.968  0.00  0.00    +0.000 C 
ATOM      9  N   UNL     1       4.226  -1.793  -0.378  0.00  0.00    +0.000 NA
ATOM     10  C   UNL     1       4.153  -2.974  -1.248  0.00  0.00    +0.000 C 
ATOM     11  C   UNL     1       3.727  -2.322  -2.545  0.00  0.00    +0.000 C 
ATOM     12  C   UNL     1       5.774   0.672  -0.288  0.00  0.00    +0.000 C 
ATOM     13  N   UNL     1       6.670   1.615  -0.907  0.00  0.00    +0.000 N 
ATOM     14  C   UNL     1       8.033   1.250  -1.137  0.00  0.00    +0.000 C 
ATOM     15  C   UNL     1       5.994   2.800  -1.072  0.00  0.00    +0.000 A 
ATOM     16  C   UNL     1       6.459   3.962  -1.606  0.00  0.00    +0.000 A 
ATOM     17  C   UNL     1       5.569   5.035  -1.756  0.00  0.00    +0.000 A 
ATOM     18  C   UNL     1       4.213   4.947  -1.390  0.00  0.00    +0.000 A 
ATOM     19  C   UNL     1       3.725   3.777  -0.860  0.00  0.00    +0.000 A 
ATOM     20  C   UNL     1       4.637   2.750  -0.712  0.00  0.00    +0.000 A 
ENDROOT
BRANCH   4  21
ATOM     21  O   UNL     1       4.632   0.532   1.986  0.00  0.00    +0.000 OA
ATOM     22  H   UNL     1       4.767  -0.440   2.009  0.00  0.00    +0.000 HD
ENDBRANCH   4  21
BRANCH  10  23
ATOM     23  O   UNL     1       5.452  -3.570  -1.301  0.00  0.00    +0.000 OA
ATOM     24  H   UNL     1       6.044  -3.046  -1.863  0.00  0.00    +0.000 HD
ENDBRANCH  10  23
BRANCH  11  25
ATOM     25  C   UNL     1       2.308  -2.086  -3.013  0.00  0.00    +0.000 C 
ATOM     26  C   UNL     1       2.145  -1.688  -4.467  0.00  0.00    +0.000 C 
ENDBRANCH  11  25
TORSDOF 3
