REMARK  Name = Albendazole
REMARK  6 active torsions:
REMARK  status: ('A' for Active; 'I' for Inactive)
REMARK    1  A    between atoms: C_1  and  C_2
REMARK    2  A    between atoms: C_2  and  C_3
REMARK    3  A    between atoms: C_3  and  S_4
REMARK    4  A    between atoms: S_4  and  C_5
REMARK    5  A    between atoms: C_14  and  O_16
REMARK    6  A    between atoms: O_16  and  C_17
REMARK                            x       y       z     vdW  Elec       q    Type
REMARK                         _______ _______ _______ _____ _____    ______ ____
ROOT
ATOM      1  C   UNL     1       5.422  -2.640   1.762  0.00  0.00    +0.000 A 
ATOM      2  C   UNL     1       6.192  -2.494   2.929  0.00  0.00    +0.000 A 
ATOM      3  C   UNL     1       6.490  -3.653   3.662  0.00  0.00    +0.000 A 
ATOM      4  C   UNL     1       6.081  -4.927   3.286  0.00  0.00    +0.000 A 
ATOM      5  C   UNL     1       5.353  -5.064   2.088  0.00  0.00    +0.000 A 
ATOM      6  C   UNL     1       5.044  -3.915   1.332  0.00  0.00    +0.000 A 
ATOM      7  N   UNL     1       6.496  -5.869   4.217  0.00  0.00    +0.000 NA
ATOM      8  C   UNL     1       7.153  -5.198   5.141  0.00  0.00    +0.000 A 
ATOM      9  N   UNL     1       7.742  -5.718   6.280  0.00  0.00    +0.000 N 
ATOM     10  C   UNL     1       8.408  -4.927   7.187  0.00  0.00    +0.000 C 
ATOM     11  O   UNL     1       8.548  -3.708   7.084  0.00  0.00    +0.000 OA
ATOM     12  N   UNL     1       7.185  -3.860   4.825  0.00  0.00    +0.000 N 
ATOM     13  H   UNL     1       7.666  -6.714   6.433  0.00  0.00    +0.000 HD
ATOM     14  H   UNL     1       7.645  -3.162   5.394  0.00  0.00    +0.000 HD
ENDROOT
BRANCH  10  15
ATOM     15  O   UNL     1       8.906  -5.649   8.233  0.00  0.00    +0.000 OA
ATOM     16  C   UNL     1       9.615  -4.864   9.211  0.00  0.00    +0.000 C 
ENDBRANCH  10  15
BRANCH   1  17
ATOM     17  S   UNL     1       5.005  -1.184   0.803  0.00  0.00    +0.000 S 
BRANCH  17  18
ATOM     18  C   UNL     1       3.169  -1.255   0.797  0.00  0.00    +0.000 C 
BRANCH  18  20
ATOM     19  C   UNL     1       1.092  -0.067  -0.019  0.00  0.00    +0.000 C 
ATOM     20  C   UNL     1       2.615  -0.076  -0.009  0.00  0.00    +0.000 C 
ENDBRANCH  18  20
ENDBRANCH  17  18
ENDBRANCH   1  17
TORSDOF 4
