REMARK  Name = Alcaftadine
REMARK  2 active torsions:
REMARK  status: ('A' for Active; 'I' for Inactive)
REMARK    1  A    between atoms: C_1  and  N_2
REMARK    2  A    between atoms: C_12  and  C_13
REMARK                            x       y       z     vdW  Elec       q    Type
REMARK                         _______ _______ _______ _____ _____    ______ ____
ROOT
ATOM      1  C   UNL     1       0.913   0.191   0.093  0.00  0.00    +0.000 C 
ATOM      2  N   UNL     1       2.378   0.255   0.076  0.00  0.00    +0.000 NA
ATOM      3  C   UNL     1       2.926  -1.059  -0.211  0.00  0.00    +0.000 C 
ATOM      4  C   UNL     1       2.565  -1.531  -1.603  0.00  0.00    +0.000 C 
ATOM      5  C   UNL     1       3.028  -0.627  -2.763  0.00  0.00    +0.000 C 
ATOM      6  C   UNL     1       2.463   0.771  -2.397  0.00  0.00    +0.000 C 
ATOM      7  C   UNL     1       2.871   1.174  -0.968  0.00  0.00    +0.000 C 
ATOM      8  C   UNL     1       3.758  -1.009  -3.886  0.00  0.00    +0.000 C 
ATOM      9  C   UNL     1       4.209   0.102  -4.724  0.00  0.00    +0.000 A 
ATOM     10  N   UNL     1       4.058   1.369  -4.397  0.00  0.00    +0.000 NA
ATOM     11  C   UNL     1       4.467   2.159  -5.389  0.00  0.00    +0.000 A 
ATOM     12  C   UNL     1       5.051   1.405  -6.375  0.00  0.00    +0.000 A 
ATOM     13  N   UNL     1       4.885   0.062  -5.946  0.00  0.00    +0.000 N 
ATOM     14  C   UNL     1       5.282  -1.135  -6.670  0.00  0.00    +0.000 C 
ATOM     15  C   UNL     1       5.902  -2.295  -5.861  0.00  0.00    +0.000 C 
ATOM     16  C   UNL     1       5.019  -3.072  -4.911  0.00  0.00    +0.000 A 
ATOM     17  C   UNL     1       5.188  -4.499  -4.859  0.00  0.00    +0.000 A 
ATOM     18  C   UNL     1       4.541  -5.318  -3.923  0.00  0.00    +0.000 A 
ATOM     19  C   UNL     1       3.618  -4.750  -3.102  0.00  0.00    +0.000 A 
ATOM     20  C   UNL     1       3.268  -3.444  -3.402  0.00  0.00    +0.000 A 
ATOM     21  C   UNL     1       4.060  -2.493  -4.086  0.00  0.00    +0.000 A 
ENDROOT
BRANCH  12  22
ATOM     22  C   UNL     1       5.671   2.030  -7.516  0.00  0.00    +0.000 C 
ATOM     23  O   UNL     1       5.725   3.266  -7.670  0.00  0.00    +0.000 OA
ENDBRANCH  12  22
TORSDOF 1
