REMARK  Name = Alclometasone
REMARK  8 active torsions:
REMARK  status: ('A' for Active; 'I' for Inactive)
REMARK    1  A    between atoms: C_4  and  C_5
REMARK    2  A    between atoms: C_6  and  O_7
REMARK    3  A    between atoms: C_6  and  C_8
REMARK    4  A    between atoms: C_8  and  C_10
REMARK    5  A    between atoms: C_10  and  O_11
REMARK    6  A    between atoms: C_12  and  C_13
REMARK    7  A    between atoms: C_15  and  O_16
REMARK    8  A    between atoms: C_30  and  C_31
REMARK                            x       y       z     vdW  Elec       q    Type
REMARK                         _______ _______ _______ _____ _____    ______ ____
ROOT
ATOM      1  C   UNL     1       1.915   0.025  -0.278  0.00  0.00    +0.000 C 
ATOM      2  C   UNL     1       2.462  -0.001  -1.586  0.00  0.00    +0.000 C 
ATOM      3  C   UNL     1       3.581  -0.272  -0.582  0.00  0.00    +0.000 C 
ATOM      4  C   UNL     1       5.282   0.243  -1.142  0.00  0.00    +0.000 C 
ATOM      5  C   UNL     1       2.794  -0.901   1.263  0.00  0.00    +0.000 C 
ATOM      6  C   UNL     1       2.773  -1.596   0.122  0.00  0.00    +0.000 C 
ATOM      7  C   UNL     1       2.031  -2.793  -0.315  0.00  0.00    +0.000 C 
ATOM      8  C   UNL     1       4.556  -1.578   0.673  0.00  0.00    +0.000 C 
ATOM      9  C   UNL     1       4.878   0.004   1.511  0.00  0.00    +0.000 C 
ATOM     10  C   UNL     1       4.184   1.477   0.879  0.00  0.00    +0.000 C 
ATOM     11  C   UNL     1       2.557   1.448   0.616  0.00  0.00    +0.000 C 
ATOM     12  C   UNL     1       2.104   2.747  -0.090  0.00  0.00    +0.000 C 
ATOM     13 CL   UNL     1       2.615   3.032  -1.793  0.00  0.00    +0.000 Cl
ATOM     14  C   UNL     1       2.645   3.971   0.626  0.00  0.00    +0.000 C 
ATOM     15  C   UNL     1       4.138   4.011   0.853  0.00  0.00    +0.000 C 
ATOM     16  C   UNL     1       4.915   5.072   0.563  0.00  0.00    +0.000 C 
ATOM     17  C   UNL     1       6.322   4.919   1.019  0.00  0.00    +0.000 C 
ATOM     18  O   UNL     1       6.854   5.432   1.994  0.00  0.00    +0.000 OA
ATOM     19  C   UNL     1       7.043   3.863   0.232  0.00  0.00    +0.000 C 
ATOM     20  C   UNL     1       6.395   2.898   0.944  0.00  0.00    +0.000 C 
ATOM     21  C   UNL     1       4.825   2.783   1.446  0.00  0.00    +0.000 C 
ATOM     22  C   UNL     1       4.403   2.747   2.917  0.00  0.00    +0.000 C 
ENDROOT
BRANCH   5  23
ATOM     23  O   UNL     1       1.298  -0.797   1.624  0.00  0.00    +0.000 OA
ATOM     24  H   UNL     1       1.053  -1.040   2.530  0.00  0.00    +0.000 HD
ENDBRANCH   5  23
BRANCH   5  25
ATOM     25  C   UNL     1       2.928  -2.382   2.420  0.00  0.00    +0.000 C 
ATOM     26  O   UNL     1       3.383  -3.485   2.061  0.00  0.00    +0.000 OA
BRANCH  25  27
ATOM     27  C   UNL     1       2.358  -2.481   3.939  0.00  0.00    +0.000 C 
BRANCH  27  28
ATOM     28  O   UNL     1       2.791  -3.713   4.596  0.00  0.00    +0.000 OA
ATOM     29  H   UNL     1       2.586  -4.468   4.008  0.00  0.00    +0.000 HD
ENDBRANCH  27  28
ENDBRANCH  25  27
ENDBRANCH   5  25
BRANCH   9  30
ATOM     30  O   UNL     1       4.421  -0.174   2.872  0.00  0.00    +0.000 OA
ATOM     31  H   UNL     1       3.542   0.233   2.990  0.00  0.00    +0.000 HD
ENDBRANCH   9  30
TORSDOF 5
