REMARK  Name = Alclofenac
REMARK  6 active torsions:
REMARK  status: ('A' for Active; 'I' for Inactive)
REMARK    1  A    between atoms: O_1  and  C_2
REMARK    2  A    between atoms: C_2  and  C_4
REMARK    3  A    between atoms: C_4  and  C_5
REMARK    4  A    between atoms: C_9  and  O_10
REMARK    5  A    between atoms: O_10  and  C_11
REMARK    6  A    between atoms: C_11  and  C_12
REMARK                            x       y       z     vdW  Elec       q    Type
REMARK                         _______ _______ _______ _____ _____    ______ ____
ROOT
ATOM      1  C   UNL     1       4.579   0.923  -0.163  0.00  0.00    +0.000 A 
ATOM      2  C   UNL     1       5.110  -0.364  -0.230  0.00  0.00    +0.000 A 
ATOM      3  C   UNL     1       6.468  -0.659  -0.153  0.00  0.00    +0.000 A 
ATOM      4 CL   UNL     1       6.742  -2.375  -0.109  0.00  0.00    +0.000 Cl
ATOM      5  C   UNL     1       7.401   0.381  -0.108  0.00  0.00    +0.000 A 
ATOM      6  C   UNL     1       6.897   1.702  -0.100  0.00  0.00    +0.000 A 
ATOM      7  C   UNL     1       5.506   1.973  -0.117  0.00  0.00    +0.000 A 
ENDROOT
BRANCH   1   8
ATOM      8  C   UNL     1       3.066   1.137  -0.180  0.00  0.00    +0.000 C 
BRANCH   8   9
ATOM      9  C   UNL     1       2.179  -0.101   0.084  0.00  0.00    +0.000 C 
ATOM     10  O   UNL     1       2.552  -1.228   0.393  0.00  0.00    +0.000 OA
BRANCH   9  11
ATOM     11  O   UNL     1       0.851   0.119  -0.024  0.00  0.00    +0.000 OA
ATOM     12  H   UNL     1       0.570   1.031  -0.205  0.00  0.00    +0.000 HD
ENDBRANCH   9  11
ENDBRANCH   8   9
ENDBRANCH   1   8
BRANCH   5  13
ATOM     13  O   UNL     1       8.778   0.288  -0.088  0.00  0.00    +0.000 OA
BRANCH  13  14
ATOM     14  C   UNL     1       9.299  -1.041  -0.118  0.00  0.00    +0.000 C 
BRANCH  14  15
ATOM     15  C   UNL     1      10.791  -1.080  -0.130  0.00  0.00    +0.000 C 
ATOM     16  C   UNL     1      11.451  -2.249  -0.139  0.00  0.00    +0.000 C 
ENDBRANCH  14  15
ENDBRANCH  13  14
ENDBRANCH   5  13
TORSDOF 6
