REMARK  Name = Alcloxa
REMARK  1 active torsions:
REMARK  status: ('A' for Active; 'I' for Inactive)
REMARK    1  A    between atoms: N_11  and  C_12
REMARK                            x       y       z     vdW  Elec       q    Type
REMARK                         _______ _______ _______ _____ _____    ______ ____
ROOT
ATOM      1  O   HOH     1       1.044   0.009  -0.090  0.00  0.00    +0.000 OA
ATOM      2  H   HOH     0       2.014   0.009  -0.090  0.00  0.00    +0.000 HD
ENDROOT
TORSDOF 0
REMARK  Name = Alcloxa
REMARK  1 active torsions:
REMARK  status: ('A' for Active; 'I' for Inactive)
REMARK    1  A    between atoms: N_11  and  C_12
REMARK                            x       y       z     vdW  Elec       q    Type
REMARK                         _______ _______ _______ _____ _____    ______ ____
ROOT
ATOM      1  O   HOH     2       0.917  -0.009   0.055  0.00  0.00    +0.000 OA
ATOM      2  H   HOH     0       1.887  -0.009   0.055  0.00  0.00    +0.000 HD
ENDROOT
TORSDOF 0
REMARK  Name = Alcloxa
REMARK  1 active torsions:
REMARK  status: ('A' for Active; 'I' for Inactive)
REMARK    1  A    between atoms: N_11  and  C_12
REMARK                            x       y       z     vdW  Elec       q    Type
REMARK                         _______ _______ _______ _____ _____    ______ ____
ROOT
ATOM      1  O   HOH     3       1.072  -0.063   0.030  0.00  0.00    +0.000 OA
ATOM      2  H   HOH     0       2.042  -0.063   0.030  0.00  0.00    +0.000 HD
ENDROOT
TORSDOF 0
REMARK  Name = Alcloxa
REMARK  1 active torsions:
REMARK  status: ('A' for Active; 'I' for Inactive)
REMARK    1  A    between atoms: N_11  and  C_12
REMARK                            x       y       z     vdW  Elec       q    Type
REMARK                         _______ _______ _______ _____ _____    ______ ____
ROOT
ATOM      1  O   HOH     4       0.939  -0.058  -0.054  0.00  0.00    +0.000 OA
ATOM      2  H   HOH     0       1.909  -0.058  -0.054  0.00  0.00    +0.000 HD
ENDROOT
TORSDOF 0
REMARK  Name = Alcloxa
REMARK  1 active torsions:
REMARK  status: ('A' for Active; 'I' for Inactive)
REMARK    1  A    between atoms: N_11  and  C_12
REMARK                            x       y       z     vdW  Elec       q    Type
REMARK                         _______ _______ _______ _____ _____    ______ ____
ROOT
ATOM      1 AL   UNL     5       0.994   0.026   0.096  0.00  0.00    +0.000 Al
ENDROOT
TORSDOF 0
REMARK  Name = Alcloxa
REMARK  1 active torsions:
REMARK  status: ('A' for Active; 'I' for Inactive)
REMARK    1  A    between atoms: N_11  and  C_12
REMARK                            x       y       z     vdW  Elec       q    Type
REMARK                         _______ _______ _______ _____ _____    ______ ____
ROOT
ATOM      1 AL   UNL     6       1.003  -0.026   0.096  0.00  0.00    +0.000 Al
ENDROOT
TORSDOF 0
REMARK  Name = Alcloxa
REMARK  1 active torsions:
REMARK  status: ('A' for Active; 'I' for Inactive)
REMARK    1  A    between atoms: N_11  and  C_12
REMARK                            x       y       z     vdW  Elec       q    Type
REMARK                         _______ _______ _______ _____ _____    ______ ____
ROOT
ATOM      1 CL   UNL     7       0.969   0.094  -0.016  0.00  0.00    +0.000 Cl
ENDROOT
TORSDOF 0
REMARK  Name = Alcloxa
REMARK  1 active torsions:
REMARK  status: ('A' for Active; 'I' for Inactive)
REMARK    1  A    between atoms: N_11  and  C_12
REMARK                            x       y       z     vdW  Elec       q    Type
REMARK                         _______ _______ _______ _____ _____    ______ ____
ROOT
ATOM      1  C   UNL     8       4.723   0.483   1.218  0.00  0.00    +0.000 C 
ATOM      2  N   UNL     8       5.250   1.655   0.495  0.00  0.00    +0.000 N 
ATOM      3  C   UNL     8       5.965   2.366   1.386  0.00  0.00    +0.000 C 
ATOM      4  O   UNL     8       6.563   3.452   1.105  0.00  0.00    +0.000 OA
ATOM      5  N   UNL     8       5.977   1.803   2.599  0.00  0.00    +0.000 NA
ATOM      6  C   UNL     8       5.265   0.658   2.623  0.00  0.00    +0.000 C 
ATOM      7  O   UNL     8       5.085  -0.113   3.617  0.00  0.00    +0.000 OA
ATOM      8  H   UNL     8       5.106   1.874  -0.453  0.00  0.00    +0.000 HD
ENDROOT
BRANCH   1  12
ATOM      9  N   UNL     8       1.048  -0.058   0.065  0.00  0.00    +0.000 N 
ATOM     10  C   UNL     8       2.518  -0.058   0.065  0.00  0.00    +0.000 C 
ATOM     11  O   UNL     8       3.154  -0.526  -0.931  0.00  0.00    +0.000 OA
ATOM     12  N   UNL     8       3.253   0.483   1.218  0.00  0.00    +0.000 N 
ATOM     13  H   UNL     8       0.556  -0.420  -0.706  0.00  0.00    +0.000 HD
ATOM     14  H   UNL     8       0.556   0.304   0.837  0.00  0.00    +0.000 HD
ATOM     15  H   UNL     8       2.761   0.845   1.990  0.00  0.00    +0.000 HD
ENDBRANCH   1  12
TORSDOF 1
