REMARK  Name = Alectinib
REMARK  7 active torsions:
REMARK  status: ('A' for Active; 'I' for Inactive)
REMARK    1  A    between atoms: C_1  and  C_2
REMARK    2  A    between atoms: C_2  and  C_3
REMARK    3  A    between atoms: C_8  and  N_9
REMARK    4  A    between atoms: C_12  and  N_15
REMARK    5  A    between atoms: C_21  and  C_22
REMARK    6  A    between atoms: C_21  and  C_23
REMARK    7  A    between atoms: C_29  and  C_33
REMARK                            x       y       z     vdW  Elec       q    Type
REMARK                         _______ _______ _______ _____ _____    ______ ____
ROOT
ATOM      1  C   UNL     1       3.041   1.353  -0.285  0.00  0.00    +0.000 A 
ATOM      2  C   UNL     1       4.142   1.558  -1.092  0.00  0.00    +0.000 A 
ATOM      3  C   UNL     1       4.548   2.851  -1.418  0.00  0.00    +0.000 A 
ATOM      4  C   UNL     1       3.845   3.980  -0.986  0.00  0.00    +0.000 A 
ATOM      5  C   UNL     1       2.770   3.759  -0.170  0.00  0.00    +0.000 A 
ATOM      6  C   UNL     1       2.417   2.478   0.249  0.00  0.00    +0.000 A 
ATOM      7  C   UNL     1       4.199   5.418  -1.317  0.00  0.00    +0.000 C 
ATOM      8  C   UNL     1       3.049   5.996  -2.163  0.00  0.00    +0.000 C 
ATOM      9  C   UNL     1       4.426   6.175   0.009  0.00  0.00    +0.000 C 
ATOM     10  C   UNL     1       5.452   5.433  -2.122  0.00  0.00    +0.000 A 
ATOM     11  C   UNL     1       6.150   4.323  -2.541  0.00  0.00    +0.000 A 
ATOM     12  C   UNL     1       7.248   4.765  -3.288  0.00  0.00    +0.000 A 
ATOM     13  C   UNL     1       8.273   4.077  -3.948  0.00  0.00    +0.000 A 
ATOM     14  C   UNL     1       9.240   4.809  -4.623  0.00  0.00    +0.000 A 
ATOM     15  C   UNL     1       9.184   6.204  -4.640  0.00  0.00    +0.000 A 
ATOM     16  C   UNL     1       8.163   6.912  -3.984  0.00  0.00    +0.000 A 
ATOM     17  C   UNL     1       7.201   6.157  -3.311  0.00  0.00    +0.000 A 
ATOM     18  N   UNL     1       6.094   6.546  -2.589  0.00  0.00    +0.000 N 
ATOM     19  C   UNL     1       5.757   2.974  -2.237  0.00  0.00    +0.000 C 
ATOM     20  O   UNL     1       6.369   1.980  -2.610  0.00  0.00    +0.000 OA
ATOM     21  H   UNL     1       5.799   7.503  -2.438  0.00  0.00    +0.000 HD
ENDROOT
BRANCH   6  22
ATOM     22  N   UNL     1       1.391   2.486   1.146  0.00  0.00    +0.000 N 
ATOM     23  C   UNL     1       0.222   3.046   0.529  0.00  0.00    +0.000 C 
ATOM     24  C   UNL     1      -0.408   3.895   1.657  0.00  0.00    +0.000 C 
ATOM     25  C   UNL     1      -0.722   2.965   2.975  0.00  0.00    +0.000 C 
ATOM     26  C   UNL     1       0.640   2.416   3.432  0.00  0.00    +0.000 C 
ATOM     27  C   UNL     1       1.284   1.627   2.325  0.00  0.00    +0.000 C 
BRANCH  25  28
ATOM     28  N   UNL     1      -2.019   2.077   3.017  0.00  0.00    +0.000 NA
ATOM     29  C   UNL     1      -2.172   0.623   2.556  0.00  0.00    +0.000 C 
ATOM     30  C   UNL     1      -1.939   0.292   1.070  0.00  0.00    +0.000 C 
ATOM     31  O   UNL     1      -2.721   1.161   0.219  0.00  0.00    +0.000 OA
ATOM     32  C   UNL     1      -2.606   2.490   0.710  0.00  0.00    +0.000 C 
ATOM     33  C   UNL     1      -2.997   2.819   2.155  0.00  0.00    +0.000 C 
ENDBRANCH  25  28
ENDBRANCH   6  22
BRANCH   1  35
ATOM     34  C   UNL     1       1.114  -0.237  -0.280  0.00  0.00    +0.000 C 
ATOM     35  C   UNL     1       2.595  -0.070  -0.077  0.00  0.00    +0.000 C 
ENDBRANCH   1  35
BRANCH  15  36
ATOM     36  C   UNL     1      10.208   6.937  -5.358  0.00  0.00    +0.000 C 
ATOM     37  N   UNL     1      11.008   7.508  -5.920  0.00  0.00    +0.000 NA
ENDBRANCH  15  36
TORSDOF 4
