REMARK  Name = Alendronic acid
REMARK  11 active torsions:
REMARK  status: ('A' for Active; 'I' for Inactive)
REMARK    1  A    between atoms: N_1  and  C_2
REMARK    2  A    between atoms: C_2  and  C_3
REMARK    3  A    between atoms: C_3  and  C_4
REMARK    4  A    between atoms: C_4  and  C_5
REMARK    5  A    between atoms: C_5  and  O_6
REMARK    6  A    between atoms: C_5  and  P_7
REMARK    7  A    between atoms: C_5  and  P_11
REMARK    8  A    between atoms: P_7  and  O_8
REMARK    9  A    between atoms: P_7  and  O_9
REMARK   10  A    between atoms: P_11  and  O_12
REMARK   11  A    between atoms: P_11  and  O_13
REMARK                            x       y       z     vdW  Elec       q    Type
REMARK                         _______ _______ _______ _____ _____    ______ ____
ROOT
ATOM      1  C   UNL     1       4.972  -1.341  -2.600  0.00  0.00    +0.000 C 
ENDROOT
BRANCH   1   2
ATOM      2  O   UNL     1       4.588  -2.747  -2.628  0.00  0.00    +0.000 OA
ATOM      3  H   UNL     1       3.630  -2.838  -2.746  0.00  0.00    +0.000 HD
ENDBRANCH   1   2
BRANCH   1   4
ATOM      4  P   UNL     1       4.362  -0.447  -4.075  0.00  0.00    +0.000 P 
ATOM      5  O   UNL     1       3.846   0.310  -5.323  0.00  0.00    +0.000 OA
BRANCH   4   6
ATOM      6  O   UNL     1       4.801  -1.738  -5.022  0.00  0.00    +0.000 OA
ATOM      7  H   UNL     1       4.883  -2.605  -4.564  0.00  0.00    +0.000 HD
ENDBRANCH   4   6
BRANCH   4   8
ATOM      8  O   UNL     1       2.847  -1.077  -3.906  0.00  0.00    +0.000 OA
ATOM      9  H   UNL     1       2.433  -1.550  -3.161  0.00  0.00    +0.000 HD
ENDBRANCH   4   8
ENDBRANCH   1   4
BRANCH   1  10
ATOM     10  P   UNL     1       6.802  -1.341  -2.600  0.00  0.00    +0.000 P 
ATOM     11  O   UNL     1       8.351  -1.341  -2.600  0.00  0.00    +0.000 OA
BRANCH  10  12
ATOM     12  O   UNL     1       6.833  -1.920  -4.129  0.00  0.00    +0.000 OA
ATOM     13  H   UNL     1       6.508  -1.357  -4.872  0.00  0.00    +0.000 HD
ENDBRANCH  10  12
BRANCH  10  14
ATOM     14  O   UNL     1       6.670   0.272  -2.934  0.00  0.00    +0.000 OA
ATOM     15  H   UNL     1       6.552   0.864  -2.160  0.00  0.00    +0.000 HD
ENDBRANCH  10  14
ENDBRANCH   1  10
BRANCH   1  16
ATOM     16  C   UNL     1       4.452  -0.700  -1.267  0.00  0.00    +0.000 C 
BRANCH  16  17
ATOM     17  C   UNL     1       2.931  -0.616  -1.145  0.00  0.00    +0.000 C 
BRANCH  17  18
ATOM     18  C   UNL     1       2.420   0.064   0.110  0.00  0.00    +0.000 C 
BRANCH  18  19
ATOM     19  N   UNL     1       0.967   0.066   0.017  0.00  0.00    +0.000 NA
ATOM     20  H   UNL     1       0.557   0.515   0.834  0.00  0.00    +0.000 HD
ATOM     21  H   UNL     1       0.598  -0.884  -0.007  0.00  0.00    +0.000 HD
ENDBRANCH  18  19
ENDBRANCH  17  18
ENDBRANCH  16  17
ENDBRANCH   1  16
TORSDOF 11
