REMARK  Name = Alfacalcidol
REMARK  12 active torsions:
REMARK  status: ('A' for Active; 'I' for Inactive)
REMARK    1  A    between atoms: C_1  and  C_2
REMARK    2  A    between atoms: C_2  and  C_3
REMARK    3  A    between atoms: C_2  and  C_4
REMARK    4  A    between atoms: C_4  and  C_5
REMARK    5  A    between atoms: C_5  and  C_6
REMARK    6  A    between atoms: C_6  and  C_7
REMARK    7  A    between atoms: C_7  and  C_8
REMARK    8  A    between atoms: C_7  and  C_9
REMARK    9  A    between atoms: C_19  and  C_20
REMARK   10  A    between atoms: C_21  and  C_22
REMARK   11  A    between atoms: C_25  and  O_26
REMARK   12  A    between atoms: C_28  and  O_29
REMARK                            x       y       z     vdW  Elec       q    Type
REMARK                         _______ _______ _______ _____ _____    ______ ____
ROOT
ATOM      1  C   UNL     1       6.946   2.770   3.263  0.00  0.00    +0.000 C 
ATOM      2  C   UNL     1       7.435   4.186   2.852  0.00  0.00    +0.000 C 
ATOM      3  C   UNL     1       6.839   5.179   3.846  0.00  0.00    +0.000 C 
ATOM      4  C   UNL     1       6.424   4.303   5.017  0.00  0.00    +0.000 C 
ATOM      5  C   UNL     1       5.443   4.776   6.036  0.00  0.00    +0.000 C 
ATOM      6  C   UNL     1       5.138   3.676   7.033  0.00  0.00    +0.000 C 
ATOM      7  C   UNL     1       4.766   2.311   6.486  0.00  0.00    +0.000 C 
ATOM      8  C   UNL     1       5.723   1.907   5.383  0.00  0.00    +0.000 C 
ATOM      9  C   UNL     1       5.832   3.046   4.339  0.00  0.00    +0.000 C 
ATOM     10  C   UNL     1       4.400   3.455   3.816  0.00  0.00    +0.000 C 
ATOM     11  C   UNL     1       4.873   6.008   6.062  0.00  0.00    +0.000 C 
ENDROOT
BRANCH  11  12
ATOM     12  C   UNL     1       4.017   6.462   7.133  0.00  0.00    +0.000 C 
ATOM     13  C   UNL     1       4.277   6.348   8.461  0.00  0.00    +0.000 C 
ATOM     14  C   UNL     1       3.221   6.719   9.473  0.00  0.00    +0.000 C 
ATOM     15  C   UNL     1       2.959   5.605  10.502  0.00  0.00    +0.000 C 
ATOM     16  C   UNL     1       4.246   5.058  11.119  0.00  0.00    +0.000 C 
ATOM     17  C   UNL     1       5.239   4.626  10.055  0.00  0.00    +0.000 C 
ATOM     18  C   UNL     1       5.496   5.746   9.043  0.00  0.00    +0.000 C 
ATOM     19  C   UNL     1       6.731   6.077   8.616  0.00  0.00    +0.000 C 
BRANCH  15  20
ATOM     20  O   UNL     1       2.185   4.547   9.931  0.00  0.00    +0.000 OA
ATOM     21  H   UNL     1       2.645   4.200   9.147  0.00  0.00    +0.000 HD
ENDBRANCH  15  20
BRANCH  17  22
ATOM     22  O   UNL     1       6.441   4.171  10.670  0.00  0.00    +0.000 OA
ATOM     23  H   UNL     1       6.890   4.954  11.027  0.00  0.00    +0.000 HD
ENDBRANCH  17  22
ENDBRANCH  11  12
BRANCH   1  24
ATOM     24  C   UNL     1       6.644   1.783   2.091  0.00  0.00    +0.000 C 
ATOM     25  C   UNL     1       7.191   2.256   0.743  0.00  0.00    +0.000 C 
BRANCH  24  26
ATOM     26  C   UNL     1       5.153   1.565   1.990  0.00  0.00    +0.000 C 
BRANCH  26  27
ATOM     27  C   UNL     1       4.569   0.731   0.909  0.00  0.00    +0.000 C 
BRANCH  27  28
ATOM     28  C   UNL     1       3.042   0.842   0.989  0.00  0.00    +0.000 C 
BRANCH  28  30
ATOM     29  C   UNL     1       0.924   0.050  -0.083  0.00  0.00    +0.000 C 
ATOM     30  C   UNL     1       2.443   0.029  -0.149  0.00  0.00    +0.000 C 
ATOM     31  C   UNL     1       2.919   0.562  -1.503  0.00  0.00    +0.000 C 
ENDBRANCH  28  30
ENDBRANCH  27  28
ENDBRANCH  26  27
ENDBRANCH  24  26
ENDBRANCH   1  24
TORSDOF 8
