REMARK  Name = Alfentanil
REMARK  12 active torsions:
REMARK  status: ('A' for Active; 'I' for Inactive)
REMARK    1  A    between atoms: C_1  and  C_2
REMARK    2  A    between atoms: C_2  and  N_3
REMARK    3  A    between atoms: N_6  and  C_7
REMARK    4  A    between atoms: C_7  and  C_8
REMARK    5  A    between atoms: C_8  and  N_9
REMARK    6  A    between atoms: C_12  and  C_13
REMARK    7  A    between atoms: C_12  and  N_18
REMARK    8  A    between atoms: C_13  and  O_14
REMARK    9  A    between atoms: O_14  and  C_15
REMARK   10  A    between atoms: N_18  and  C_23
REMARK   11  A    between atoms: C_19  and  C_21
REMARK   12  A    between atoms: C_21  and  C_22
REMARK                            x       y       z     vdW  Elec       q    Type
REMARK                         _______ _______ _______ _____ _____    ______ ____
ROOT
ATOM      1  N   UNL     1       1.874  -6.279   1.308  0.00  0.00    +0.000 NA
ATOM      2  C   UNL     1       1.206  -6.685   0.050  0.00  0.00    +0.000 C 
ATOM      3  C   UNL     1       0.794  -8.140   0.206  0.00  0.00    +0.000 C 
ATOM      4  C   UNL     1       2.042  -9.069   0.333  0.00  0.00    +0.000 C 
ATOM      5  C   UNL     1       2.752  -8.551   1.593  0.00  0.00    +0.000 C 
ATOM      6  C   UNL     1       3.076  -7.071   1.424  0.00  0.00    +0.000 C 
ENDROOT
BRANCH   4   7
ATOM      7  N   UNL     1       2.961  -9.096  -0.917  0.00  0.00    +0.000 N 
ATOM      8  C   UNL     1       4.364  -8.858  -1.007  0.00  0.00    +0.000 C 
ATOM      9  O   UNL     1       4.934  -8.834  -2.107  0.00  0.00    +0.000 OA
BRANCH   7  10
ATOM     10  C   UNL     1       2.300  -9.512  -2.156  0.00  0.00    +0.000 A 
ATOM     11  C   UNL     1       2.730 -10.640  -2.866  0.00  0.00    +0.000 A 
ATOM     12  C   UNL     1       2.142 -10.979  -4.099  0.00  0.00    +0.000 A 
ATOM     13  C   UNL     1       1.052 -10.262  -4.591  0.00  0.00    +0.000 A 
ATOM     14  C   UNL     1       0.592  -9.164  -3.886  0.00  0.00    +0.000 A 
ATOM     15  C   UNL     1       1.241  -8.779  -2.711  0.00  0.00    +0.000 A 
ENDBRANCH   7  10
BRANCH   8  16
ATOM     16  C   UNL     1       5.263  -8.620   0.235  0.00  0.00    +0.000 C 
ATOM     17  C   UNL     1       6.647  -8.076  -0.025  0.00  0.00    +0.000 C 
ENDBRANCH   8  16
ENDBRANCH   4   7
BRANCH   1  18
ATOM     18  C   UNL     1       2.281  -4.891   1.150  0.00  0.00    +0.000 C 
BRANCH  18  19
ATOM     19  C   UNL     1       3.011  -4.215   2.326  0.00  0.00    +0.000 C 
BRANCH  19  23
ATOM     20  N   UNL     1       3.085  -0.889   1.065  0.00  0.00    +0.000 N 
ATOM     21  N   UNL     1       3.584  -0.713   2.324  0.00  0.00    +0.000 NA
ATOM     22  N   UNL     1       3.674  -1.863   2.892  0.00  0.00    +0.000 NA
ATOM     23  N   UNL     1       3.196  -2.814   2.028  0.00  0.00    +0.000 N 
ATOM     24  C   UNL     1       2.824  -2.209   0.848  0.00  0.00    +0.000 A 
ATOM     25  O   UNL     1       2.338  -2.666  -0.161  0.00  0.00    +0.000 OA
BRANCH  20  27
ATOM     26  C   UNL     1       1.106   0.106   0.011  0.00  0.00    +0.000 C 
ATOM     27  C   UNL     1       2.632   0.085   0.119  0.00  0.00    +0.000 C 
ENDBRANCH  20  27
ENDBRANCH  19  23
ENDBRANCH  18  19
ENDBRANCH   1  18
BRANCH   4  28
ATOM     28  C   UNL     1       1.533 -10.503   0.631  0.00  0.00    +0.000 C 
BRANCH  28  29
ATOM     29  O   UNL     1       0.766 -10.497   1.839  0.00  0.00    +0.000 OA
ATOM     30  C   UNL     1       0.260 -11.780   2.149  0.00  0.00    +0.000 C 
ENDBRANCH  28  29
ENDBRANCH   4  28
TORSDOF 9
