REMARK  Name = Alfuzosin
REMARK  10 active torsions:
REMARK  status: ('A' for Active; 'I' for Inactive)
REMARK    1  A    between atoms: C_1  and  O_2
REMARK    2  A    between atoms: O_2  and  C_3
REMARK    3  A    between atoms: C_8  and  O_9
REMARK    4  A    between atoms: O_9  and  C_10
REMARK    5  A    between atoms: N_16  and  C_17
REMARK    6  A    between atoms: N_16  and  C_18
REMARK    7  A    between atoms: C_18  and  C_19
REMARK    8  A    between atoms: C_19  and  C_20
REMARK    9  A    between atoms: C_20  and  N_21
REMARK   10  A    between atoms: C_22  and  C_24
REMARK                            x       y       z     vdW  Elec       q    Type
REMARK                         _______ _______ _______ _____ _____    ______ ____
ROOT
ATOM      1  C   UNL     1       3.092  -0.572   1.146  0.00  0.00    +0.000 A 
ATOM      2  C   UNL     1       4.251   0.125   1.560  0.00  0.00    +0.000 A 
ATOM      3  C   UNL     1       5.035  -0.268   2.653  0.00  0.00    +0.000 A 
ATOM      4  C   UNL     1       4.637  -1.416   3.328  0.00  0.00    +0.000 A 
ATOM      5  C   UNL     1       3.479  -2.132   2.915  0.00  0.00    +0.000 A 
ATOM      6  C   UNL     1       2.704  -1.729   1.829  0.00  0.00    +0.000 A 
ATOM      7  C   UNL     1       5.460  -1.790   4.394  0.00  0.00    +0.000 A 
ATOM      8  N   UNL     1       5.174  -2.883   5.190  0.00  0.00    +0.000 N 
ATOM      9  N   UNL     1       6.544  -1.090   4.770  0.00  0.00    +0.000 NA
ATOM     10  C   UNL     1       6.859   0.021   4.090  0.00  0.00    +0.000 A 
ATOM     11  N   UNL     1       6.126   0.435   3.033  0.00  0.00    +0.000 NA
ATOM     12  N   UNL     1       7.966   0.754   4.500  0.00  0.00    +0.000 N 
ATOM     13  C   UNL     1       8.324   1.967   3.794  0.00  0.00    +0.000 C 
ATOM     14  H   UNL     1       4.470  -3.561   4.962  0.00  0.00    +0.000 HD
ATOM     15  H   UNL     1       5.864  -3.094   5.896  0.00  0.00    +0.000 HD
ENDROOT
BRANCH   1  17
ATOM     16  C   UNL     1       1.070  -0.066  -0.019  0.00  0.00    +0.000 C 
ATOM     17  O   UNL     1       2.497  -0.079   0.008  0.00  0.00    +0.000 OA
ENDBRANCH   1  17
BRANCH   6  18
ATOM     18  O   UNL     1       1.624  -2.434   1.380  0.00  0.00    +0.000 OA
ATOM     19  C   UNL     1       1.205  -3.591   2.094  0.00  0.00    +0.000 C 
ENDBRANCH   6  18
BRANCH  12  20
ATOM     20  C   UNL     1       8.746   0.299   5.663  0.00  0.00    +0.000 C 
BRANCH  20  21
ATOM     21  C   UNL     1       9.932   1.225   6.004  0.00  0.00    +0.000 C 
BRANCH  21  22
ATOM     22  C   UNL     1      10.739   0.753   7.207  0.00  0.00    +0.000 C 
BRANCH  22  23
ATOM     23  N   UNL     1      11.834   1.667   7.511  0.00  0.00    +0.000 N 
ATOM     24  C   UNL     1      12.678   1.429   8.575  0.00  0.00    +0.000 C 
ATOM     25  O   UNL     1      12.513   0.451   9.315  0.00  0.00    +0.000 OA
ATOM     26  H   UNL     1      12.045   2.407   6.858  0.00  0.00    +0.000 HD
BRANCH  24  27
ATOM     27  C   UNL     1      13.883   2.374   8.768  0.00  0.00    +0.000 C 
ATOM     28  C   UNL     1      13.730   3.839   8.377  0.00  0.00    +0.000 C 
ATOM     29  C   UNL     1      15.118   4.211   7.907  0.00  0.00    +0.000 C 
ATOM     30  C   UNL     1      15.636   2.920   7.320  0.00  0.00    +0.000 C 
ATOM     31  O   UNL     1      15.007   1.859   8.036  0.00  0.00    +0.000 OA
ENDBRANCH  24  27
ENDBRANCH  22  23
ENDBRANCH  21  22
ENDBRANCH  20  21
ENDBRANCH  12  20
TORSDOF 7
