REMARK  Name = Alimemazine
REMARK  7 active torsions:
REMARK  status: ('A' for Active; 'I' for Inactive)
REMARK    1  A    between atoms: C_1  and  C_2
REMARK    2  A    between atoms: C_2  and  C_3
REMARK    3  A    between atoms: C_2  and  C_7
REMARK    4  A    between atoms: C_3  and  N_4
REMARK    5  A    between atoms: N_4  and  C_5
REMARK    6  A    between atoms: N_4  and  C_6
REMARK    7  A    between atoms: C_7  and  N_8
REMARK                            x       y       z     vdW  Elec       q    Type
REMARK                         _______ _______ _______ _____ _____    ______ ____
ROOT
ATOM      1  N   UNL     1       4.632   0.125  -1.570  0.00  0.00    +0.000 N 
ATOM      2  C   UNL     1       5.328  -1.096  -1.460  0.00  0.00    +0.000 A 
ATOM      3  C   UNL     1       4.975  -2.201  -2.247  0.00  0.00    +0.000 A 
ATOM      4  C   UNL     1       5.716  -3.381  -2.198  0.00  0.00    +0.000 A 
ATOM      5  C   UNL     1       6.813  -3.483  -1.344  0.00  0.00    +0.000 A 
ATOM      6  C   UNL     1       7.169  -2.406  -0.537  0.00  0.00    +0.000 A 
ATOM      7  C   UNL     1       6.447  -1.213  -0.603  0.00  0.00    +0.000 A 
ATOM      8  S   UNL     1       6.938   0.138   0.463  0.00  0.00    +0.000 S 
ATOM      9  C   UNL     1       6.392   1.501  -0.552  0.00  0.00    +0.000 A 
ATOM     10  C   UNL     1       7.116   2.695  -0.507  0.00  0.00    +0.000 A 
ATOM     11  C   UNL     1       6.768   3.759  -1.335  0.00  0.00    +0.000 A 
ATOM     12  C   UNL     1       5.687   3.635  -2.206  0.00  0.00    +0.000 A 
ATOM     13  C   UNL     1       4.950   2.452  -2.240  0.00  0.00    +0.000 A 
ATOM     14  C   UNL     1       5.281   1.367  -1.413  0.00  0.00    +0.000 A 
ENDROOT
BRANCH   1  15
ATOM     15  C   UNL     1       3.160   0.108  -1.496  0.00  0.00    +0.000 C 
BRANCH  15  17
ATOM     16  C   UNL     1       1.048   0.126  -0.246  0.00  0.00    +0.000 C 
ATOM     17  C   UNL     1       2.565  -0.043  -0.065  0.00  0.00    +0.000 C 
BRANCH  17  18
ATOM     18  C   UNL     1       2.959  -1.394   0.597  0.00  0.00    +0.000 C 
BRANCH  18  19
ATOM     19  N   UNL     1       2.526  -1.673   1.984  0.00  0.00    +0.000 NA
ATOM     20  C   UNL     1       1.083  -1.794   2.141  0.00  0.00    +0.000 C 
ATOM     21  C   UNL     1       3.138  -2.932   2.438  0.00  0.00    +0.000 C 
ENDBRANCH  18  19
ENDBRANCH  17  18
ENDBRANCH  15  17
ENDBRANCH   1  15
TORSDOF 4
