REMARK  Name = Aliskiren
REMARK  29 active torsions:
REMARK  status: ('A' for Active; 'I' for Inactive)
REMARK    1  A    between atoms: C_1  and  O_2
REMARK    2  A    between atoms: O_2  and  C_3
REMARK    3  A    between atoms: C_3  and  C_4
REMARK    4  A    between atoms: C_4  and  C_5
REMARK    5  A    between atoms: C_5  and  O_6
REMARK    6  A    between atoms: O_6  and  C_7
REMARK    7  A    between atoms: C_8  and  O_9
REMARK    8  A    between atoms: O_9  and  C_10
REMARK    9  A    between atoms: C_13  and  C_14
REMARK   10  A    between atoms: C_14  and  C_15
REMARK   11  A    between atoms: C_15  and  C_16
REMARK   12  A    between atoms: C_15  and  C_36
REMARK   13  A    between atoms: C_16  and  C_17
REMARK   14  A    between atoms: C_17  and  N_18
REMARK   15  A    between atoms: C_17  and  C_19
REMARK   16  A    between atoms: C_19  and  O_20
REMARK   17  A    between atoms: C_19  and  C_21
REMARK   18  A    between atoms: C_21  and  C_22
REMARK   19  A    between atoms: C_22  and  C_23
REMARK   20  A    between atoms: C_22  and  C_26
REMARK   21  A    between atoms: C_23  and  C_24
REMARK   22  A    between atoms: C_23  and  C_25
REMARK   23  A    between atoms: N_28  and  C_29
REMARK   24  A    between atoms: C_29  and  C_30
REMARK   25  A    between atoms: C_30  and  C_31
REMARK   26  A    between atoms: C_30  and  C_32
REMARK   27  A    between atoms: C_30  and  C_33
REMARK   28  A    between atoms: C_36  and  C_37
REMARK   29  A    between atoms: C_36  and  C_38
REMARK                            x       y       z     vdW  Elec       q    Type
REMARK                         _______ _______ _______ _____ _____    ______ ____
ROOT
ATOM      1  C   UNL     1       6.834  -1.730  -4.979  0.00  0.00    +0.000 C 
ENDROOT
BRANCH   1   2
ATOM      2  N   UNL     1       6.513  -1.924  -6.420  0.00  0.00    +0.000 NA
ATOM      3  H   UNL     1       7.205  -1.445  -6.987  0.00  0.00    +0.000 HD
ATOM      4  H   UNL     1       5.666  -1.340  -6.543  0.00  0.00    +0.000 HD
ENDBRANCH   1   2
BRANCH   1   5
ATOM      5  C   UNL     1       7.951  -2.591  -4.480  0.00  0.00    +0.000 C 
BRANCH   5   6
ATOM      6  C   UNL     1       7.909  -3.319  -3.084  0.00  0.00    +0.000 C 
BRANCH   6   7
ATOM      7  C   UNL     1       9.369  -3.805  -2.859  0.00  0.00    +0.000 C 
ATOM      8  C   UNL     1       9.534  -4.550  -1.543  0.00  0.00    +0.000 C 
ATOM      9  C   UNL     1       9.806  -4.726  -4.014  0.00  0.00    +0.000 C 
ENDBRANCH   6   7
BRANCH   6  10
ATOM     10  C   UNL     1       7.325  -2.598  -1.815  0.00  0.00    +0.000 C 
BRANCH  10  15
ATOM     11  C   UNL     1       3.838  -2.195  -3.214  0.00  0.00    +0.000 A 
ATOM     12  C   UNL     1       3.307  -1.164  -2.444  0.00  0.00    +0.000 A 
ATOM     13  C   UNL     1       4.058  -0.684  -1.365  0.00  0.00    +0.000 A 
ATOM     14  C   UNL     1       5.303  -1.251  -1.042  0.00  0.00    +0.000 A 
ATOM     15  C   UNL     1       5.837  -2.270  -1.842  0.00  0.00    +0.000 A 
ATOM     16  C   UNL     1       5.011  -2.834  -2.813  0.00  0.00    +0.000 A 
BRANCH  12  17
ATOM     17  O   UNL     1       2.088  -0.571  -2.655  0.00  0.00    +0.000 OA
ATOM     18  C   UNL     1       1.238  -1.234  -3.597  0.00  0.00    +0.000 C 
ENDBRANCH  12  17
BRANCH  11  19
ATOM     19  O   UNL     1       3.380  -2.355  -4.507  0.00  0.00    +0.000 OA
BRANCH  19  20
ATOM     20  C   UNL     1       3.310  -3.702  -4.948  0.00  0.00    +0.000 C 
BRANCH  20  21
ATOM     21  C   UNL     1       2.411  -3.792  -6.174  0.00  0.00    +0.000 C 
BRANCH  21  22
ATOM     22  C   UNL     1       2.321  -5.246  -6.601  0.00  0.00    +0.000 C 
BRANCH  22  24
ATOM     23  C   UNL     1       1.404  -6.735  -8.149  0.00  0.00    +0.000 C 
ATOM     24  O   UNL     1       1.483  -5.372  -7.743  0.00  0.00    +0.000 OA
ENDBRANCH  22  24
ENDBRANCH  21  22
ENDBRANCH  20  21
ENDBRANCH  19  20
ENDBRANCH  11  19
ENDBRANCH  10  15
ENDBRANCH   6  10
ENDBRANCH   5   6
ENDBRANCH   1   5
BRANCH   1  25
ATOM     25  C   UNL     1       6.925  -0.240  -4.678  0.00  0.00    +0.000 C 
BRANCH  25  26
ATOM     26  O   UNL     1       5.573   0.080  -5.017  0.00  0.00    +0.000 OA
ATOM     27  H   UNL     1       5.020   0.031  -4.216  0.00  0.00    +0.000 HD
ENDBRANCH  25  26
BRANCH  25  28
ATOM     28  C   UNL     1       7.321   0.154  -3.250  0.00  0.00    +0.000 C 
BRANCH  28  29
ATOM     29  C   UNL     1       7.612   1.593  -2.799  0.00  0.00    +0.000 C 
BRANCH  29  30
ATOM     30  C   UNL     1       7.950   1.555  -1.250  0.00  0.00    +0.000 C 
ATOM     31  O   UNL     1       7.876   0.573  -0.545  0.00  0.00    +0.000 OA
ATOM     32  N   UNL     1       8.379   2.758  -0.730  0.00  0.00    +0.000 N 
ATOM     33  H   UNL     1       8.577   3.508  -1.368  0.00  0.00    +0.000 HD
BRANCH  32  34
ATOM     34  C   UNL     1       8.606   2.982   0.687  0.00  0.00    +0.000 C 
BRANCH  34  35
ATOM     35  C   UNL     1       8.944   4.446   1.039  0.00  0.00    +0.000 C 
ATOM     36  C   UNL     1      10.176   4.902   0.234  0.00  0.00    +0.000 C 
ATOM     37  C   UNL     1       7.764   5.380   0.709  0.00  0.00    +0.000 C 
BRANCH  35  38
ATOM     38  C   UNL     1       9.263   4.630   2.535  0.00  0.00    +0.000 C 
ATOM     39  N   UNL     1       9.193   3.545   3.358  0.00  0.00    +0.000 N 
ATOM     40  O   UNL     1       9.572   5.715   3.013  0.00  0.00    +0.000 OA
ATOM     41  H   UNL     1       8.946   2.606   3.083  0.00  0.00    +0.000 HD
ATOM     42  H   UNL     1       9.409   3.694   4.336  0.00  0.00    +0.000 HD
ENDBRANCH  35  38
ENDBRANCH  34  35
ENDBRANCH  32  34
ENDBRANCH  29  30
BRANCH  29  43
ATOM     43  C   UNL     1       6.418   2.529  -3.125  0.00  0.00    +0.000 C 
ATOM     44  C   UNL     1       6.676   3.969  -2.740  0.00  0.00    +0.000 C 
ATOM     45  C   UNL     1       6.112   2.683  -4.610  0.00  0.00    +0.000 C 
ENDBRANCH  29  43
ENDBRANCH  28  29
ENDBRANCH  25  28
ENDBRANCH   1  25
TORSDOF 21
