REMARK  Name = Alitretinoin
REMARK  11 active torsions:
REMARK  status: ('A' for Active; 'I' for Inactive)
REMARK    1  A    between atoms: C_1  and  C_2
REMARK    2  A    between atoms: C_2  and  C_3
REMARK    3  A    between atoms: C_4  and  C_5
REMARK    4  A    between atoms: C_6  and  C_7
REMARK    5  A    between atoms: C_11  and  C_12
REMARK    6  A    between atoms: C_11  and  C_13
REMARK    7  A    between atoms: C_14  and  C_15
REMARK    8  A    between atoms: C_16  and  C_17
REMARK    9  A    between atoms: C_17  and  C_18
REMARK   10  A    between atoms: C_19  and  C_20
REMARK   11  A    between atoms: C_20  and  O_21
REMARK                            x       y       z     vdW  Elec       q    Type
REMARK                         _______ _______ _______ _____ _____    ______ ____
ROOT
ATOM      1  C   UNL     1       1.106  -0.077  -0.065  0.00  0.00    +0.000 C 
ATOM      2  C   UNL     1       2.614  -0.034  -0.017  0.00  0.00    +0.000 C 
ATOM      3  C   UNL     1       3.309  -1.007  -0.661  0.00  0.00    +0.000 C 
ENDROOT
BRANCH   2   4
ATOM      4  C   UNL     1       3.257   1.058   0.718  0.00  0.00    +0.000 C 
ATOM      5  C   UNL     1       2.689   2.117   1.315  0.00  0.00    +0.000 C 
BRANCH   5   6
ATOM      6  C   UNL     1       3.463   3.151   2.004  0.00  0.00    +0.000 C 
ATOM      7  C   UNL     1       4.493   3.799   1.405  0.00  0.00    +0.000 C 
ATOM      8  C   UNL     1       4.877   3.669  -0.050  0.00  0.00    +0.000 C 
ATOM      9  C   UNL     1       5.393   4.760   2.151  0.00  0.00    +0.000 C 
ATOM     10  C   UNL     1       5.220   4.729   3.663  0.00  0.00    +0.000 C 
ATOM     11  C   UNL     1       3.742   4.716   4.013  0.00  0.00    +0.000 C 
ATOM     12  C   UNL     1       3.023   3.458   3.452  0.00  0.00    +0.000 C 
ATOM     13  C   UNL     1       1.506   3.747   3.551  0.00  0.00    +0.000 C 
ATOM     14  C   UNL     1       3.350   2.247   4.350  0.00  0.00    +0.000 C 
ENDBRANCH   5   6
ENDBRANCH   2   4
BRANCH   3  15
ATOM     15  C   UNL     1       4.753  -1.094  -0.723  0.00  0.00    +0.000 C 
ATOM     16  C   UNL     1       5.532  -2.014  -1.317  0.00  0.00    +0.000 C 
BRANCH  16  17
ATOM     17  C   UNL     1       7.009  -1.962  -1.285  0.00  0.00    +0.000 C 
ATOM     18  C   UNL     1       7.673  -0.828  -0.555  0.00  0.00    +0.000 C 
ATOM     19  C   UNL     1       7.756  -2.910  -1.894  0.00  0.00    +0.000 C 
BRANCH  19  20
ATOM     20  C   UNL     1       9.231  -3.086  -2.007  0.00  0.00    +0.000 C 
ATOM     21  O   UNL     1       9.683  -4.047  -2.624  0.00  0.00    +0.000 OA
BRANCH  20  22
ATOM     22  O   UNL     1      10.067  -2.205  -1.441  0.00  0.00    +0.000 OA
ATOM     23  H   UNL     1       9.730  -1.445  -0.950  0.00  0.00    +0.000 HD
ENDBRANCH  20  22
ENDBRANCH  19  20
ENDBRANCH  16  17
ENDBRANCH   3  15
TORSDOF 6
