REMARK  Name = Allantoin
REMARK  1 active torsions:
REMARK  status: ('A' for Active; 'I' for Inactive)
REMARK    1  A    between atoms: N_4  and  C_5
REMARK                            x       y       z     vdW  Elec       q    Type
REMARK                         _______ _______ _______ _____ _____    ______ ____
ROOT
ATOM      1  C   UNL     1       4.532  -1.155  -0.532  0.00  0.00    +0.000 C 
ATOM      2  N   UNL     1       5.053  -2.300   0.166  0.00  0.00    +0.000 N 
ATOM      3  C   UNL     1       5.854  -1.938   1.223  0.00  0.00    +0.000 C 
ATOM      4  O   UNL     1       6.461  -2.724   1.934  0.00  0.00    +0.000 OA
ATOM      5  N   UNL     1       5.904  -0.593   1.302  0.00  0.00    +0.000 N 
ATOM      6  C   UNL     1       5.320  -0.039   0.207  0.00  0.00    +0.000 C 
ATOM      7  O   UNL     1       5.411   1.137  -0.113  0.00  0.00    +0.000 OA
ATOM      8  H   UNL     1       4.959  -3.269  -0.099  0.00  0.00    +0.000 HD
ATOM      9  H   UNL     1       6.455  -0.075   1.963  0.00  0.00    +0.000 HD
ENDROOT
BRANCH   1  13
ATOM     10  N   UNL     1       1.044  -0.199  -0.097  0.00  0.00    +0.000 N 
ATOM     11  C   UNL     1       2.382  -0.103   0.024  0.00  0.00    +0.000 C 
ATOM     12  O   UNL     1       2.840   0.884   0.576  0.00  0.00    +0.000 OA
ATOM     13  N   UNL     1       3.089  -1.153  -0.467  0.00  0.00    +0.000 N 
ATOM     14  H   UNL     1       0.536   0.574   0.317  0.00  0.00    +0.000 HD
ATOM     15  H   UNL     1       0.528  -0.984  -0.452  0.00  0.00    +0.000 HD
ATOM     16  H   UNL     1       2.593  -1.885  -0.947  0.00  0.00    +0.000 HD
ENDBRANCH   1  13
TORSDOF 1
