REMARK  Name = Allopurinol
REMARK  1 active torsions:
REMARK  status: ('A' for Active; 'I' for Inactive)
REMARK    1  A    between atoms: O_1  and  C_2
REMARK                            x       y       z     vdW  Elec       q    Type
REMARK                         _______ _______ _______ _____ _____    ______ ____
ROOT
ATOM      1  C   UNL     1       2.424   0.063  -0.055  0.00  0.00    +0.000 A 
ATOM      2  N   UNL     1       3.084  -1.100  -0.144  0.00  0.00    +0.000 NA
ATOM      3  C   UNL     1       4.438  -1.028  -0.143  0.00  0.00    +0.000 A 
ATOM      4  N   UNL     1       5.223   0.071  -0.062  0.00  0.00    +0.000 NA
ATOM      5  C   UNL     1       4.479   1.189   0.019  0.00  0.00    +0.000 A 
ATOM      6  C   UNL     1       3.104   1.262   0.028  0.00  0.00    +0.000 A 
ATOM      7  C   UNL     1       2.810   2.629   0.137  0.00  0.00    +0.000 A 
ATOM      8  N   UNL     1       3.912   3.388   0.174  0.00  0.00    +0.000 NA
ATOM      9  N   UNL     1       4.916   2.481   0.125  0.00  0.00    +0.000 N 
ATOM     10  H   UNL     1       5.872   2.804   0.185  0.00  0.00    +0.000 HD
ENDROOT
BRANCH   1  11
ATOM     11  O   UNL     1       1.060   0.004  -0.051  0.00  0.00    +0.000 OA
ATOM     12  H   UNL     1       0.892  -0.950  -0.135  0.00  0.00    +0.000 HD
ENDBRANCH   1  11
TORSDOF 1
