REMARK  Name = Alloin
REMARK  10 active torsions:
REMARK  status: ('A' for Active; 'I' for Inactive)
REMARK    1  A    between atoms: O_1  and  C_2
REMARK    2  A    between atoms: C_2  and  C_3
REMARK    3  A    between atoms: C_5  and  C_12
REMARK    4  A    between atoms: C_6  and  O_7
REMARK    5  A    between atoms: C_8  and  O_9
REMARK    6  A    between atoms: C_10  and  O_11
REMARK    7  A    between atoms: C_17  and  O_18
REMARK    8  A    between atoms: C_25  and  C_26
REMARK    9  A    between atoms: C_26  and  O_27
REMARK   10  A    between atoms: C_29  and  O_30
REMARK                            x       y       z     vdW  Elec       q    Type
REMARK                         _______ _______ _______ _____ _____    ______ ____
ROOT
ATOM      1  C   UNL     1       4.617  -1.734   0.745  0.00  0.00    +0.000 C 
ATOM      2  C   UNL     1       5.968  -1.025   0.713  0.00  0.00    +0.000 A 
ATOM      3  C   UNL     1       6.485  -0.531   1.929  0.00  0.00    +0.000 A 
ATOM      4  C   UNL     1       7.090   0.724   1.942  0.00  0.00    +0.000 A 
ATOM      5  C   UNL     1       7.459   1.319   0.744  0.00  0.00    +0.000 A 
ATOM      6  C   UNL     1       7.174   0.681  -0.468  0.00  0.00    +0.000 A 
ATOM      7  C   UNL     1       6.392  -0.479  -0.502  0.00  0.00    +0.000 A 
ATOM      8  C   UNL     1       5.880  -1.065  -1.781  0.00  0.00    +0.000 C 
ATOM      9  O   UNL     1       6.293  -0.660  -2.845  0.00  0.00    +0.000 OA
ATOM     10  C   UNL     1       4.875  -2.179  -1.718  0.00  0.00    +0.000 A 
ATOM     11  C   UNL     1       4.305  -2.535  -0.490  0.00  0.00    +0.000 A 
ATOM     12  C   UNL     1       3.358  -3.579  -0.414  0.00  0.00    +0.000 A 
ATOM     13  C   UNL     1       2.983  -4.288  -1.560  0.00  0.00    +0.000 A 
ATOM     14  C   UNL     1       3.565  -3.926  -2.783  0.00  0.00    +0.000 A 
ATOM     15  C   UNL     1       4.487  -2.878  -2.864  0.00  0.00    +0.000 A 
ENDROOT
BRANCH   1  18
ATOM     16  C   UNL     1       2.665   1.454   0.039  0.00  0.00    +0.000 C 
ATOM     17  O   UNL     1       3.578   0.369  -0.184  0.00  0.00    +0.000 OA
ATOM     18  C   UNL     1       3.514  -0.613   0.909  0.00  0.00    +0.000 C 
ATOM     19  C   UNL     1       3.686   0.052   2.287  0.00  0.00    +0.000 C 
ATOM     20  C   UNL     1       2.932   1.330   2.514  0.00  0.00    +0.000 C 
ATOM     21  C   UNL     1       3.137   2.219   1.293  0.00  0.00    +0.000 C 
BRANCH  19  22
ATOM     22  O   UNL     1       3.588  -0.887   3.351  0.00  0.00    +0.000 OA
ATOM     23  H   UNL     1       2.654  -1.111   3.484  0.00  0.00    +0.000 HD
ENDBRANCH  19  22
BRANCH  20  24
ATOM     24  O   UNL     1       3.481   1.977   3.679  0.00  0.00    +0.000 OA
ATOM     25  H   UNL     1       4.388   2.265   3.459  0.00  0.00    +0.000 HD
ENDBRANCH  20  24
BRANCH  21  26
ATOM     26  O   UNL     1       2.452   3.437   1.551  0.00  0.00    +0.000 OA
ATOM     27  H   UNL     1       1.515   3.258   1.340  0.00  0.00    +0.000 HD
ENDBRANCH  21  26
BRANCH  16  28
ATOM     28  C   UNL     1       2.412   2.452  -1.108  0.00  0.00    +0.000 C 
BRANCH  28  29
ATOM     29  O   UNL     1       1.394   3.382  -0.681  0.00  0.00    +0.000 OA
ATOM     30  H   UNL     1       1.838   4.235  -0.503  0.00  0.00    +0.000 HD
ENDBRANCH  28  29
ENDBRANCH  16  28
ENDBRANCH   1  18
BRANCH   6  31
ATOM     31  O   UNL     1       7.594   1.271  -1.623  0.00  0.00    +0.000 OA
ATOM     32  H   UNL     1       8.264   1.941  -1.431  0.00  0.00    +0.000 HD
ENDBRANCH   6  31
BRANCH  15  33
ATOM     33  O   UNL     1       5.007  -2.555  -4.083  0.00  0.00    +0.000 OA
ATOM     34  H   UNL     1       4.671  -3.135  -4.779  0.00  0.00    +0.000 HD
ENDBRANCH  15  33
BRANCH  13  35
ATOM     35  C   UNL     1       1.986  -5.414  -1.433  0.00  0.00    +0.000 C 
BRANCH  35  36
ATOM     36  O   UNL     1       1.697  -6.023  -2.683  0.00  0.00    +0.000 OA
ATOM     37  H   UNL     1       1.371  -5.317  -3.267  0.00  0.00    +0.000 HD
ENDBRANCH  35  36
ENDBRANCH  13  35
TORSDOF 10
