REMARK  Name = Almitrine
REMARK  7 active torsions:
REMARK  status: ('A' for Active; 'I' for Inactive)
REMARK    1  A    between atoms: C_5  and  C_8
REMARK    2  A    between atoms: C_8  and  N_9
REMARK    3  A    between atoms: C_8  and  C_29
REMARK    4  A    between atoms: N_18  and  C_19
REMARK    5  A    between atoms: C_19  and  C_20
REMARK    6  A    between atoms: N_24  and  C_25
REMARK    7  A    between atoms: C_25  and  C_26
REMARK                            x       y       z     vdW  Elec       q    Type
REMARK                         _______ _______ _______ _____ _____    ______ ____
ROOT
ATOM      1  N   UNL     1      -3.821  -0.674   1.219  0.00  0.00    +0.000 NA
ATOM      2  C   UNL     1      -3.474  -2.120   1.259  0.00  0.00    +0.000 C 
ATOM      3  C   UNL     1      -2.019  -2.411   1.697  0.00  0.00    +0.000 C 
ATOM      4  N   UNL     1      -1.668  -1.650   2.854  0.00  0.00    +0.000 N 
ATOM      5  C   UNL     1      -1.929  -0.232   2.855  0.00  0.00    +0.000 C 
ATOM      6  C   UNL     1      -3.406  -0.073   2.520  0.00  0.00    +0.000 C 
ATOM      7  C   UNL     1      -0.731  -2.120   3.720  0.00  0.00    +0.000 A 
ATOM      8  N   UNL     1      -1.208  -2.170   4.932  0.00  0.00    +0.000 NA
ATOM      9  C   UNL     1      -0.459  -2.766   5.828  0.00  0.00    +0.000 A 
ATOM     10  N   UNL     1      -1.023  -2.903   7.071  0.00  0.00    +0.000 N 
ATOM     11  N   UNL     1       0.766  -3.214   5.563  0.00  0.00    +0.000 NA
ATOM     12  C   UNL     1       1.201  -3.072   4.304  0.00  0.00    +0.000 A 
ATOM     13  N   UNL     1       2.481  -3.509   4.023  0.00  0.00    +0.000 N 
ATOM     14  N   UNL     1       0.452  -2.561   3.327  0.00  0.00    +0.000 NA
ATOM     15  H   UNL     1      -0.445  -3.305   7.786  0.00  0.00    +0.000 HD
ATOM     16  H   UNL     1       3.016  -3.796   4.827  0.00  0.00    +0.000 HD
ENDROOT
BRANCH   1  17
ATOM     17  C   UNL     1      -3.427   0.059  -0.041  0.00  0.00    +0.000 C 
BRANCH  17  22
ATOM     18  F   UNL     1       2.229  -0.021   0.091  0.00  0.00    +0.000 F 
ATOM     19  C   UNL     1       0.919   0.052  -0.175  0.00  0.00    +0.000 A 
ATOM     20  C   UNL     1       0.212  -1.092  -0.500  0.00  0.00    +0.000 A 
ATOM     21  C   UNL     1      -1.170  -1.013  -0.783  0.00  0.00    +0.000 A 
ATOM     22  C   UNL     1      -1.892   0.123  -0.373  0.00  0.00    +0.000 A 
ATOM     23  C   UNL     1      -1.130   1.285  -0.123  0.00  0.00    +0.000 A 
ATOM     24  C   UNL     1       0.266   1.264  -0.091  0.00  0.00    +0.000 A 
ENDBRANCH  17  22
BRANCH  17  25
ATOM     25  C   UNL     1      -4.105   1.459  -0.110  0.00  0.00    +0.000 A 
ATOM     26  C   UNL     1      -3.772   2.340  -1.155  0.00  0.00    +0.000 A 
ATOM     27  C   UNL     1      -4.149   3.682  -1.104  0.00  0.00    +0.000 A 
ATOM     28  C   UNL     1      -4.912   4.144  -0.040  0.00  0.00    +0.000 A 
ATOM     29  F   UNL     1      -5.264   5.434   0.012  0.00  0.00    +0.000 F 
ATOM     30  C   UNL     1      -5.333   3.285   0.957  0.00  0.00    +0.000 A 
ATOM     31  C   UNL     1      -4.981   1.940   0.885  0.00  0.00    +0.000 A 
ENDBRANCH  17  25
ENDBRANCH   1  17
BRANCH  10  32
ATOM     32  C   UNL     1      -2.350  -2.367   7.309  0.00  0.00    +0.000 C 
BRANCH  32  33
ATOM     33  C   UNL     1      -2.739  -2.557   8.746  0.00  0.00    +0.000 C 
ATOM     34  C   UNL     1      -3.920  -2.164   9.249  0.00  0.00    +0.000 C 
ENDBRANCH  32  33
ENDBRANCH  10  32
BRANCH  13  35
ATOM     35  C   UNL     1       3.100  -3.264   2.740  0.00  0.00    +0.000 C 
BRANCH  35  36
ATOM     36  C   UNL     1       4.532  -3.746   2.726  0.00  0.00    +0.000 C 
ATOM     37  C   UNL     1       5.312  -3.687   1.633  0.00  0.00    +0.000 C 
ENDBRANCH  35  36
ENDBRANCH  13  35
TORSDOF 7
