REMARK  Name = Alogliptin
REMARK  6 active torsions:
REMARK  status: ('A' for Active; 'I' for Inactive)
REMARK    1  A    between atoms: C_1  and  N_2
REMARK    2  A    between atoms: C_6  and  N_7
REMARK    3  A    between atoms: C_11  and  N_12
REMARK    4  A    between atoms: N_14  and  C_15
REMARK    5  A    between atoms: C_15  and  C_16
REMARK    6  A    between atoms: C_17  and  C_22
REMARK                            x       y       z     vdW  Elec       q    Type
REMARK                         _______ _______ _______ _____ _____    ______ ____
ROOT
ATOM      1  C   UNL     1       0.940   0.063  -0.072  0.00  0.00    +0.000 C 
ATOM      2  N   UNL     1       2.391   0.108  -0.066  0.00  0.00    +0.000 N 
ATOM      3  C   UNL     1       3.052   1.300  -0.083  0.00  0.00    +0.000 A 
ATOM      4  O   UNL     1       2.504   2.399  -0.073  0.00  0.00    +0.000 OA
ATOM      5  C   UNL     1       4.522   1.232  -0.069  0.00  0.00    +0.000 A 
ATOM      6  C   UNL     1       5.190   0.067  -0.086  0.00  0.00    +0.000 A 
ATOM      7  N   UNL     1       4.421  -1.108  -0.083  0.00  0.00    +0.000 N 
ATOM      8  C   UNL     1       3.029  -1.098   0.049  0.00  0.00    +0.000 A 
ATOM      9  O   UNL     1       2.334  -2.096   0.252  0.00  0.00    +0.000 OA
ENDROOT
BRANCH   6  10
ATOM     10  N   UNL     1       6.607   0.070  -0.030  0.00  0.00    +0.000 N 
ATOM     11  C   UNL     1       7.362   0.823   0.992  0.00  0.00    +0.000 C 
ATOM     12  C   UNL     1       8.364  -0.123   1.655  0.00  0.00    +0.000 C 
ATOM     13  C   UNL     1       9.316  -0.725   0.612  0.00  0.00    +0.000 C 
ATOM     14  C   UNL     1       8.549  -1.440  -0.510  0.00  0.00    +0.000 C 
ATOM     15  C   UNL     1       7.486  -0.460  -1.110  0.00  0.00    +0.000 C 
BRANCH  14  16
ATOM     16  N   UNL     1       7.941  -2.639   0.081  0.00  0.00    +0.000 NA
ATOM     17  H   UNL     1       7.377  -2.287   0.851  0.00  0.00    +0.000 HD
ATOM     18  H   UNL     1       8.623  -3.239   0.534  0.00  0.00    +0.000 HD
ENDBRANCH  14  16
ENDBRANCH   6  10
BRANCH   7  19
ATOM     19  C   UNL     1       5.131  -2.390  -0.065  0.00  0.00    +0.000 C 
BRANCH  19  20
ATOM     20  C   UNL     1       4.363  -3.676  -0.177  0.00  0.00    +0.000 A 
ATOM     21  C   UNL     1       3.540  -3.911  -1.293  0.00  0.00    +0.000 A 
ATOM     22  C   UNL     1       2.617  -4.948  -1.223  0.00  0.00    +0.000 A 
ATOM     23  C   UNL     1       2.446  -5.650  -0.024  0.00  0.00    +0.000 A 
ATOM     24  C   UNL     1       3.253  -5.388   1.081  0.00  0.00    +0.000 A 
ATOM     25  C   UNL     1       4.319  -4.518   0.947  0.00  0.00    +0.000 A 
BRANCH  21  26
ATOM     26  C   UNL     1       3.477  -2.958  -2.369  0.00  0.00    +0.000 C 
ATOM     27  N   UNL     1       3.416  -2.096  -3.157  0.00  0.00    +0.000 NA
ENDBRANCH  21  26
ENDBRANCH  19  20
ENDBRANCH   7  19
TORSDOF 5
