REMARK  Name = Alosetron
REMARK  4 active torsions:
REMARK  status: ('A' for Active; 'I' for Inactive)
REMARK    1  A    between atoms: C_1  and  N_2
REMARK    2  A    between atoms: N_13  and  C_14
REMARK    3  A    between atoms: C_14  and  C_15
REMARK    4  A    between atoms: C_16  and  C_17
REMARK                            x       y       z     vdW  Elec       q    Type
REMARK                         _______ _______ _______ _____ _____    ______ ____
ROOT
ATOM      1  C   UNL     1       1.122   0.055   0.059  0.00  0.00    +0.000 C 
ATOM      2  N   UNL     1       2.570   0.086   0.070  0.00  0.00    +0.000 N 
ATOM      3  C   UNL     1       3.353   1.211   0.062  0.00  0.00    +0.000 A 
ATOM      4  C   UNL     1       4.689   0.839   0.046  0.00  0.00    +0.000 A 
ATOM      5  C   UNL     1       4.714  -0.583   0.077  0.00  0.00    +0.000 A 
ATOM      6  C   UNL     1       5.758  -1.527   0.072  0.00  0.00    +0.000 A 
ATOM      7  C   UNL     1       5.465  -2.891   0.069  0.00  0.00    +0.000 A 
ATOM      8  C   UNL     1       4.143  -3.326   0.066  0.00  0.00    +0.000 A 
ATOM      9  C   UNL     1       3.080  -2.413   0.067  0.00  0.00    +0.000 A 
ATOM     10  C   UNL     1       3.385  -1.038   0.075  0.00  0.00    +0.000 A 
ATOM     11  C   UNL     1       5.780   1.826  -0.078  0.00  0.00    +0.000 C 
ATOM     12  O   UNL     1       6.971   1.517  -0.041  0.00  0.00    +0.000 OA
ATOM     13  N   UNL     1       5.312   3.127  -0.321  0.00  0.00    +0.000 N 
ATOM     14  C   UNL     1       4.109   3.505   0.419  0.00  0.00    +0.000 C 
ATOM     15  C   UNL     1       2.906   2.633   0.037  0.00  0.00    +0.000 C 
ENDROOT
BRANCH  13  16
ATOM     16  C   UNL     1       5.888   3.953  -1.410  0.00  0.00    +0.000 C 
BRANCH  16  17
ATOM     17  C   UNL     1       5.180   5.280  -1.649  0.00  0.00    +0.000 A 
ATOM     18  C   UNL     1       4.518   5.827  -2.754  0.00  0.00    +0.000 A 
ATOM     19  C   UNL     1       4.272   5.374  -4.154  0.00  0.00    +0.000 C 
ATOM     20  N   UNL     1       4.046   7.050  -2.310  0.00  0.00    +0.000 N 
ATOM     21  C   UNL     1       4.441   7.214  -1.017  0.00  0.00    +0.000 A 
ATOM     22  N   UNL     1       5.159   6.200  -0.610  0.00  0.00    +0.000 NA
ATOM     23  H   UNL     1       3.503   7.725  -2.833  0.00  0.00    +0.000 HD
ENDBRANCH  16  17
ENDBRANCH  13  16
TORSDOF 2
