REMARK  Name = Alpelisib
REMARK  7 active torsions:
REMARK  status: ('A' for Active; 'I' for Inactive)
REMARK    1  A    between atoms: C_1  and  C_2
REMARK    2  A    between atoms: C_3  and  C_18
REMARK    3  A    between atoms: C_13  and  C_14
REMARK    4  A    between atoms: C_20  and  C_24
REMARK    5  A    between atoms: C_24  and  C_25
REMARK    6  A    between atoms: C_24  and  C_26
REMARK    7  A    between atoms: C_24  and  C_27
REMARK                            x       y       z     vdW  Elec       q    Type
REMARK                         _______ _______ _______ _____ _____    ______ ____
ROOT
ATOM      1  C   UNL     1      -2.536  -0.323  -0.003  0.00  0.00    +0.000 C 
ATOM      2  C   UNL     1      -1.056  -0.085   0.013  0.00  0.00    +0.000 A 
ATOM      3  C   UNL     1      -0.085  -1.077   0.059  0.00  0.00    +0.000 A 
ATOM      4  S   UNL     1       1.463  -0.344   0.061  0.00  0.00    +0.000 S 
ATOM      5  C   UNL     1       0.772   1.225   0.044  0.00  0.00    +0.000 A 
ATOM      6  N   UNL     1       1.553   2.387   0.095  0.00  0.00    +0.000 N 
ATOM      7  C   UNL     1       2.926   2.452  -0.031  0.00  0.00    +0.000 C 
ATOM      8  O   UNL     1       3.672   1.483  -0.191  0.00  0.00    +0.000 OA
ATOM      9  N   UNL     1       3.501   3.713   0.016  0.00  0.00    +0.000 N 
ATOM     10  C   UNL     1       3.143   4.822   0.878  0.00  0.00    +0.000 C 
ATOM     11  C   UNL     1       3.581   6.032   0.073  0.00  0.00    +0.000 C 
ATOM     12  C   UNL     1       4.905   5.579  -0.541  0.00  0.00    +0.000 C 
ATOM     13  C   UNL     1       4.771   4.043  -0.688  0.00  0.00    +0.000 C 
ATOM     14  N   UNL     1      -0.550   1.231   0.013  0.00  0.00    +0.000 NA
ATOM     15  H   UNL     1       1.015   3.238   0.019  0.00  0.00    +0.000 HD
ENDROOT
BRANCH   3  16
ATOM     16  C   UNL     1      -0.246  -2.539   0.065  0.00  0.00    +0.000 A 
ATOM     17  C   UNL     1      -0.956  -3.156  -0.969  0.00  0.00    +0.000 A 
ATOM     18  C   UNL     1      -1.196  -4.533  -0.963  0.00  0.00    +0.000 A 
ATOM     19  N   UNL     1      -0.745  -5.304   0.058  0.00  0.00    +0.000 NA
ATOM     20  C   UNL     1      -0.058  -4.697   1.056  0.00  0.00    +0.000 A 
ATOM     21  C   UNL     1       0.216  -3.339   1.103  0.00  0.00    +0.000 A 
BRANCH  18  22
ATOM     22  C   UNL     1      -1.960  -5.244  -2.088  0.00  0.00    +0.000 C 
ATOM     23  C   UNL     1      -1.039  -6.284  -2.754  0.00  0.00    +0.000 C 
ATOM     24  C   UNL     1      -3.193  -5.969  -1.514  0.00  0.00    +0.000 C 
BRANCH  22  25
ATOM     25  C   UNL     1      -2.440  -4.266  -3.167  0.00  0.00    +0.000 C 
ATOM     26  F   UNL     1      -3.280  -3.331  -2.655  0.00  0.00    +0.000 F 
ATOM     27  F   UNL     1      -1.407  -3.607  -3.745  0.00  0.00    +0.000 F 
ATOM     28  F   UNL     1      -3.110  -4.889  -4.162  0.00  0.00    +0.000 F 
ENDBRANCH  22  25
ENDBRANCH  18  22
ENDBRANCH   3  16
BRANCH  13  29
ATOM     29  C   UNL     1       6.078   3.409  -0.157  0.00  0.00    +0.000 C 
ATOM     30  N   UNL     1       5.987   2.686   0.997  0.00  0.00    +0.000 N 
ATOM     31  O   UNL     1       7.174   3.608  -0.680  0.00  0.00    +0.000 OA
ATOM     32  H   UNL     1       5.088   2.265   1.208  0.00  0.00    +0.000 HD
ATOM     33  H   UNL     1       6.802   2.136   1.237  0.00  0.00    +0.000 HD
ENDBRANCH  13  29
TORSDOF 4
