REMARK  Name = alpha-Arbutin
REMARK  8 active torsions:
REMARK  status: ('A' for Active; 'I' for Inactive)
REMARK    1  A    between atoms: O_1  and  C_2
REMARK    2  A    between atoms: C_2  and  C_3
REMARK    3  A    between atoms: C_5  and  O_6
REMARK    4  A    between atoms: O_6  and  C_7
REMARK    5  A    between atoms: C_10  and  O_11
REMARK    6  A    between atoms: C_14  and  O_15
REMARK    7  A    between atoms: C_16  and  O_17
REMARK    8  A    between atoms: C_18  and  O_19
REMARK                            x       y       z     vdW  Elec       q    Type
REMARK                         _______ _______ _______ _____ _____    ______ ____
ROOT
ATOM      1  C   UNL     1       3.110  -0.383  -1.782  0.00  0.00    +0.000 C 
ATOM      2  O   UNL     1       3.209   0.921  -2.332  0.00  0.00    +0.000 OA
ATOM      3  C   UNL     1       1.918   1.597  -2.231  0.00  0.00    +0.000 C 
ATOM      4  C   UNL     1       0.885   0.951  -3.212  0.00  0.00    +0.000 C 
ATOM      5  C   UNL     1       0.618  -0.508  -2.846  0.00  0.00    +0.000 C 
ATOM      6  C   UNL     1       2.026  -1.257  -2.587  0.00  0.00    +0.000 C 
ENDROOT
BRANCH   4   7
ATOM      7  O   UNL     1      -0.317   1.725  -3.258  0.00  0.00    +0.000 OA
ATOM      8  H   UNL     1      -0.631   1.835  -2.341  0.00  0.00    +0.000 HD
ENDBRANCH   4   7
BRANCH   5   9
ATOM      9  O   UNL     1      -0.250  -1.219  -3.731  0.00  0.00    +0.000 OA
ATOM     10  H   UNL     1       0.235  -1.489  -4.517  0.00  0.00    +0.000 HD
ENDBRANCH   5   9
BRANCH   6  11
ATOM     11  O   UNL     1       1.810  -2.550  -1.991  0.00  0.00    +0.000 OA
ATOM     12  H   UNL     1       1.878  -2.495  -1.017  0.00  0.00    +0.000 HD
ENDBRANCH   6  11
BRANCH   1  13
ATOM     13  C   UNL     1       4.387  -1.158  -1.438  0.00  0.00    +0.000 C 
BRANCH  13  14
ATOM     14  O   UNL     1       4.171  -1.750  -0.134  0.00  0.00    +0.000 OA
ATOM     15  H   UNL     1       4.982  -2.209   0.142  0.00  0.00    +0.000 HD
ENDBRANCH  13  14
ENDBRANCH   1  13
BRANCH   3  16
ATOM     16  O   UNL     1       1.422   1.957  -0.868  0.00  0.00    +0.000 OA
BRANCH  16  17
ATOM     17  C   UNL     1       0.934   1.119   0.102  0.00  0.00    +0.000 A 
ATOM     18  C   UNL     1       0.539   1.540   1.358  0.00  0.00    +0.000 A 
ATOM     19  C   UNL     1       0.102   0.574   2.334  0.00  0.00    +0.000 A 
ATOM     20  C   UNL     1       0.032  -0.796   2.069  0.00  0.00    +0.000 A 
ATOM     21  C   UNL     1       0.384  -1.222   0.839  0.00  0.00    +0.000 A 
ATOM     22  C   UNL     1       0.818  -0.236  -0.003  0.00  0.00    +0.000 A 
BRANCH  20  23
ATOM     23  O   UNL     1      -0.323  -1.802   2.891  0.00  0.00    +0.000 OA
ATOM     24  H   UNL     1      -0.592  -1.435   3.741  0.00  0.00    +0.000 HD
ENDBRANCH  20  23
ENDBRANCH  16  17
ENDBRANCH   3  16
TORSDOF 8
