REMARK  Name = alpha-Amyl cinnamaldehyde
REMARK  7 active torsions:
REMARK  status: ('A' for Active; 'I' for Inactive)
REMARK    1  A    between atoms: C_1  and  C_2
REMARK    2  A    between atoms: C_2  and  C_3
REMARK    3  A    between atoms: C_3  and  C_4
REMARK    4  A    between atoms: C_4  and  C_5
REMARK    5  A    between atoms: C_5  and  C_6
REMARK    6  A    between atoms: C_6  and  C_7
REMARK    7  A    between atoms: C_9  and  C_10
REMARK                            x       y       z     vdW  Elec       q    Type
REMARK                         _______ _______ _______ _____ _____    ______ ____
ROOT
ATOM      1  C   UNL     1       6.656   2.354   1.608  0.00  0.00    +0.000 C 
ATOM      2  C   UNL     1       7.353   3.313   2.255  0.00  0.00    +0.000 C 
ENDROOT
BRANCH   2   3
ATOM      3  C   UNL     1       8.814   3.453   2.258  0.00  0.00    +0.000 A 
ATOM      4  C   UNL     1       9.511   3.722   3.438  0.00  0.00    +0.000 A 
ATOM      5  C   UNL     1      10.899   3.883   3.399  0.00  0.00    +0.000 A 
ATOM      6  C   UNL     1      11.600   3.678   2.209  0.00  0.00    +0.000 A 
ATOM      7  C   UNL     1      10.913   3.399   1.035  0.00  0.00    +0.000 A 
ATOM      8  C   UNL     1       9.526   3.354   1.053  0.00  0.00    +0.000 A 
ENDBRANCH   2   3
BRANCH   1   9
ATOM      9  C   UNL     1       7.394   1.238   0.913  0.00  0.00    +0.000 C 
ATOM     10  O   UNL     1       6.902   0.391   0.168  0.00  0.00    +0.000 OA
ENDBRANCH   1   9
BRANCH   1  11
ATOM     11  C   UNL     1       5.144   2.406   1.602  0.00  0.00    +0.000 C 
BRANCH  11  12
ATOM     12  C   UNL     1       4.513   1.275   0.811  0.00  0.00    +0.000 C 
BRANCH  12  13
ATOM     13  C   UNL     1       3.006   1.285   0.814  0.00  0.00    +0.000 C 
BRANCH  13  15
ATOM     14  C   UNL     1       1.008   0.068  -0.022  0.00  0.00    +0.000 C 
ATOM     15  C   UNL     1       2.518   0.093  -0.005  0.00  0.00    +0.000 C 
ENDBRANCH  13  15
ENDBRANCH  12  13
ENDBRANCH  11  12
ENDBRANCH   1  11
TORSDOF 6
