REMARK  Name = alpha-Tocopherol succinate
REMARK  26 active torsions:
REMARK  status: ('A' for Active; 'I' for Inactive)
REMARK    1  A    between atoms: C_2  and  C_3
REMARK    2  A    between atoms: C_2  and  C_4
REMARK    3  A    between atoms: C_2  and  C_10
REMARK    4  A    between atoms: C_4  and  C_5
REMARK    5  A    between atoms: C_5  and  C_6
REMARK    6  A    between atoms: C_6  and  C_7
REMARK    7  A    between atoms: C_7  and  C_8
REMARK    8  A    between atoms: C_7  and  C_9
REMARK    9  A    between atoms: C_10  and  C_11
REMARK   10  A    between atoms: C_11  and  C_12
REMARK   11  A    between atoms: C_12  and  C_13
REMARK   12  A    between atoms: C_13  and  C_15
REMARK   13  A    between atoms: C_13  and  C_16
REMARK   14  A    between atoms: C_16  and  C_17
REMARK   15  A    between atoms: C_17  and  C_18
REMARK   16  A    between atoms: C_18  and  C_19
REMARK   17  A    between atoms: C_19  and  C_20
REMARK   18  A    between atoms: C_24  and  C_25
REMARK   19  A    between atoms: C_26  and  O_27
REMARK   20  A    between atoms: O_27  and  C_28
REMARK   21  A    between atoms: C_28  and  C_30
REMARK   22  A    between atoms: C_30  and  C_31
REMARK   23  A    between atoms: C_31  and  C_32
REMARK   24  A    between atoms: C_32  and  O_33
REMARK   25  A    between atoms: C_35  and  C_36
REMARK   26  A    between atoms: C_37  and  C_38
REMARK                            x       y       z     vdW  Elec       q    Type
REMARK                         _______ _______ _______ _____ _____    ______ ____
ROOT
ATOM      1  C   UNL     1      10.248   0.381  -5.719  0.00  0.00    +0.000 C 
ATOM      2  C   UNL     1      10.673   0.702  -7.164  0.00  0.00    +0.000 C 
ATOM      3  C   UNL     1      10.660  -1.020  -5.276  0.00  0.00    +0.000 C 
ATOM      4  C   UNL     1      12.124  -1.134  -5.452  0.00  0.00    +0.000 C 
ATOM      5  C   UNL     1      12.829   0.061  -4.871  0.00  0.00    +0.000 A 
ATOM      6  C   UNL     1      14.214  -0.042  -4.723  0.00  0.00    +0.000 A 
ATOM      7  C   UNL     1      14.769  -1.338  -5.203  0.00  0.00    +0.000 C 
ATOM      8  C   UNL     1      14.971   1.017  -4.174  0.00  0.00    +0.000 A 
ATOM      9  C   UNL     1      14.302   2.217  -3.789  0.00  0.00    +0.000 A 
ATOM     10  C   UNL     1      15.047   3.392  -3.199  0.00  0.00    +0.000 C 
ATOM     11  C   UNL     1      12.878   2.320  -3.983  0.00  0.00    +0.000 A 
ATOM     12  C   UNL     1      12.100   3.560  -3.596  0.00  0.00    +0.000 C 
ATOM     13  C   UNL     1      12.162   1.242  -4.557  0.00  0.00    +0.000 A 
ATOM     14  O   UNL     1      10.810   1.380  -4.822  0.00  0.00    +0.000 OA
ENDROOT
BRANCH   8  15
ATOM     15  O   UNL     1      16.425   0.929  -3.981  0.00  0.00    +0.000 OA
BRANCH  15  16
ATOM     16  C   UNL     1      17.262  -0.151  -4.273  0.00  0.00    +0.000 C 
ATOM     17  O   UNL     1      16.947  -1.236  -4.753  0.00  0.00    +0.000 OA
BRANCH  16  18
ATOM     18  C   UNL     1      18.709  -0.051  -3.997  0.00  0.00    +0.000 C 
BRANCH  18  19
ATOM     19  C   UNL     1      19.289  -1.430  -4.464  0.00  0.00    +0.000 C 
BRANCH  19  20
ATOM     20  C   UNL     1      20.751  -1.658  -4.315  0.00  0.00    +0.000 C 
ATOM     21  O   UNL     1      21.286  -2.704  -4.654  0.00  0.00    +0.000 OA
BRANCH  20  22
ATOM     22  O   UNL     1      21.443  -0.638  -3.783  0.00  0.00    +0.000 OA
ATOM     23  H   UNL     1      20.928   0.151  -3.545  0.00  0.00    +0.000 HD
ENDBRANCH  20  22
ENDBRANCH  19  20
ENDBRANCH  18  19
ENDBRANCH  16  18
ENDBRANCH  15  16
ENDBRANCH   8  15
BRANCH   1  24
ATOM     24  C   UNL     1       8.713   0.417  -5.692  0.00  0.00    +0.000 C 
BRANCH  24  25
ATOM     25  C   UNL     1       8.178   0.321  -4.281  0.00  0.00    +0.000 C 
BRANCH  25  26
ATOM     26  C   UNL     1       6.665   0.281  -4.273  0.00  0.00    +0.000 C 
BRANCH  26  27
ATOM     27  C   UNL     1       6.156   0.179  -2.839  0.00  0.00    +0.000 C 
ATOM     28  C   UNL     1       6.682  -1.088  -2.141  0.00  0.00    +0.000 C 
BRANCH  27  29
ATOM     29  C   UNL     1       4.627   0.212  -2.878  0.00  0.00    +0.000 C 
BRANCH  29  30
ATOM     30  C   UNL     1       4.094   0.180  -1.470  0.00  0.00    +0.000 C 
BRANCH  30  31
ATOM     31  C   UNL     1       2.580   0.182  -1.412  0.00  0.00    +0.000 C 
BRANCH  31  32
ATOM     32  C   UNL     1       2.099   0.125   0.042  0.00  0.00    +0.000 C 
ATOM     33  C   UNL     1       2.558   1.370   0.813  0.00  0.00    +0.000 C 
BRANCH  32  34
ATOM     34  C   UNL     1       2.591  -1.169   0.714  0.00  0.00    +0.000 C 
BRANCH  34  35
ATOM     35  C   UNL     1       2.088  -1.267   2.134  0.00  0.00    +0.000 C 
BRANCH  35  36
ATOM     36  C   UNL     1       2.583  -2.535   2.805  0.00  0.00    +0.000 C 
BRANCH  36  37
ATOM     37  C   UNL     1       2.072  -2.604   4.246  0.00  0.00    +0.000 C 
ATOM     38  C   UNL     1       0.543  -2.597   4.291  0.00  0.00    +0.000 C 
ATOM     39  C   UNL     1       2.610  -3.862   4.914  0.00  0.00    +0.000 C 
ENDBRANCH  36  37
ENDBRANCH  35  36
ENDBRANCH  34  35
ENDBRANCH  32  34
ENDBRANCH  31  32
ENDBRANCH  30  31
ENDBRANCH  29  30
ENDBRANCH  27  29
ENDBRANCH  26  27
ENDBRANCH  25  26
ENDBRANCH  24  25
ENDBRANCH   1  24
TORSDOF 18
