REMARK  Name = alpha-Linolenic acid
REMARK  15 active torsions:
REMARK  status: ('A' for Active; 'I' for Inactive)
REMARK    1  A    between atoms: C_1  and  C_2
REMARK    2  A    between atoms: C_2  and  C_3
REMARK    3  A    between atoms: C_4  and  C_5
REMARK    4  A    between atoms: C_5  and  C_6
REMARK    5  A    between atoms: C_7  and  C_8
REMARK    6  A    between atoms: C_8  and  C_9
REMARK    7  A    between atoms: C_10  and  C_11
REMARK    8  A    between atoms: C_11  and  C_12
REMARK    9  A    between atoms: C_12  and  C_13
REMARK   10  A    between atoms: C_13  and  C_14
REMARK   11  A    between atoms: C_14  and  C_15
REMARK   12  A    between atoms: C_15  and  C_16
REMARK   13  A    between atoms: C_16  and  C_17
REMARK   14  A    between atoms: C_17  and  C_18
REMARK   15  A    between atoms: C_18  and  O_19
REMARK                            x       y       z     vdW  Elec       q    Type
REMARK                         _______ _______ _______ _____ _____    ______ ____
ROOT
ATOM      1  C   UNL     1       7.730   4.099   0.256  0.00  0.00    +0.000 C 
ENDROOT
BRANCH   1   3
ATOM      2  C   UNL     1       8.963   1.942   0.158  0.00  0.00    +0.000 C 
ATOM      3  C   UNL     1       8.986   3.281   0.219  0.00  0.00    +0.000 C 
BRANCH   2   4
ATOM      4  C   UNL     1       7.675   1.181   0.124  0.00  0.00    +0.000 C 
BRANCH   4   6
ATOM      5  C   UNL     1       6.812  -1.146   0.019  0.00  0.00    +0.000 C 
ATOM      6  C   UNL     1       7.858  -0.304   0.057  0.00  0.00    +0.000 C 
BRANCH   5   7
ATOM      7  C   UNL     1       5.398  -0.651   0.041  0.00  0.00    +0.000 C 
BRANCH   7   9
ATOM      8  C   UNL     1       3.060  -1.483   0.004  0.00  0.00    +0.000 C 
ATOM      9  C   UNL     1       4.377  -1.744  -0.008  0.00  0.00    +0.000 C 
BRANCH   8  11
ATOM     10  C   UNL     1       0.996  -0.070   0.067  0.00  0.00    +0.000 C 
ATOM     11  C   UNL     1       2.511  -0.084   0.067  0.00  0.00    +0.000 C 
ENDBRANCH   8  11
ENDBRANCH   7   9
ENDBRANCH   5   7
ENDBRANCH   4   6
ENDBRANCH   2   4
ENDBRANCH   1   3
BRANCH   1  12
ATOM     12  C   UNL     1       8.033   5.583   0.323  0.00  0.00    +0.000 C 
BRANCH  12  13
ATOM     13  C   UNL     1       6.732   6.370   0.359  0.00  0.00    +0.000 C 
BRANCH  13  14
ATOM     14  C   UNL     1       7.033   7.854   0.426  0.00  0.00    +0.000 C 
BRANCH  14  15
ATOM     15  C   UNL     1       5.741   8.655   0.462  0.00  0.00    +0.000 C 
BRANCH  15  16
ATOM     16  C   UNL     1       6.073  10.135   0.529  0.00  0.00    +0.000 C 
BRANCH  16  17
ATOM     17  C   UNL     1       4.822  10.993   0.568  0.00  0.00    +0.000 C 
BRANCH  17  18
ATOM     18  C   UNL     1       5.066  12.483   0.635  0.00  0.00    +0.000 C 
ATOM     19  O   UNL     1       4.140  13.286   0.671  0.00  0.00    +0.000 OA
BRANCH  18  20
ATOM     20  O   UNL     1       6.346  12.901   0.654  0.00  0.00    +0.000 OA
ATOM     21  H   UNL     1       7.045  12.223   0.623  0.00  0.00    +0.000 HD
ENDBRANCH  18  20
ENDBRANCH  17  18
ENDBRANCH  16  17
ENDBRANCH  15  16
ENDBRANCH  14  15
ENDBRANCH  13  14
ENDBRANCH  12  13
ENDBRANCH   1  12
TORSDOF 14
