REMARK  Name = Alprazolam
REMARK  2 active torsions:
REMARK  status: ('A' for Active; 'I' for Inactive)
REMARK    1  A    between atoms: C_1  and  C_2
REMARK    2  A    between atoms: C_8  and  C_9
REMARK                            x       y       z     vdW  Elec       q    Type
REMARK                         _______ _______ _______ _____ _____    ______ ____
ROOT
ATOM      1  C   UNL     1       0.956   0.043   0.038  0.00  0.00    +0.000 C 
ATOM      2  C   UNL     1       2.439   0.025   0.107  0.00  0.00    +0.000 A 
ATOM      3  N   UNL     1       3.205   1.091  -0.012  0.00  0.00    +0.000 NA
ATOM      4  N   UNL     1       4.511   0.682  -0.046  0.00  0.00    +0.000 NA
ATOM      5  C   UNL     1       4.528  -0.631   0.038  0.00  0.00    +0.000 A 
ATOM      6  C   UNL     1       5.717  -1.515   0.088  0.00  0.00    +0.000 C 
ATOM      7  N   UNL     1       5.703  -2.456  -1.025  0.00  0.00    +0.000 NA
ATOM      8  C   UNL     1       4.749  -3.320  -1.130  0.00  0.00    +0.000 C 
ATOM      9  C   UNL     1       3.618  -3.513  -0.162  0.00  0.00    +0.000 A 
ATOM     10  C   UNL     1       2.877  -2.454   0.391  0.00  0.00    +0.000 A 
ATOM     11  C   UNL     1       1.776  -2.738   1.215  0.00  0.00    +0.000 A 
ATOM     12  C   UNL     1       1.391  -4.052   1.471  0.00  0.00    +0.000 A 
ATOM     13  C   UNL     1       2.125  -5.098   0.931  0.00  0.00    +0.000 A 
ATOM     14 CL   UNL     1       1.668  -6.718   1.276  0.00  0.00    +0.000 Cl
ATOM     15  C   UNL     1       3.232  -4.838   0.125  0.00  0.00    +0.000 A 
ATOM     16  N   UNL     1       3.242  -1.104   0.173  0.00  0.00    +0.000 N 
ENDROOT
BRANCH   8  17
ATOM     17  C   UNL     1       4.767  -4.212  -2.320  0.00  0.00    +0.000 A 
ATOM     18  C   UNL     1       3.656  -4.250  -3.168  0.00  0.00    +0.000 A 
ATOM     19  C   UNL     1       3.577  -5.235  -4.150  0.00  0.00    +0.000 A 
ATOM     20  C   UNL     1       4.644  -6.112  -4.342  0.00  0.00    +0.000 A 
ATOM     21  C   UNL     1       5.801  -5.994  -3.567  0.00  0.00    +0.000 A 
ATOM     22  C   UNL     1       5.854  -5.064  -2.530  0.00  0.00    +0.000 A 
ENDBRANCH   8  17
TORSDOF 1
