REMARK  Name = Alprostadil
REMARK  17 active torsions:
REMARK  status: ('A' for Active; 'I' for Inactive)
REMARK    1  A    between atoms: C_1  and  C_2
REMARK    2  A    between atoms: C_2  and  C_3
REMARK    3  A    between atoms: C_3  and  C_4
REMARK    4  A    between atoms: C_4  and  C_5
REMARK    5  A    between atoms: C_5  and  C_6
REMARK    6  A    between atoms: C_6  and  O_7
REMARK    7  A    between atoms: C_6  and  C_8
REMARK    8  A    between atoms: C_9  and  C_10
REMARK    9  A    between atoms: C_11  and  O_12
REMARK   10  A    between atoms: C_16  and  C_17
REMARK   11  A    between atoms: C_17  and  C_18
REMARK   12  A    between atoms: C_18  and  C_19
REMARK   13  A    between atoms: C_19  and  C_20
REMARK   14  A    between atoms: C_20  and  C_21
REMARK   15  A    between atoms: C_21  and  C_22
REMARK   16  A    between atoms: C_22  and  C_23
REMARK   17  A    between atoms: C_23  and  O_24
REMARK                            x       y       z     vdW  Elec       q    Type
REMARK                         _______ _______ _______ _____ _____    ______ ____
ROOT
ATOM      1  C   UNL     1       8.997  -3.279   5.090  0.00  0.00    +0.000 C 
ATOM      2  C   UNL     1       9.035  -4.800   4.801  0.00  0.00    +0.000 C 
ATOM      3  C   UNL     1       8.540  -5.523   6.056  0.00  0.00    +0.000 C 
ATOM      4  C   UNL     1       8.191  -4.387   6.975  0.00  0.00    +0.000 C 
ATOM      5  O   UNL     1       8.051  -4.502   8.187  0.00  0.00    +0.000 OA
ATOM      6  C   UNL     1       7.965  -3.108   6.219  0.00  0.00    +0.000 C 
ENDROOT
BRANCH   2   7
ATOM      7  O   UNL     1       8.250  -5.129   3.657  0.00  0.00    +0.000 OA
ATOM      8  H   UNL     1       7.327  -4.861   3.783  0.00  0.00    +0.000 HD
ENDBRANCH   2   7
BRANCH   1  10
ATOM      9  C   UNL     1      10.716  -1.461   5.434  0.00  0.00    +0.000 C 
ATOM     10  C   UNL     1      10.354  -2.756   5.477  0.00  0.00    +0.000 C 
BRANCH   9  11
ATOM     11  C   UNL     1      12.114  -1.008   5.747  0.00  0.00    +0.000 C 
BRANCH  11  12
ATOM     12  O   UNL     1      12.162   0.410   5.651  0.00  0.00    +0.000 OA
ATOM     13  H   UNL     1      11.642   0.776   6.385  0.00  0.00    +0.000 HD
ENDBRANCH  11  12
BRANCH  11  14
ATOM     14  C   UNL     1      12.565  -1.455   7.142  0.00  0.00    +0.000 C 
BRANCH  14  15
ATOM     15  C   UNL     1      13.556  -2.613   7.039  0.00  0.00    +0.000 C 
BRANCH  15  16
ATOM     16  C   UNL     1      13.949  -3.103   8.422  0.00  0.00    +0.000 C 
BRANCH  16  18
ATOM     17  C   UNL     1      15.346  -4.725   9.700  0.00  0.00    +0.000 C 
ATOM     18  C   UNL     1      14.948  -4.247   8.318  0.00  0.00    +0.000 C 
ENDBRANCH  16  18
ENDBRANCH  15  16
ENDBRANCH  14  15
ENDBRANCH  11  14
ENDBRANCH   9  11
ENDBRANCH   1  10
BRANCH   6  19
ATOM     19  C   UNL     1       6.524  -3.080   5.705  0.00  0.00    +0.000 C 
BRANCH  19  20
ATOM     20  C   UNL     1       6.288  -1.845   4.848  0.00  0.00    +0.000 C 
BRANCH  20  21
ATOM     21  C   UNL     1       4.891  -1.847   4.269  0.00  0.00    +0.000 C 
BRANCH  21  22
ATOM     22  C   UNL     1       4.693  -0.600   3.420  0.00  0.00    +0.000 C 
BRANCH  22  23
ATOM     23  C   UNL     1       3.286  -0.604   2.855  0.00  0.00    +0.000 C 
BRANCH  23  24
ATOM     24  C   UNL     1       3.016   0.624   2.005  0.00  0.00    +0.000 C 
BRANCH  24  25
ATOM     25  C   UNL     1       1.630   0.694   1.409  0.00  0.00    +0.000 C 
ATOM     26  O   UNL     1       1.279   1.636   0.702  0.00  0.00    +0.000 OA
BRANCH  25  27
ATOM     27  O   UNL     1       0.785  -0.317   1.681  0.00  0.00    +0.000 OA
ATOM     28  H   UNL     1       1.109  -1.040   2.247  0.00  0.00    +0.000 HD
ENDBRANCH  25  27
ENDBRANCH  24  25
ENDBRANCH  23  24
ENDBRANCH  22  23
ENDBRANCH  21  22
ENDBRANCH  20  21
ENDBRANCH  19  20
ENDBRANCH   6  19
TORSDOF 16
