REMARK  Name = Altretamine
REMARK  6 active torsions:
REMARK  status: ('A' for Active; 'I' for Inactive)
REMARK    1  A    between atoms: C_1  and  N_2
REMARK    2  A    between atoms: N_2  and  C_3
REMARK    3  A    between atoms: N_10  and  C_11
REMARK    4  A    between atoms: N_10  and  C_12
REMARK    5  A    between atoms: N_13  and  C_14
REMARK    6  A    between atoms: N_13  and  C_15
REMARK                            x       y       z     vdW  Elec       q    Type
REMARK                         _______ _______ _______ _____ _____    ______ ____
ROOT
ATOM      1  C   UNL     1       1.043   0.123   0.082  0.00  0.00    +0.000 C 
ATOM      2  N   UNL     1       2.486   0.068   0.115  0.00  0.00    +0.000 N 
ATOM      3  C   UNL     1       3.213  -0.774  -0.807  0.00  0.00    +0.000 C 
ATOM      4  C   UNL     1       3.165   1.043   0.820  0.00  0.00    +0.000 A 
ATOM      5  N   UNL     1       2.793   1.303   2.070  0.00  0.00    +0.000 NA
ATOM      6  C   UNL     1       3.517   2.190   2.746  0.00  0.00    +0.000 A 
ATOM      7  N   UNL     1       4.510   2.873   2.182  0.00  0.00    +0.000 NA
ATOM      8  C   UNL     1       4.791   2.619   0.910  0.00  0.00    +0.000 A 
ATOM      9  N   UNL     1       4.170   1.671   0.221  0.00  0.00    +0.000 NA
ATOM     10  N   UNL     1       5.769   3.366   0.281  0.00  0.00    +0.000 N 
ATOM     11  C   UNL     1       6.492   4.405   0.985  0.00  0.00    +0.000 C 
ATOM     12  C   UNL     1       6.024   3.198  -1.136  0.00  0.00    +0.000 C 
ATOM     13  N   UNL     1       3.238   2.424   4.079  0.00  0.00    +0.000 N 
ATOM     14  C   UNL     1       3.979   3.412   4.842  0.00  0.00    +0.000 C 
ATOM     15  C   UNL     1       2.158   1.730   4.750  0.00  0.00    +0.000 C 
ENDROOT
TORSDOF 0
