REMARK  Name = Alvimopan
REMARK  12 active torsions:
REMARK  status: ('A' for Active; 'I' for Inactive)
REMARK    1  A    between atoms: C_1  and  C_2
REMARK    2  A    between atoms: N_4  and  C_5
REMARK    3  A    between atoms: C_5  and  C_6
REMARK    4  A    between atoms: C_6  and  C_7
REMARK    5  A    between atoms: C_6  and  C_14
REMARK    6  A    between atoms: C_7  and  C_8
REMARK    7  A    between atoms: N_16  and  C_17
REMARK    8  A    between atoms: C_17  and  C_18
REMARK    9  A    between atoms: C_18  and  O_19
REMARK   10  A    between atoms: C_23  and  C_24
REMARK   11  A    between atoms: C_23  and  C_25
REMARK   12  A    between atoms: C_27  and  O_28
REMARK                            x       y       z     vdW  Elec       q    Type
REMARK                         _______ _______ _______ _____ _____    ______ ____
ROOT
ATOM      1  C   UNL     1       3.077   3.416  -1.673  0.00  0.00    +0.000 C 
ENDROOT
BRANCH   1   5
ATOM      2  C   UNL     1      -1.732   3.093  -0.296  0.00  0.00    +0.000 C 
ATOM      3  C   UNL     1      -0.295   2.698   0.052  0.00  0.00    +0.000 C 
ATOM      4  C   UNL     1       0.672   3.301  -0.980  0.00  0.00    +0.000 C 
ATOM      5  N   UNL     1       2.096   3.021  -0.671  0.00  0.00    +0.000 NA
ATOM      6  C   UNL     1       2.599   3.101   0.705  0.00  0.00    +0.000 C 
ATOM      7  C   UNL     1       1.601   2.571   1.725  0.00  0.00    +0.000 C 
ATOM      8  C   UNL     1       0.151   3.061   1.482  0.00  0.00    +0.000 C 
ATOM      9  C   UNL     1      -0.725   2.266   2.489  0.00  0.00    +0.000 C 
BRANCH   8  10
ATOM     10  C   UNL     1       0.096   4.589   1.669  0.00  0.00    +0.000 A 
ATOM     11  C   UNL     1       0.891   5.488   0.918  0.00  0.00    +0.000 A 
ATOM     12  C   UNL     1       0.946   6.841   1.141  0.00  0.00    +0.000 A 
ATOM     13  C   UNL     1       0.108   7.377   2.081  0.00  0.00    +0.000 A 
ATOM     14  C   UNL     1      -0.731   6.535   2.816  0.00  0.00    +0.000 A 
ATOM     15  C   UNL     1      -0.739   5.157   2.616  0.00  0.00    +0.000 A 
BRANCH  12  16
ATOM     16  O   UNL     1       1.838   7.608   0.457  0.00  0.00    +0.000 OA
ATOM     17  H   UNL     1       2.529   7.031   0.084  0.00  0.00    +0.000 HD
ENDBRANCH  12  16
ENDBRANCH   8  10
ENDBRANCH   1   5
BRANCH   1  18
ATOM     18  C   UNL     1       2.716   2.934  -3.098  0.00  0.00    +0.000 C 
BRANCH  18  19
ATOM     19  C   UNL     1       3.313   3.913  -4.111  0.00  0.00    +0.000 C 
ATOM     20  O   UNL     1       4.057   3.569  -5.028  0.00  0.00    +0.000 OA
ATOM     21  N   UNL     1       2.897   5.227  -3.948  0.00  0.00    +0.000 N 
ATOM     22  H   UNL     1       2.210   5.413  -3.237  0.00  0.00    +0.000 HD
BRANCH  21  23
ATOM     23  C   UNL     1       3.361   6.269  -4.860  0.00  0.00    +0.000 C 
BRANCH  23  24
ATOM     24  C   UNL     1       2.909   7.709  -4.621  0.00  0.00    +0.000 C 
ATOM     25  O   UNL     1       3.271   8.643  -5.343  0.00  0.00    +0.000 OA
BRANCH  24  26
ATOM     26  O   UNL     1       2.090   7.936  -3.578  0.00  0.00    +0.000 OA
ATOM     27  H   UNL     1       1.805   7.177  -3.048  0.00  0.00    +0.000 HD
ENDBRANCH  24  26
ENDBRANCH  23  24
ENDBRANCH  21  23
ENDBRANCH  18  19
BRANCH  18  28
ATOM     28  C   UNL     1       3.139   1.455  -3.379  0.00  0.00    +0.000 C 
BRANCH  28  29
ATOM     29  C   UNL     1       2.666   0.308  -2.492  0.00  0.00    +0.000 A 
ATOM     30  C   UNL     1       1.739   0.452  -1.483  0.00  0.00    +0.000 A 
ATOM     31  C   UNL     1       1.582  -0.388  -0.390  0.00  0.00    +0.000 A 
ATOM     32  C   UNL     1       2.135  -1.629  -0.468  0.00  0.00    +0.000 A 
ATOM     33  C   UNL     1       2.854  -1.948  -1.618  0.00  0.00    +0.000 A 
ATOM     34  C   UNL     1       3.150  -0.981  -2.605  0.00  0.00    +0.000 A 
ENDBRANCH  28  29
ENDBRANCH  18  28
ENDBRANCH   1  18
TORSDOF 10
