REMARK  Name = Ambenonium
REMARK  19 active torsions:
REMARK  status: ('A' for Active; 'I' for Inactive)
REMARK    1  A    between atoms: C_1  and  C_2
REMARK    2  A    between atoms: C_2  and  N_3
REMARK    3  A    between atoms: N_3  and  C_4
REMARK    4  A    between atoms: N_3  and  C_6
REMARK    5  A    between atoms: N_3  and  C_29
REMARK    6  A    between atoms: C_4  and  C_5
REMARK    7  A    between atoms: C_6  and  C_7
REMARK    8  A    between atoms: C_7  and  N_8
REMARK    9  A    between atoms: C_9  and  C_11
REMARK   10  A    between atoms: N_13  and  C_14
REMARK   11  A    between atoms: C_14  and  C_15
REMARK   12  A    between atoms: C_15  and  N_16
REMARK   13  A    between atoms: N_16  and  C_17
REMARK   14  A    between atoms: N_16  and  C_19
REMARK   15  A    between atoms: N_16  and  C_21
REMARK   16  A    between atoms: C_17  and  C_18
REMARK   17  A    between atoms: C_19  and  C_20
REMARK   18  A    between atoms: C_21  and  C_22
REMARK   19  A    between atoms: C_29  and  C_30
REMARK                            x       y       z     vdW  Elec       q    Type
REMARK                         _______ _______ _______ _____ _____    ______ ____
ROOT
ATOM      1  N   UNL     1       0.410  -1.833   3.578  0.00  0.00    +0.000 N 
ATOM      2  C   UNL     1      -0.967  -2.003   3.511  0.00  0.00    +0.000 C 
ATOM      3  O   UNL     1      -1.747  -1.330   2.870  0.00  0.00    +0.000 OA
ATOM      4  H   UNL     1       0.944  -2.612   3.961  0.00  0.00    +0.000 HD
ENDROOT
BRANCH   2   5
ATOM      5  C   UNL     1      -1.479  -3.194   4.296  0.00  0.00    +0.000 C 
ATOM      6  O   UNL     1      -0.706  -3.877   4.932  0.00  0.00    +0.000 OA
ATOM      7  N   UNL     1      -2.862  -3.334   4.231  0.00  0.00    +0.000 N 
ATOM      8  H   UNL     1      -3.383  -2.559   3.829  0.00  0.00    +0.000 HD
BRANCH   7   9
ATOM      9  C   UNL     1      -3.403  -4.216   5.200  0.00  0.00    +0.000 C 
BRANCH   9  10
ATOM     10  C   UNL     1      -4.924  -4.262   5.405  0.00  0.00    +0.000 C 
BRANCH  10  11
ATOM     11  N   UNL     1      -5.334  -5.440   6.343  0.00  0.00    +0.000 N 
BRANCH  11  12
ATOM     12  C   UNL     1      -4.761  -6.746   5.775  0.00  0.00    +0.000 C 
ATOM     13  C   UNL     1      -5.223  -6.970   4.332  0.00  0.00    +0.000 C 
ENDBRANCH  11  12
BRANCH  11  14
ATOM     14  C   UNL     1      -4.878  -5.189   7.819  0.00  0.00    +0.000 C 
ATOM     15  C   UNL     1      -3.380  -5.275   8.076  0.00  0.00    +0.000 C 
ENDBRANCH  11  14
BRANCH  11  16
ATOM     16  C   UNL     1      -6.934  -5.575   6.381  0.00  0.00    +0.000 C 
BRANCH  16  17
ATOM     17  C   UNL     1      -7.476  -6.711   7.249  0.00  0.00    +0.000 A 
ATOM     18  C   UNL     1      -8.127  -6.350   8.446  0.00  0.00    +0.000 A 
ATOM     19  C   UNL     1      -8.458  -7.316   9.404  0.00  0.00    +0.000 A 
ATOM     20  C   UNL     1      -8.073  -8.639   9.235  0.00  0.00    +0.000 A 
ATOM     21  C   UNL     1      -7.455  -9.020   8.066  0.00  0.00    +0.000 A 
ATOM     22  C   UNL     1      -7.295  -8.101   7.035  0.00  0.00    +0.000 A 
ATOM     23 CL   UNL     1      -6.992  -8.922   5.549  0.00  0.00    +0.000 Cl
ENDBRANCH  16  17
ENDBRANCH  11  16
ENDBRANCH  10  11
ENDBRANCH   9  10
ENDBRANCH   7   9
ENDBRANCH   2   5
BRANCH   1  24
ATOM     24  C   UNL     1       0.927  -0.929   2.606  0.00  0.00    +0.000 C 
BRANCH  24  25
ATOM     25  C   UNL     1       2.436  -0.847   2.442  0.00  0.00    +0.000 C 
BRANCH  25  26
ATOM     26  N   UNL     1       2.907   0.252   1.437  0.00  0.00    +0.000 N 
BRANCH  26  28
ATOM     27  C   UNL     1       0.973   0.035  -0.287  0.00  0.00    +0.000 C 
ATOM     28  C   UNL     1       2.477  -0.086  -0.026  0.00  0.00    +0.000 C 
ENDBRANCH  26  28
BRANCH  26  29
ATOM     29  C   UNL     1       2.388   1.646   1.835  0.00  0.00    +0.000 C 
ATOM     30  C   UNL     1       2.792   2.708   0.819  0.00  0.00    +0.000 C 
ENDBRANCH  26  29
BRANCH  26  31
ATOM     31  C   UNL     1       4.505   0.283   1.509  0.00  0.00    +0.000 C 
BRANCH  31  32
ATOM     32  C   UNL     1       5.090   0.594   2.880  0.00  0.00    +0.000 A 
ATOM     33  C   UNL     1       5.448  -0.502   3.694  0.00  0.00    +0.000 A 
ATOM     34  C   UNL     1       5.855  -0.316   5.018  0.00  0.00    +0.000 A 
ATOM     35  C   UNL     1       5.889   0.958   5.569  0.00  0.00    +0.000 A 
ATOM     36  C   UNL     1       5.556   2.050   4.790  0.00  0.00    +0.000 A 
ATOM     37  C   UNL     1       5.228   1.883   3.447  0.00  0.00    +0.000 A 
ATOM     38 CL   UNL     1       5.072   3.389   2.631  0.00  0.00    +0.000 Cl
ENDBRANCH  31  32
ENDBRANCH  26  31
ENDBRANCH  25  26
ENDBRANCH  24  25
ENDBRANCH   1  24
TORSDOF 15
