REMARK  Name = Ambroxol
REMARK  5 active torsions:
REMARK  status: ('A' for Active; 'I' for Inactive)
REMARK    1  A    between atoms: N_1  and  C_2
REMARK    2  A    between atoms: C_9  and  C_10
REMARK    3  A    between atoms: C_10  and  N_11
REMARK    4  A    between atoms: N_11  and  C_12
REMARK    5  A    between atoms: C_15  and  O_16
REMARK                            x       y       z     vdW  Elec       q    Type
REMARK                         _______ _______ _______ _____ _____    ______ ____
ROOT
ATOM      1  C   UNL     1      -1.212  -1.591   0.053  0.00  0.00    +0.000 A 
ATOM      2  C   UNL     1      -1.098  -0.182   0.017  0.00  0.00    +0.000 A 
ATOM      3 BR   UNL     1      -2.651   0.916  -0.009  0.00  0.00    +0.000 Br
ATOM      4  C   UNL     1       0.147   0.446  -0.009  0.00  0.00    +0.000 A 
ATOM      5  C   UNL     1       1.301  -0.322  -0.007  0.00  0.00    +0.000 A 
ATOM      6 BR   UNL     1       2.996   0.518  -0.036  0.00  0.00    +0.000 Br
ATOM      7  C   UNL     1       1.224  -1.717   0.050  0.00  0.00    +0.000 A 
ATOM      8  C   UNL     1      -0.026  -2.357   0.150  0.00  0.00    +0.000 A 
ENDROOT
BRANCH   1   9
ATOM      9  N   UNL     1      -2.473  -2.199   0.219  0.00  0.00    +0.000 N 
ATOM     10  H   UNL     1      -3.258  -1.627  -0.076  0.00  0.00    +0.000 HD
ATOM     11  H   UNL     1      -2.559  -3.167  -0.081  0.00  0.00    +0.000 HD
ENDBRANCH   1   9
BRANCH   8  12
ATOM     12  C   UNL     1      -0.149  -3.864   0.294  0.00  0.00    +0.000 C 
BRANCH  12  13
ATOM     13  N   UNL     1       1.080  -4.591   0.529  0.00  0.00    +0.000 NA
ATOM     14  H   UNL     1       1.716  -4.248   1.238  0.00  0.00    +0.000 HD
BRANCH  13  15
ATOM     15  C   UNL     1       1.350  -5.856  -0.126  0.00  0.00    +0.000 C 
ATOM     16  C   UNL     1       0.799  -7.162   0.500  0.00  0.00    +0.000 C 
ATOM     17  C   UNL     1       1.222  -8.361  -0.380  0.00  0.00    +0.000 C 
ATOM     18  C   UNL     1       0.743  -8.199  -1.826  0.00  0.00    +0.000 C 
ATOM     19  C   UNL     1       1.271  -6.908  -2.435  0.00  0.00    +0.000 C 
ATOM     20  C   UNL     1       0.875  -5.741  -1.578  0.00  0.00    +0.000 C 
BRANCH  18  21
ATOM     21  O   UNL     1       1.177  -9.290  -2.624  0.00  0.00    +0.000 OA
ATOM     22  H   UNL     1       2.105  -9.129  -2.869  0.00  0.00    +0.000 HD
ENDBRANCH  18  21
ENDBRANCH  13  15
ENDBRANCH  12  13
ENDBRANCH   8  12
TORSDOF 5
