REMARK  Name = Ambrisentan
REMARK  11 active torsions:
REMARK  status: ('A' for Active; 'I' for Inactive)
REMARK    1  A    between atoms: C_1  and  O_2
REMARK    2  A    between atoms: O_2  and  C_3
REMARK    3  A    between atoms: C_3  and  C_4
REMARK    4  A    between atoms: C_3  and  C_17
REMARK    5  A    between atoms: C_3  and  C_23
REMARK    6  A    between atoms: C_4  and  O_5
REMARK    7  A    between atoms: C_4  and  C_14
REMARK    8  A    between atoms: O_5  and  C_6
REMARK    9  A    between atoms: C_8  and  C_9
REMARK   10  A    between atoms: C_11  and  C_12
REMARK   11  A    between atoms: C_14  and  O_15
REMARK                            x       y       z     vdW  Elec       q    Type
REMARK                         _______ _______ _______ _____ _____    ______ ____
ROOT
ATOM      1  C   UNL     1       2.925  -1.892   3.151  0.00  0.00    +0.000 C 
ENDROOT
BRANCH   1   2
ATOM      2  C   UNL     1       4.237  -2.449   2.500  0.00  0.00    +0.000 A 
ATOM      3  C   UNL     1       5.524  -1.968   2.767  0.00  0.00    +0.000 A 
ATOM      4  C   UNL     1       6.609  -2.209   1.937  0.00  0.00    +0.000 A 
ATOM      5  C   UNL     1       6.497  -3.161   0.949  0.00  0.00    +0.000 A 
ATOM      6  C   UNL     1       5.278  -3.795   0.746  0.00  0.00    +0.000 A 
ATOM      7  C   UNL     1       4.155  -3.417   1.482  0.00  0.00    +0.000 A 
ENDBRANCH   1   2
BRANCH   1   8
ATOM      8  C   UNL     1       1.934  -3.135   3.337  0.00  0.00    +0.000 A 
ATOM      9  C   UNL     1       0.771  -3.350   2.563  0.00  0.00    +0.000 A 
ATOM     10  C   UNL     1      -0.082  -4.442   2.756  0.00  0.00    +0.000 A 
ATOM     11  C   UNL     1       0.254  -5.421   3.674  0.00  0.00    +0.000 A 
ATOM     12  C   UNL     1       1.428  -5.287   4.410  0.00  0.00    +0.000 A 
ATOM     13  C   UNL     1       2.252  -4.159   4.252  0.00  0.00    +0.000 A 
ENDBRANCH   1   8
BRANCH   1  15
ATOM     14  C   UNL     1       3.909  -0.274   4.809  0.00  0.00    +0.000 C 
ATOM     15  O   UNL     1       3.124  -1.422   4.513  0.00  0.00    +0.000 OA
ENDBRANCH   1  15
BRANCH   1  16
ATOM     16  C   UNL     1       2.246  -0.805   2.195  0.00  0.00    +0.000 C 
BRANCH  16  17
ATOM     17  C   UNL     1       2.408   0.660   2.535  0.00  0.00    +0.000 C 
ATOM     18  O   UNL     1       1.730   1.242   3.387  0.00  0.00    +0.000 OA
BRANCH  17  19
ATOM     19  O   UNL     1       3.383   1.314   1.855  0.00  0.00    +0.000 OA
ATOM     20  H   UNL     1       3.769   0.750   1.149  0.00  0.00    +0.000 HD
ENDBRANCH  17  19
ENDBRANCH  16  17
BRANCH  16  21
ATOM     21  O   UNL     1       2.766  -0.899   0.855  0.00  0.00    +0.000 OA
BRANCH  21  22
ATOM     22  C   UNL     1       1.859  -1.154  -0.134  0.00  0.00    +0.000 A 
ATOM     23  N   UNL     1       0.554  -1.086   0.133  0.00  0.00    +0.000 NA
ATOM     24  C   UNL     1      -0.288  -1.314  -0.887  0.00  0.00    +0.000 A 
ATOM     25  C   UNL     1      -1.749  -1.289  -0.561  0.00  0.00    +0.000 C 
ATOM     26  C   UNL     1       0.166  -1.539  -2.170  0.00  0.00    +0.000 A 
ATOM     27  C   UNL     1       1.538  -1.558  -2.347  0.00  0.00    +0.000 A 
ATOM     28  C   UNL     1       2.150  -1.733  -3.701  0.00  0.00    +0.000 C 
ATOM     29  N   UNL     1       2.400  -1.382  -1.329  0.00  0.00    +0.000 NA
ENDBRANCH  21  22
ENDBRANCH  16  21
ENDBRANCH   1  16
TORSDOF 8
