REMARK  Name = Amcinonide
REMARK  8 active torsions:
REMARK  status: ('A' for Active; 'I' for Inactive)
REMARK    1  A    between atoms: C_12  and  C_13
REMARK    2  A    between atoms: C_13  and  C_15
REMARK    3  A    between atoms: C_15  and  O_16
REMARK    4  A    between atoms: O_16  and  C_17
REMARK    5  A    between atoms: C_17  and  C_18
REMARK    6  A    between atoms: C_20  and  C_21
REMARK    7  A    between atoms: C_23  and  O_24
REMARK    8  A    between atoms: C_37  and  C_38
REMARK                            x       y       z     vdW  Elec       q    Type
REMARK                         _______ _______ _______ _____ _____    ______ ____
ROOT
ATOM      1  C   UNL     1       3.837  -0.364  -0.549  0.00  0.00    +0.000 C 
ATOM      2  C   UNL     1       3.292   1.030  -0.048  0.00  0.00    +0.000 C 
ATOM      3  C   UNL     1       3.881   1.712  -1.190  0.00  0.00    +0.000 C 
ATOM      4  O   UNL     1       4.767   2.647  -0.568  0.00  0.00    +0.000 OA
ATOM      5  C   UNL     1       5.597   2.911  -1.661  0.00  0.00    +0.000 C 
ATOM      6  C   UNL     1       6.615   3.950  -1.237  0.00  0.00    +0.000 C 
ATOM      7  C   UNL     1       6.229   5.192  -2.030  0.00  0.00    +0.000 C 
ATOM      8  C   UNL     1       5.092   4.876  -2.969  0.00  0.00    +0.000 C 
ATOM      9  C   UNL     1       4.761   3.458  -2.803  0.00  0.00    +0.000 C 
ATOM     10  O   UNL     1       6.060   1.674  -2.214  0.00  0.00    +0.000 OA
ATOM     11  C   UNL     1       4.917   0.793  -2.302  0.00  0.00    +0.000 C 
ATOM     12  C   UNL     1       5.396  -0.458  -1.623  0.00  0.00    +0.000 C 
ATOM     13  C   UNL     1       7.129  -0.537  -2.041  0.00  0.00    +0.000 C 
ATOM     14  C   UNL     1       5.404  -2.220  -2.070  0.00  0.00    +0.000 C 
ATOM     15  C   UNL     1       5.678  -2.917  -0.780  0.00  0.00    +0.000 C 
ATOM     16  C   UNL     1       5.123  -2.418   0.513  0.00  0.00    +0.000 C 
ATOM     17  F   UNL     1       3.823  -2.817  -0.300  0.00  0.00    +0.000 F 
ATOM     18  C   UNL     1       3.968  -1.259   0.671  0.00  0.00    +0.000 C 
ATOM     19  C   UNL     1       4.533  -0.475   1.693  0.00  0.00    +0.000 C 
ATOM     20  C   UNL     1       5.400  -1.365   2.491  0.00  0.00    +0.000 C 
ATOM     21  C   UNL     1       6.554  -0.625   2.061  0.00  0.00    +0.000 C 
ATOM     22  C   UNL     1       6.678   0.753   1.880  0.00  0.00    +0.000 C 
ATOM     23  C   UNL     1       7.956   1.314   2.056  0.00  0.00    +0.000 C 
ATOM     24  O   UNL     1       8.112   2.514   2.478  0.00  0.00    +0.000 OA
ATOM     25  C   UNL     1       8.967   0.329   1.871  0.00  0.00    +0.000 C 
ATOM     26  C   UNL     1       8.558  -0.884   1.356  0.00  0.00    +0.000 C 
ATOM     27  C   UNL     1       6.918  -1.465   0.714  0.00  0.00    +0.000 C 
ATOM     28  C   UNL     1       7.807  -2.837   0.659  0.00  0.00    +0.000 C 
ENDROOT
BRANCH  11  29
ATOM     29  C   UNL     1       4.302  -0.152  -3.479  0.00  0.00    +0.000 C 
ATOM     30  O   UNL     1       3.079  -0.361  -3.430  0.00  0.00    +0.000 OA
BRANCH  29  31
ATOM     31  C   UNL     1       5.234  -1.202  -4.424  0.00  0.00    +0.000 C 
BRANCH  31  32
ATOM     32  O   UNL     1       4.418  -2.327  -4.905  0.00  0.00    +0.000 OA
BRANCH  32  33
ATOM     33  C   UNL     1       4.808  -3.603  -5.185  0.00  0.00    +0.000 C 
ATOM     34  C   UNL     1       6.269  -3.924  -5.359  0.00  0.00    +0.000 C 
ATOM     35  O   UNL     1       3.967  -4.468  -5.433  0.00  0.00    +0.000 OA
ENDBRANCH  32  33
ENDBRANCH  31  32
ENDBRANCH  29  31
ENDBRANCH  11  29
BRANCH  15  36
ATOM     36  O   UNL     1       5.172  -4.244  -0.898  0.00  0.00    +0.000 OA
ATOM     37  H   UNL     1       4.265  -4.188  -1.272  0.00  0.00    +0.000 HD
ENDBRANCH  15  36
TORSDOF 5
