REMARK  Name = Amifampridine
REMARK  2 active torsions:
REMARK  status: ('A' for Active; 'I' for Inactive)
REMARK    1  A    between atoms: N_1  and  C_2
REMARK    2  A    between atoms: C_7  and  N_8
REMARK                            x       y       z     vdW  Elec       q    Type
REMARK                         _______ _______ _______ _____ _____    ______ ____
ROOT
ATOM      1  C   UNL     1       2.501   0.000  -0.073  0.00  0.00    +0.000 A 
ATOM      2  C   UNL     1       3.215   1.203  -0.050  0.00  0.00    +0.000 A 
ATOM      3  C   UNL     1       4.593   1.171  -0.203  0.00  0.00    +0.000 A 
ATOM      4  N   UNL     1       5.311   0.036  -0.263  0.00  0.00    +0.000 NA
ATOM      5  C   UNL     1       4.608  -1.119  -0.176  0.00  0.00    +0.000 A 
ATOM      6  C   UNL     1       3.213  -1.211  -0.144  0.00  0.00    +0.000 A 
ENDROOT
BRANCH   1   7
ATOM      7  N   UNL     1       1.117   0.026   0.194  0.00  0.00    +0.000 N 
ATOM      8  H   UNL     1       0.655   0.892  -0.056  0.00  0.00    +0.000 HD
ATOM      9  H   UNL     1       0.617  -0.791  -0.129  0.00  0.00    +0.000 HD
ENDBRANCH   1   7
BRANCH   6  10
ATOM     10  N   UNL     1       2.580  -2.455   0.045  0.00  0.00    +0.000 N 
ATOM     11  H   UNL     1       3.101  -3.247  -0.315  0.00  0.00    +0.000 HD
ATOM     12  H   UNL     1       1.610  -2.468  -0.240  0.00  0.00    +0.000 HD
ENDBRANCH   6  10
TORSDOF 2
