REMARK  Name = Amifostine
REMARK  10 active torsions:
REMARK  status: ('A' for Active; 'I' for Inactive)
REMARK    1  A    between atoms: N_1  and  C_2
REMARK    2  A    between atoms: C_2  and  C_3
REMARK    3  A    between atoms: C_3  and  C_4
REMARK    4  A    between atoms: C_4  and  N_5
REMARK    5  A    between atoms: N_5  and  C_6
REMARK    6  A    between atoms: C_6  and  C_7
REMARK    7  A    between atoms: C_7  and  S_8
REMARK    8  A    between atoms: S_8  and  P_9
REMARK    9  A    between atoms: P_9  and  O_10
REMARK   10  A    between atoms: P_9  and  O_11
REMARK                            x       y       z     vdW  Elec       q    Type
REMARK                         _______ _______ _______ _____ _____    ______ ____
ROOT
ATOM      1  C   UNL     1       6.423  -0.027  -2.781  0.00  0.00    +0.000 C 
ENDROOT
BRANCH   1   2
ATOM      2  N   UNL     1       4.959  -0.028  -2.754  0.00  0.00    +0.000 NA
ATOM      3  H   UNL     1       4.600   0.807  -3.219  0.00  0.00    +0.000 HD
BRANCH   2   4
ATOM      4  C   UNL     1       4.471  -0.047  -1.372  0.00  0.00    +0.000 C 
BRANCH   4   5
ATOM      5  C   UNL     1       2.943  -0.047  -1.361  0.00  0.00    +0.000 C 
BRANCH   5   6
ATOM      6  C   UNL     1       2.417  -0.065   0.072  0.00  0.00    +0.000 C 
BRANCH   6   7
ATOM      7  N   UNL     1       0.960  -0.050   0.077  0.00  0.00    +0.000 NA
ATOM      8  H   UNL     1       0.622  -0.105   1.037  0.00  0.00    +0.000 HD
ATOM      9  H   UNL     1       0.608  -0.882  -0.397  0.00  0.00    +0.000 HD
ENDBRANCH   6   7
ENDBRANCH   5   6
ENDBRANCH   4   5
ENDBRANCH   2   4
ENDBRANCH   1   2
BRANCH   1  10
ATOM     10  C   UNL     1       6.942  -0.017  -4.225  0.00  0.00    +0.000 C 
BRANCH  10  11
ATOM     11  S   UNL     1       8.745  -0.014  -4.181  0.00  0.00    +0.000 S 
BRANCH  11  12
ATOM     12  P   UNL     1       9.452   0.010  -6.180  0.00  0.00    +0.000 P 
ATOM     13  O   UNL     1       9.968   0.027  -7.639  0.00  0.00    +0.000 OA
BRANCH  12  14
ATOM     14  O   UNL     1      10.228   1.395  -5.755  0.00  0.00    +0.000 OA
ATOM     15  H   UNL     1       9.962   1.719  -4.883  0.00  0.00    +0.000 HD
ENDBRANCH  12  14
BRANCH  12  16
ATOM     16  O   UNL     1      10.582  -1.063  -5.659  0.00  0.00    +0.000 OA
ATOM     17  H   UNL     1      10.370  -1.428  -4.786  0.00  0.00    +0.000 HD
ENDBRANCH  12  16
ENDBRANCH  11  12
ENDBRANCH  10  11
ENDBRANCH   1  10
TORSDOF 10
