REMARK  Name = Amikacin
REMARK  22 active torsions:
REMARK  status: ('A' for Active; 'I' for Inactive)
REMARK    1  A    between atoms: N_1  and  C_2
REMARK    2  A    between atoms: C_2  and  C_3
REMARK    3  A    between atoms: C_3  and  C_4
REMARK    4  A    between atoms: C_4  and  O_5
REMARK    5  A    between atoms: C_4  and  C_6
REMARK    6  A    between atoms: N_8  and  C_9
REMARK    7  A    between atoms: C_11  and  N_12
REMARK    8  A    between atoms: C_13  and  O_14
REMARK    9  A    between atoms: O_14  and  C_15
REMARK   10  A    between atoms: C_17  and  C_18
REMARK   11  A    between atoms: C_18  and  N_19
REMARK   12  A    between atoms: C_20  and  O_21
REMARK   13  A    between atoms: C_22  and  O_23
REMARK   14  A    between atoms: C_24  and  O_25
REMARK   15  A    between atoms: C_26  and  O_27
REMARK   16  A    between atoms: C_28  and  O_29
REMARK   17  A    between atoms: O_29  and  C_30
REMARK   18  A    between atoms: C_32  and  C_33
REMARK   19  A    between atoms: C_33  and  O_34
REMARK   20  A    between atoms: C_35  and  O_36
REMARK   21  A    between atoms: C_37  and  N_38
REMARK   22  A    between atoms: C_39  and  O_40
REMARK                            x       y       z     vdW  Elec       q    Type
REMARK                         _______ _______ _______ _____ _____    ______ ____
ROOT
ATOM      1  C   UNL     1       2.972  -2.271 -11.359  0.00  0.00    +0.000 C 
ATOM      2  C   UNL     1       2.253  -1.494 -10.257  0.00  0.00    +0.000 C 
ATOM      3  C   UNL     1       3.246  -0.641  -9.382  0.00  0.00    +0.000 C 
ATOM      4  C   UNL     1       4.165  -1.649  -8.686  0.00  0.00    +0.000 C 
ATOM      5  C   UNL     1       5.007  -2.396  -9.810  0.00  0.00    +0.000 C 
ATOM      6  C   UNL     1       4.066  -3.227 -10.687  0.00  0.00    +0.000 C 
ENDROOT
BRANCH   1   9
ATOM      7  C   UNL     1       3.201   0.007 -12.536  0.00  0.00    +0.000 C 
ATOM      8  O   UNL     1       2.251   0.515 -12.002  0.00  0.00    +0.000 OA
ATOM      9  N   UNL     1       3.565  -1.341 -12.371  0.00  0.00    +0.000 N 
ATOM     10  H   UNL     1       4.004  -1.801 -13.151  0.00  0.00    +0.000 HD
BRANCH   7  11
ATOM     11  C   UNL     1       4.241   0.941 -13.242  0.00  0.00    +0.000 C 
BRANCH  11  12
ATOM     12  O   UNL     1       4.125   2.265 -12.684  0.00  0.00    +0.000 OA
ATOM     13  H   UNL     1       4.386   2.248 -11.746  0.00  0.00    +0.000 HD
ENDBRANCH  11  12
BRANCH  11  14
ATOM     14  C   UNL     1       5.727   0.591 -13.155  0.00  0.00    +0.000 C 
BRANCH  14  15
ATOM     15  C   UNL     1       6.092  -0.421 -14.226  0.00  0.00    +0.000 C 
BRANCH  15  16
ATOM     16  N   UNL     1       7.512  -0.707 -14.221  0.00  0.00    +0.000 NA
ATOM     17  H   UNL     1       7.718  -1.400 -14.940  0.00  0.00    +0.000 HD
ATOM     18  H   UNL     1       7.787  -1.123 -13.330  0.00  0.00    +0.000 HD
ENDBRANCH  15  16
ENDBRANCH  14  15
ENDBRANCH  11  14
ENDBRANCH   7  11
ENDBRANCH   1   9
BRANCH   3  19
ATOM     19  N   UNL     1       4.219   0.353  -9.832  0.00  0.00    +0.000 NA
ATOM     20  H   UNL     1       4.190   0.520 -10.810  0.00  0.00    +0.000 HD
ATOM     21  H   UNL     1       4.119   1.236  -9.341  0.00  0.00    +0.000 HD
ENDBRANCH   3  19
BRANCH   5  22
ATOM     22  O   UNL     1       5.801  -1.609 -10.696  0.00  0.00    +0.000 OA
ATOM     23  H   UNL     1       5.142  -1.148 -11.240  0.00  0.00    +0.000 HD
ENDBRANCH   5  22
BRANCH   6  24
ATOM     24  O   UNL     1       3.435  -4.209  -9.878  0.00  0.00    +0.000 OA
BRANCH  24  25
ATOM     25  C   UNL     1       4.304  -5.140  -9.189  0.00  0.00    +0.000 C 
ATOM     26  O   UNL     1       5.237  -4.579  -8.239  0.00  0.00    +0.000 OA
ATOM     27  C   UNL     1       6.033  -5.517  -7.470  0.00  0.00    +0.000 C 
ATOM     28  C   UNL     1       5.082  -6.371  -6.625  0.00  0.00    +0.000 C 
ATOM     29  C   UNL     1       3.986  -7.015  -7.529  0.00  0.00    +0.000 C 
ATOM     30  C   UNL     1       3.304  -5.968  -8.387  0.00  0.00    +0.000 C 
BRANCH  29  31
ATOM     31  N   UNL     1       4.484  -8.043  -8.463  0.00  0.00    +0.000 NA
ATOM     32  H   UNL     1       5.110  -7.629  -9.151  0.00  0.00    +0.000 HD
ATOM     33  H   UNL     1       3.694  -8.348  -9.037  0.00  0.00    +0.000 HD
ENDBRANCH  29  31
BRANCH  30  34
ATOM     34  O   UNL     1       2.625  -5.106  -7.504  0.00  0.00    +0.000 OA
ATOM     35  H   UNL     1       3.123  -4.263  -7.551  0.00  0.00    +0.000 HD
ENDBRANCH  30  34
BRANCH  28  36
ATOM     36  O   UNL     1       4.539  -5.530  -5.592  0.00  0.00    +0.000 OA
ATOM     37  H   UNL     1       4.395  -4.649  -5.980  0.00  0.00    +0.000 HD
ENDBRANCH  28  36
BRANCH  27  38
ATOM     38  C   UNL     1       6.983  -6.382  -8.319  0.00  0.00    +0.000 C 
BRANCH  38  39
ATOM     39  O   UNL     1       8.328  -5.932  -8.226  0.00  0.00    +0.000 OA
ATOM     40  H   UNL     1       8.599  -6.023  -7.296  0.00  0.00    +0.000 HD
ENDBRANCH  38  39
ENDBRANCH  27  38
ENDBRANCH  24  25
ENDBRANCH   6  24
BRANCH   4  41
ATOM     41  O   UNL     1       3.368  -2.552  -7.879  0.00  0.00    +0.000 OA
BRANCH  41  42
ATOM     42  C   UNL     1       2.624  -1.902  -6.840  0.00  0.00    +0.000 C 
ATOM     43  O   UNL     1       1.580  -1.069  -7.335  0.00  0.00    +0.000 OA
ATOM     44  C   UNL     1       0.849  -0.324  -6.338  0.00  0.00    +0.000 C 
ATOM     45  C   UNL     1       0.169  -1.325  -5.403  0.00  0.00    +0.000 C 
ATOM     46  C   UNL     1       1.237  -2.299  -4.815  0.00  0.00    +0.000 C 
ATOM     47  C   UNL     1       1.945  -2.971  -5.957  0.00  0.00    +0.000 C 
BRANCH  47  48
ATOM     48  O   UNL     1       0.914  -3.673  -6.669  0.00  0.00    +0.000 OA
ATOM     49  H   UNL     1       1.117  -3.625  -7.621  0.00  0.00    +0.000 HD
ENDBRANCH  47  48
BRANCH  46  50
ATOM     50  O   UNL     1       2.239  -1.706  -3.974  0.00  0.00    +0.000 OA
ATOM     51  H   UNL     1       2.922  -1.255  -4.509  0.00  0.00    +0.000 HD
ENDBRANCH  46  50
BRANCH  45  52
ATOM     52  O   UNL     1      -0.871  -1.979  -6.156  0.00  0.00    +0.000 OA
ATOM     53  H   UNL     1      -0.444  -2.414  -6.924  0.00  0.00    +0.000 HD
ENDBRANCH  45  52
BRANCH  44  54
ATOM     54  C   UNL     1       1.707   0.741  -5.602  0.00  0.00    +0.000 C 
BRANCH  54  55
ATOM     55  N   UNL     1       1.616   0.775  -4.138  0.00  0.00    +0.000 NA
ATOM     56  H   UNL     1       1.915  -0.109  -3.701  0.00  0.00    +0.000 HD
ATOM     57  H   UNL     1       0.634   0.803  -3.855  0.00  0.00    +0.000 HD
ENDBRANCH  54  55
ENDBRANCH  44  54
ENDBRANCH  41  42
ENDBRANCH   4  41
TORSDOF 22
