REMARK  Name = Amiloride
REMARK  2 active torsions:
REMARK  status: ('A' for Active; 'I' for Inactive)
REMARK    1  A    between atoms: C_5  and  C_7
REMARK    2  A    between atoms: C_11  and  N_12
REMARK                            x       y       z     vdW  Elec       q    Type
REMARK                         _______ _______ _______ _____ _____    ______ ____
ROOT
ATOM      1  C   UNL     1       5.315  -1.529  -2.183  0.00  0.00    +0.000 A 
ATOM      2  N   UNL     1       6.460  -2.190  -1.847  0.00  0.00    +0.000 NA
ATOM      3  C   UNL     1       7.154  -2.705  -2.882  0.00  0.00    +0.000 A 
ATOM      4 CL   UNL     1       8.584  -3.553  -2.424  0.00  0.00    +0.000 Cl
ATOM      5  C   UNL     1       6.768  -2.583  -4.227  0.00  0.00    +0.000 A 
ATOM      6  N   UNL     1       5.621  -1.916  -4.546  0.00  0.00    +0.000 NA
ATOM      7  C   UNL     1       4.895  -1.382  -3.517  0.00  0.00    +0.000 A 
ATOM      8  N   UNL     1       3.660  -0.798  -3.847  0.00  0.00    +0.000 N 
ATOM      9  H   UNL     1       3.620  -0.624  -4.850  0.00  0.00    +0.000 HD
ATOM     10  H   UNL     1       3.441   0.032  -3.301  0.00  0.00    +0.000 HD
ENDROOT
BRANCH   1  15
ATOM     11  N   UNL     1       1.139  -0.083  -0.157  0.00  0.00    +0.000 N 
ATOM     12  C   UNL     1       2.486  -0.060  -0.085  0.00  0.00    +0.000 C 
ATOM     13  N   UNL     1       3.062   0.606   0.851  0.00  0.00    +0.000 NA
ATOM     14  N   UNL     1       3.241  -0.739  -1.017  0.00  0.00    +0.000 N 
ATOM     15  C   UNL     1       4.645  -0.792  -1.060  0.00  0.00    +0.000 C 
ATOM     16  O   UNL     1       5.404  -0.242  -0.255  0.00  0.00    +0.000 OA
ATOM     17  H   UNL     1       0.598   0.388   0.558  0.00  0.00    +0.000 HD
ATOM     18  H   UNL     1       0.607  -0.600  -0.841  0.00  0.00    +0.000 HD
ATOM     19  H   UNL     1       2.396   1.049   1.476  0.00  0.00    +0.000 HD
ATOM     20  H   UNL     1       2.732  -1.270  -1.713  0.00  0.00    +0.000 HD
ENDBRANCH   1  15
BRANCH   5  21
ATOM     21  N   UNL     1       7.495  -3.177  -5.250  0.00  0.00    +0.000 N 
ATOM     22  H   UNL     1       8.372  -3.641  -5.041  0.00  0.00    +0.000 HD
ATOM     23  H   UNL     1       7.209  -3.048  -6.208  0.00  0.00    +0.000 HD
ENDBRANCH   5  21
TORSDOF 2
