REMARK  Name = Amiloxate
REMARK  10 active torsions:
REMARK  status: ('A' for Active; 'I' for Inactive)
REMARK    1  A    between atoms: C_1  and  O_2
REMARK    2  A    between atoms: O_2  and  C_3
REMARK    3  A    between atoms: C_6  and  C_7
REMARK    4  A    between atoms: C_8  and  C_9
REMARK    5  A    between atoms: C_9  and  O_11
REMARK    6  A    between atoms: O_11  and  C_12
REMARK    7  A    between atoms: C_12  and  C_13
REMARK    8  A    between atoms: C_13  and  C_14
REMARK    9  A    between atoms: C_14  and  C_15
REMARK   10  A    between atoms: C_14  and  C_16
REMARK                            x       y       z     vdW  Elec       q    Type
REMARK                         _______ _______ _______ _____ _____    ______ ____
ROOT
ATOM      1  C   UNL     1       5.392   4.879  -0.713  0.00  0.00    +0.000 C 
ATOM      2  C   UNL     1       5.021   6.077  -0.218  0.00  0.00    +0.000 C 
ENDROOT
BRANCH   1   6
ATOM      3  C   UNL     1       3.175   1.196  -0.265  0.00  0.00    +0.000 A 
ATOM      4  C   UNL     1       4.335   1.238  -1.039  0.00  0.00    +0.000 A 
ATOM      5  C   UNL     1       5.094   2.419  -1.130  0.00  0.00    +0.000 A 
ATOM      6  C   UNL     1       4.667   3.602  -0.503  0.00  0.00    +0.000 A 
ATOM      7  C   UNL     1       3.514   3.528   0.287  0.00  0.00    +0.000 A 
ATOM      8  C   UNL     1       2.779   2.344   0.410  0.00  0.00    +0.000 A 
BRANCH   3  10
ATOM      9  C   UNL     1       1.134   0.024  -0.033  0.00  0.00    +0.000 C 
ATOM     10  O   UNL     1       2.556  -0.017  -0.142  0.00  0.00    +0.000 OA
ENDBRANCH   3  10
ENDBRANCH   1   6
BRANCH   2  11
ATOM     11  C   UNL     1       5.777   7.314  -0.521  0.00  0.00    +0.000 C 
ATOM     12  O   UNL     1       6.760   7.357  -1.252  0.00  0.00    +0.000 OA
BRANCH  11  13
ATOM     13  O   UNL     1       5.215   8.377   0.127  0.00  0.00    +0.000 OA
BRANCH  13  14
ATOM     14  C   UNL     1       5.892   9.621  -0.137  0.00  0.00    +0.000 C 
BRANCH  14  15
ATOM     15  C   UNL     1       5.214  10.799   0.578  0.00  0.00    +0.000 C 
BRANCH  15  16
ATOM     16  C   UNL     1       5.924  12.147   0.317  0.00  0.00    +0.000 C 
ATOM     17  C   UNL     1       5.948  12.495  -1.173  0.00  0.00    +0.000 C 
ATOM     18  C   UNL     1       5.238  13.282   1.082  0.00  0.00    +0.000 C 
ENDBRANCH  15  16
ENDBRANCH  14  15
ENDBRANCH  13  14
ENDBRANCH  11  13
ENDBRANCH   2  11
TORSDOF 7
