REMARK  Name = Aminohippuric acid
REMARK  5 active torsions:
REMARK  status: ('A' for Active; 'I' for Inactive)
REMARK    1  A    between atoms: N_1  and  C_2
REMARK    2  A    between atoms: C_5  and  C_8
REMARK    3  A    between atoms: N_10  and  C_11
REMARK    4  A    between atoms: C_11  and  C_12
REMARK    5  A    between atoms: C_12  and  O_13
REMARK                            x       y       z     vdW  Elec       q    Type
REMARK                         _______ _______ _______ _____ _____    ______ ____
ROOT
ATOM      1  C   UNL     1       0.943  -0.004   0.006  0.00  0.00    +0.000 A 
ATOM      2  C   UNL     1       0.216  -1.195  -0.001  0.00  0.00    +0.000 A 
ATOM      3  C   UNL     1      -1.188  -1.183  -0.001  0.00  0.00    +0.000 A 
ATOM      4  C   UNL     1      -1.891   0.028   0.005  0.00  0.00    +0.000 A 
ATOM      5  C   UNL     1      -1.154   1.221   0.004  0.00  0.00    +0.000 A 
ATOM      6  C   UNL     1       0.245   1.200  -0.006  0.00  0.00    +0.000 A 
ENDROOT
BRANCH   4   7
ATOM      7  C   UNL     1      -3.395  -0.004   0.011  0.00  0.00    +0.000 C 
ATOM      8  O   UNL     1      -4.000  -1.072   0.009  0.00  0.00    +0.000 OA
ATOM      9  N   UNL     1      -4.043   1.215   0.020  0.00  0.00    +0.000 N 
ATOM     10  H   UNL     1      -3.482   2.038   0.021  0.00  0.00    +0.000 HD
BRANCH   9  11
ATOM     11  C   UNL     1      -5.499   1.317   0.026  0.00  0.00    +0.000 C 
BRANCH  11  12
ATOM     12  C   UNL     1      -6.112   2.722   0.036  0.00  0.00    +0.000 C 
ATOM     13  O   UNL     1      -7.322   2.916   0.042  0.00  0.00    +0.000 OA
BRANCH  12  14
ATOM     14  O   UNL     1      -5.257   3.769   0.038  0.00  0.00    +0.000 OA
ATOM     15  H   UNL     1      -4.309   3.581   0.032  0.00  0.00    +0.000 HD
ENDBRANCH  12  14
ENDBRANCH  11  12
ENDBRANCH   9  11
ENDBRANCH   4   7
BRANCH   1  16
ATOM     16  N   UNL     1       2.323  -0.008  -0.042  0.00  0.00    +0.000 N 
ATOM     17  H   UNL     1       2.837  -0.876   0.027  0.00  0.00    +0.000 HD
ATOM     18  H   UNL     1       2.843   0.857   0.012  0.00  0.00    +0.000 HD
ENDBRANCH   1  16
TORSDOF 5
