REMARK  Name = Aminophenazone
REMARK  6 active torsions:
REMARK  status: ('A' for Active; 'I' for Inactive)
REMARK    1  A    between atoms: C_1  and  N_2
REMARK    2  A    between atoms: N_2  and  C_3
REMARK    3  A    between atoms: N_2  and  C_4
REMARK    4  A    between atoms: C_5  and  C_6
REMARK    5  A    between atoms: N_7  and  C_8
REMARK    6  A    between atoms: N_9  and  C_12
REMARK                            x       y       z     vdW  Elec       q    Type
REMARK                         _______ _______ _______ _____ _____    ______ ____
ROOT
ATOM      1  C   UNL     1       3.428   0.182  -1.316  0.00  0.00    +0.000 A 
ATOM      2  C   UNL     1       4.550  -0.252  -1.965  0.00  0.00    +0.000 A 
ATOM      3  C   UNL     1       5.392  -1.444  -1.579  0.00  0.00    +0.000 C 
ATOM      4  N   UNL     1       4.811   0.494  -3.138  0.00  0.00    +0.000 N 
ATOM      5  C   UNL     1       5.939   0.504  -4.064  0.00  0.00    +0.000 C 
ATOM      6  N   UNL     1       3.902   1.558  -3.155  0.00  0.00    +0.000 N 
ATOM      7  C   UNL     1       3.009   1.412  -2.110  0.00  0.00    +0.000 A 
ATOM      8  O   UNL     1       2.042   2.127  -1.856  0.00  0.00    +0.000 OA
ENDROOT
BRANCH   6   9
ATOM      9  C   UNL     1       3.833   2.572  -4.121  0.00  0.00    +0.000 A 
ATOM     10  C   UNL     1       3.694   2.271  -5.476  0.00  0.00    +0.000 A 
ATOM     11  C   UNL     1       3.643   3.297  -6.421  0.00  0.00    +0.000 A 
ATOM     12  C   UNL     1       3.662   4.630  -6.009  0.00  0.00    +0.000 A 
ATOM     13  C   UNL     1       3.763   4.939  -4.654  0.00  0.00    +0.000 A 
ATOM     14  C   UNL     1       3.840   3.912  -3.712  0.00  0.00    +0.000 A 
ENDBRANCH   6   9
BRANCH   1  16
ATOM     15  C   UNL     1       1.223  -0.073  -0.124  0.00  0.00    +0.000 C 
ATOM     16  N   UNL     1       2.692  -0.224  -0.186  0.00  0.00    +0.000 N 
ATOM     17  C   UNL     1       3.324  -0.473   1.104  0.00  0.00    +0.000 C 
ENDBRANCH   1  16
TORSDOF 2
