REMARK  Name = Aminophylline
REMARK  7 active torsions:
REMARK  status: ('A' for Active; 'I' for Inactive)
REMARK    1  A    between atoms: N_1  and  C_2
REMARK    2  A    between atoms: C_2  and  C_3
REMARK    3  A    between atoms: C_3  and  N_4
REMARK    4  A    between atoms: C_5  and  N_6
REMARK    5  A    between atoms: N_14  and  C_15
REMARK    6  A    between atoms: C_18  and  N_19
REMARK    7  A    between atoms: N_27  and  C_28
REMARK                            x       y       z     vdW  Elec       q    Type
REMARK                         _______ _______ _______ _____ _____    ______ ____
ROOT
ATOM      1  C   UNL     1       3.943   0.794   1.192  0.00  0.00    +0.000 C 
ENDROOT
BRANCH   1   2
ATOM      2  N   UNL     1       2.414   0.478   2.392  0.00  0.00    +0.000 NA
ATOM      3  H   UNL     1       2.152  -0.524   2.352  0.00  0.00    +0.000 HD
ATOM      4  H   UNL     1       1.483   0.775   2.052  0.00  0.00    +0.000 HD
ENDBRANCH   1   2
BRANCH   1   5
ATOM      5  C   UNL     1       4.179   0.764  -0.704  0.00  0.00    +0.000 C 
BRANCH   5   6
ATOM      6  N   UNL     1       5.383   0.222  -1.415  0.00  0.00    +0.000 NA
ATOM      7  H   UNL     1       5.912   1.054  -1.223  0.00  0.00    +0.000 HD
ATOM      8  H   UNL     1       5.137   0.242  -2.410  0.00  0.00    +0.000 HD
ENDBRANCH   5   6
ENDBRANCH   1   5
TORSDOF 3
REMARK  Name = Aminophylline
REMARK  7 active torsions:
REMARK  status: ('A' for Active; 'I' for Inactive)
REMARK    1  A    between atoms: N_1  and  C_2
REMARK    2  A    between atoms: C_2  and  C_3
REMARK    3  A    between atoms: C_3  and  N_4
REMARK    4  A    between atoms: C_5  and  N_6
REMARK    5  A    between atoms: N_14  and  C_15
REMARK    6  A    between atoms: C_18  and  N_19
REMARK    7  A    between atoms: N_27  and  C_28
REMARK                            x       y       z     vdW  Elec       q    Type
REMARK                         _______ _______ _______ _____ _____    ______ ____
ROOT
ATOM      1  C   UNL     2       0.166   2.859   0.004  0.00  0.00    +0.000 C 
ATOM      2  N   UNL     2       0.200   1.393  -0.017  0.00  0.00    +0.000 N 
ATOM      3  C   UNL     2      -0.962   0.652   0.001  0.00  0.00    +0.000 A 
ATOM      4  C   UNL     2      -0.945  -0.719   0.000  0.00  0.00    +0.000 A 
ATOM      5  N   UNL     2      -2.282  -1.089   0.000  0.00  0.00    +0.000 N 
ATOM      6  C   UNL     2      -2.984   0.056   0.021  0.00  0.00    +0.000 A 
ATOM      7  N   UNL     2      -2.219   1.146   0.010  0.00  0.00    +0.000 NA
ATOM      8  C   UNL     2       0.254  -1.470  -0.012  0.00  0.00    +0.000 A 
ATOM      9  O   UNL     2       0.345  -2.703  -0.029  0.00  0.00    +0.000 OA
ATOM     10  N   UNL     2       1.396  -0.646  -0.007  0.00  0.00    +0.000 N 
ATOM     11  C   UNL     2       2.712  -1.299   0.068  0.00  0.00    +0.000 C 
ATOM     12  C   UNL     2       1.406   0.749  -0.005  0.00  0.00    +0.000 A 
ATOM     13  O   UNL     2       2.464   1.377  -0.017  0.00  0.00    +0.000 OA
ATOM     14  H   UNL     2      -2.643  -2.005  -0.013  0.00  0.00    +0.000 HD
ENDROOT
TORSDOF 0
REMARK  Name = Aminophylline
REMARK  7 active torsions:
REMARK  status: ('A' for Active; 'I' for Inactive)
REMARK    1  A    between atoms: N_1  and  C_2
REMARK    2  A    between atoms: C_2  and  C_3
REMARK    3  A    between atoms: C_3  and  N_4
REMARK    4  A    between atoms: C_5  and  N_6
REMARK    5  A    between atoms: N_14  and  C_15
REMARK    6  A    between atoms: C_18  and  N_19
REMARK    7  A    between atoms: N_27  and  C_28
REMARK                            x       y       z     vdW  Elec       q    Type
REMARK                         _______ _______ _______ _____ _____    ______ ____
ROOT
ATOM      1  C   UNL     3       0.166   2.859   0.004  0.00  0.00    +0.000 C 
ATOM      2  N   UNL     3       0.200   1.393  -0.017  0.00  0.00    +0.000 N 
ATOM      3  C   UNL     3      -0.962   0.652   0.001  0.00  0.00    +0.000 A 
ATOM      4  C   UNL     3      -0.945  -0.719   0.000  0.00  0.00    +0.000 A 
ATOM      5  N   UNL     3      -2.282  -1.089   0.000  0.00  0.00    +0.000 N 
ATOM      6  C   UNL     3      -2.984   0.056   0.021  0.00  0.00    +0.000 A 
ATOM      7  N   UNL     3      -2.219   1.146   0.010  0.00  0.00    +0.000 NA
ATOM      8  C   UNL     3       0.254  -1.470  -0.012  0.00  0.00    +0.000 A 
ATOM      9  O   UNL     3       0.345  -2.703  -0.029  0.00  0.00    +0.000 OA
ATOM     10  N   UNL     3       1.396  -0.646  -0.007  0.00  0.00    +0.000 N 
ATOM     11  C   UNL     3       2.712  -1.299   0.068  0.00  0.00    +0.000 C 
ATOM     12  C   UNL     3       1.406   0.749  -0.005  0.00  0.00    +0.000 A 
ATOM     13  O   UNL     3       2.464   1.377  -0.017  0.00  0.00    +0.000 OA
ATOM     14  H   UNL     3      -2.643  -2.005  -0.013  0.00  0.00    +0.000 HD
ENDROOT
TORSDOF 0
