REMARK  Name = Aminosalicylic acid
REMARK  4 active torsions:
REMARK  status: ('A' for Active; 'I' for Inactive)
REMARK    1  A    between atoms: N_1  and  C_2
REMARK    2  A    between atoms: C_4  and  O_5
REMARK    3  A    between atoms: C_6  and  C_9
REMARK    4  A    between atoms: C_9  and  O_10
REMARK                            x       y       z     vdW  Elec       q    Type
REMARK                         _______ _______ _______ _____ _____    ______ ____
ROOT
ATOM      1  C   UNL     1      -1.211   0.335  -0.010  0.00  0.00    +0.000 A 
ATOM      2  C   UNL     1       0.027   0.986   0.012  0.00  0.00    +0.000 A 
ATOM      3  C   UNL     1       1.223   0.254   0.012  0.00  0.00    +0.000 A 
ATOM      4  C   UNL     1       1.206  -1.145   0.010  0.00  0.00    +0.000 A 
ATOM      5  C   UNL     1      -0.039  -1.793  -0.006  0.00  0.00    +0.000 A 
ATOM      6  C   UNL     1      -1.232  -1.059  -0.013  0.00  0.00    +0.000 A 
ENDROOT
BRANCH   1   7
ATOM      7  N   UNL     1      -2.389   1.057   0.015  0.00  0.00    +0.000 N 
ATOM      8  H   UNL     1      -2.385   2.068  -0.007  0.00  0.00    +0.000 HD
ATOM      9  H   UNL     1      -3.282   0.588  -0.058  0.00  0.00    +0.000 HD
ENDBRANCH   1   7
BRANCH   3  10
ATOM     10  O   UNL     1       2.421   0.925   0.010  0.00  0.00    +0.000 OA
ATOM     11  H   UNL     1       2.237   1.883  -0.018  0.00  0.00    +0.000 HD
ENDBRANCH   3  10
BRANCH   4  12
ATOM     12  C   UNL     1       2.431  -2.001   0.030  0.00  0.00    +0.000 C 
ATOM     13  O   UNL     1       2.371  -3.223   0.030  0.00  0.00    +0.000 OA
BRANCH  12  14
ATOM     14  O   UNL     1       3.610  -1.345   0.051  0.00  0.00    +0.000 OA
ATOM     15  H   UNL     1       3.502  -0.368   0.046  0.00  0.00    +0.000 HD
ENDBRANCH  12  14
ENDBRANCH   4  12
TORSDOF 4
