REMARK  Name = Aminocaproic acid
REMARK  7 active torsions:
REMARK  status: ('A' for Active; 'I' for Inactive)
REMARK    1  A    between atoms: N_1  and  C_2
REMARK    2  A    between atoms: C_2  and  C_3
REMARK    3  A    between atoms: C_3  and  C_4
REMARK    4  A    between atoms: C_4  and  C_5
REMARK    5  A    between atoms: C_5  and  C_6
REMARK    6  A    between atoms: C_6  and  C_7
REMARK    7  A    between atoms: C_7  and  O_8
REMARK                            x       y       z     vdW  Elec       q    Type
REMARK                         _______ _______ _______ _____ _____    ______ ____
ROOT
ATOM      1  C   UNL     1       4.493   1.104  -0.736  0.00  0.00    +0.000 C 
ENDROOT
BRANCH   1   2
ATOM      2  C   UNL     1       2.966   1.092  -0.727  0.00  0.00    +0.000 C 
BRANCH   2   3
ATOM      3  C   UNL     1       2.443  -0.102   0.058  0.00  0.00    +0.000 C 
BRANCH   3   4
ATOM      4  N   UNL     1       0.988  -0.087   0.060  0.00  0.00    +0.000 NA
ATOM      5  H   UNL     1       0.644  -0.906   0.559  0.00  0.00    +0.000 HD
ATOM      6  H   UNL     1       0.642  -0.167  -0.895  0.00  0.00    +0.000 HD
ENDBRANCH   3   4
ENDBRANCH   2   3
ENDBRANCH   1   2
BRANCH   1   7
ATOM      7  C   UNL     1       4.991   2.306  -1.524  0.00  0.00    +0.000 C 
BRANCH   7   8
ATOM      8  C   UNL     1       6.509   2.371  -1.567  0.00  0.00    +0.000 C 
BRANCH   8   9
ATOM      9  C   UNL     1       7.085   3.541  -2.335  0.00  0.00    +0.000 C 
ATOM     10  O   UNL     1       8.294   3.707  -2.445  0.00  0.00    +0.000 OA
BRANCH   9  11
ATOM     11  O   UNL     1       6.214   4.399  -2.899  0.00  0.00    +0.000 OA
ATOM     12  H   UNL     1       5.264   4.226  -2.780  0.00  0.00    +0.000 HD
ENDBRANCH   9  11
ENDBRANCH   8   9
ENDBRANCH   7   8
ENDBRANCH   1   7
TORSDOF 7
