REMARK  Name = Aminolevulinic acid
REMARK  6 active torsions:
REMARK  status: ('A' for Active; 'I' for Inactive)
REMARK    1  A    between atoms: N_1  and  C_2
REMARK    2  A    between atoms: C_2  and  C_3
REMARK    3  A    between atoms: C_3  and  C_5
REMARK    4  A    between atoms: C_5  and  C_6
REMARK    5  A    between atoms: C_6  and  C_7
REMARK    6  A    between atoms: C_7  and  O_8
REMARK                            x       y       z     vdW  Elec       q    Type
REMARK                         _______ _______ _______ _____ _____    ______ ____
ROOT
ATOM      1  C   UNL     1       2.842   0.351  -1.375  0.00  0.00    +0.000 C 
ATOM      2  O   UNL     1       2.062   0.537  -2.310  0.00  0.00    +0.000 OA
ENDROOT
BRANCH   1   3
ATOM      3  C   UNL     1       2.375  -0.006   0.041  0.00  0.00    +0.000 C 
BRANCH   3   4
ATOM      4  N   UNL     1       0.915  -0.002   0.110  0.00  0.00    +0.000 NA
ATOM      5  H   UNL     1       0.585  -0.331   1.013  0.00  0.00    +0.000 HD
ATOM      6  H   UNL     1       0.546  -0.632  -0.605  0.00  0.00    +0.000 HD
ENDBRANCH   3   4
ENDBRANCH   1   3
BRANCH   1   7
ATOM      7  C   UNL     1       4.345   0.413  -1.582  0.00  0.00    +0.000 C 
BRANCH   7   8
ATOM      8  C   UNL     1       4.692   0.782  -3.018  0.00  0.00    +0.000 C 
BRANCH   8   9
ATOM      9  C   UNL     1       6.161   0.866  -3.355  0.00  0.00    +0.000 C 
ATOM     10  O   UNL     1       6.551   1.154  -4.481  0.00  0.00    +0.000 OA
BRANCH   9  11
ATOM     11  O   UNL     1       7.039   0.609  -2.368  0.00  0.00    +0.000 OA
ATOM     12  H   UNL     1       6.696   0.387  -1.488  0.00  0.00    +0.000 HD
ENDBRANCH   9  11
ENDBRANCH   8   9
ENDBRANCH   7   8
ENDBRANCH   1   7
TORSDOF 6
