REMARK  Name = Aminoglutethimide
REMARK  4 active torsions:
REMARK  status: ('A' for Active; 'I' for Inactive)
REMARK    1  A    between atoms: C_1  and  C_2
REMARK    2  A    between atoms: C_2  and  C_3
REMARK    3  A    between atoms: C_3  and  C_11
REMARK    4  A    between atoms: C_14  and  N_15
REMARK                            x       y       z     vdW  Elec       q    Type
REMARK                         _______ _______ _______ _____ _____    ______ ____
ROOT
ATOM      1  C   UNL     1       2.971  -1.294  -0.453  0.00  0.00    +0.000 C 
ATOM      2  C   UNL     1       2.240  -2.661  -0.530  0.00  0.00    +0.000 C 
ATOM      3  C   UNL     1       1.797  -3.256   0.762  0.00  0.00    +0.000 C 
ATOM      4  C   UNL     1       2.971  -3.395   1.675  0.00  0.00    +0.000 C 
ATOM      5  O   UNL     1       3.049  -4.292   2.496  0.00  0.00    +0.000 OA
ATOM      6  N   UNL     1       3.939  -2.421   1.557  0.00  0.00    +0.000 N 
ATOM      7  C   UNL     1       4.102  -1.445   0.587  0.00  0.00    +0.000 C 
ATOM      8  O   UNL     1       5.028  -0.640   0.712  0.00  0.00    +0.000 OA
ATOM      9  H   UNL     1       4.661  -2.461   2.262  0.00  0.00    +0.000 HD
ENDROOT
BRANCH   1  10
ATOM     10  C   UNL     1       3.289  -1.124  -1.950  0.00  0.00    +0.000 A 
ATOM     11  C   UNL     1       2.194  -1.141  -2.861  0.00  0.00    +0.000 A 
ATOM     12  C   UNL     1       2.369  -1.257  -4.228  0.00  0.00    +0.000 A 
ATOM     13  C   UNL     1       3.650  -1.228  -4.748  0.00  0.00    +0.000 A 
ATOM     14  C   UNL     1       4.740  -1.187  -3.863  0.00  0.00    +0.000 A 
ATOM     15  C   UNL     1       4.572  -1.139  -2.473  0.00  0.00    +0.000 A 
BRANCH  13  16
ATOM     16  N   UNL     1       3.835  -1.468  -6.106  0.00  0.00    +0.000 N 
ATOM     17  H   UNL     1       3.037  -1.273  -6.702  0.00  0.00    +0.000 HD
ATOM     18  H   UNL     1       4.730  -1.186  -6.486  0.00  0.00    +0.000 HD
ENDBRANCH  13  16
ENDBRANCH   1  10
BRANCH   1  20
ATOM     19  C   UNL     1       0.818   0.104   0.028  0.00  0.00    +0.000 C 
ATOM     20  C   UNL     1       2.321   0.044   0.008  0.00  0.00    +0.000 C 
ENDBRANCH   1  20
TORSDOF 3
