REMARK  Name = Amiodarone
REMARK  14 active torsions:
REMARK  status: ('A' for Active; 'I' for Inactive)
REMARK    1  A    between atoms: C_1  and  C_2
REMARK    2  A    between atoms: C_2  and  C_3
REMARK    3  A    between atoms: C_3  and  C_4
REMARK    4  A    between atoms: C_4  and  C_5
REMARK    5  A    between atoms: C_6  and  C_7
REMARK    6  A    between atoms: C_7  and  C_9
REMARK    7  A    between atoms: C_13  and  O_14
REMARK    8  A    between atoms: O_14  and  C_15
REMARK    9  A    between atoms: C_15  and  C_16
REMARK   10  A    between atoms: C_16  and  N_17
REMARK   11  A    between atoms: N_17  and  C_18
REMARK   12  A    between atoms: N_17  and  C_20
REMARK   13  A    between atoms: C_18  and  C_19
REMARK   14  A    between atoms: C_20  and  C_21
REMARK                            x       y       z     vdW  Elec       q    Type
REMARK                         _______ _______ _______ _____ _____    ______ ____
ROOT
ATOM      1  C   UNL     1       3.544  -5.506   0.872  0.00  0.00    +0.000 A 
ATOM      2  C   UNL     1       2.761  -5.924   1.929  0.00  0.00    +0.000 A 
ATOM      3  C   UNL     1       2.569  -7.292   2.142  0.00  0.00    +0.000 A 
ATOM      4  I   UNL     1       1.855  -7.501   4.142  0.00  0.00    +0.000 I 
ATOM      5  C   UNL     1       3.031  -8.246   1.188  0.00  0.00    +0.000 A 
ATOM      6  C   UNL     1       3.716  -7.752   0.054  0.00  0.00    +0.000 A 
ATOM      7  I   UNL     1       4.460  -9.012  -1.462  0.00  0.00    +0.000 I 
ATOM      8  C   UNL     1       3.996  -6.395  -0.090  0.00  0.00    +0.000 A 
ENDROOT
BRANCH   1   9
ATOM      9  C   UNL     1       3.965  -4.111   0.783  0.00  0.00    +0.000 C 
ATOM     10  O   UNL     1       3.713  -3.551  -0.270  0.00  0.00    +0.000 OA
BRANCH   9  12
ATOM     11  C   UNL     1       4.938  -2.142   1.977  0.00  0.00    +0.000 A 
ATOM     12  C   UNL     1       4.673  -3.499   1.910  0.00  0.00    +0.000 A 
ATOM     13  C   UNL     1       5.218  -4.048   3.113  0.00  0.00    +0.000 A 
ATOM     14  C   UNL     1       5.805  -2.992   3.805  0.00  0.00    +0.000 A 
ATOM     15  O   UNL     1       5.633  -1.827   3.109  0.00  0.00    +0.000 OA
ATOM     16  C   UNL     1       6.466  -3.147   5.029  0.00  0.00    +0.000 A 
ATOM     17  C   UNL     1       6.504  -4.439   5.578  0.00  0.00    +0.000 A 
ATOM     18  C   UNL     1       5.907  -5.512   4.930  0.00  0.00    +0.000 A 
ATOM     19  C   UNL     1       5.293  -5.328   3.695  0.00  0.00    +0.000 A 
BRANCH  11  20
ATOM     20  C   UNL     1       4.528  -1.046   1.056  0.00  0.00    +0.000 C 
BRANCH  20  21
ATOM     21  C   UNL     1       2.996  -0.959   1.038  0.00  0.00    +0.000 C 
BRANCH  21  23
ATOM     22  C   UNL     1       0.962  -0.051  -0.060  0.00  0.00    +0.000 C 
ATOM     23  C   UNL     1       2.482  -0.025  -0.043  0.00  0.00    +0.000 C 
ENDBRANCH  21  23
ENDBRANCH  20  21
ENDBRANCH  11  20
ENDBRANCH   9  12
ENDBRANCH   1   9
BRANCH   5  24
ATOM     24  O   UNL     1       2.963  -9.630   1.215  0.00  0.00    +0.000 OA
BRANCH  24  25
ATOM     25  C   UNL     1       2.033 -10.139   2.144  0.00  0.00    +0.000 C 
BRANCH  25  26
ATOM     26  C   UNL     1       1.604 -11.599   2.020  0.00  0.00    +0.000 C 
BRANCH  26  27
ATOM     27  N   UNL     1       0.729 -12.033   3.153  0.00  0.00    +0.000 NA
BRANCH  27  28
ATOM     28  C   UNL     1      -0.592 -11.360   3.207  0.00  0.00    +0.000 C 
ATOM     29  C   UNL     1      -0.620  -9.888   3.561  0.00  0.00    +0.000 C 
ENDBRANCH  27  28
BRANCH  27  30
ATOM     30  C   UNL     1       0.528 -13.497   3.050  0.00  0.00    +0.000 C 
ATOM     31  C   UNL     1      -0.257 -14.090   4.220  0.00  0.00    +0.000 C 
ENDBRANCH  27  30
ENDBRANCH  26  27
ENDBRANCH  25  26
ENDBRANCH  24  25
ENDBRANCH   5  24
TORSDOF 11
