REMARK  Name = Amisulpride
REMARK  11 active torsions:
REMARK  status: ('A' for Active; 'I' for Inactive)
REMARK    1  A    between atoms: C_1  and  C_2
REMARK    2  A    between atoms: C_2  and  N_3
REMARK    3  A    between atoms: C_7  and  C_8
REMARK    4  A    between atoms: C_8  and  N_9
REMARK    5  A    between atoms: C_10  and  C_12
REMARK    6  A    between atoms: C_14  and  S_21
REMARK    7  A    between atoms: C_15  and  N_16
REMARK    8  A    between atoms: C_18  and  O_19
REMARK    9  A    between atoms: O_19  and  C_20
REMARK   10  A    between atoms: S_21  and  C_24
REMARK   11  A    between atoms: C_24  and  C_25
REMARK                            x       y       z     vdW  Elec       q    Type
REMARK                         _______ _______ _______ _____ _____    ______ ____
ROOT
ATOM      1  C   UNL     1       2.267  -6.987   3.021  0.00  0.00    +0.000 A 
ATOM      2  C   UNL     1       2.110  -7.855   1.919  0.00  0.00    +0.000 A 
ATOM      3  C   UNL     1       1.552  -9.160   2.055  0.00  0.00    +0.000 A 
ATOM      4  C   UNL     1       1.175  -9.636   3.317  0.00  0.00    +0.000 A 
ATOM      5  C   UNL     1       1.317  -8.738   4.396  0.00  0.00    +0.000 A 
ATOM      6  C   UNL     1       1.854  -7.435   4.285  0.00  0.00    +0.000 A 
ENDROOT
BRANCH   1   8
ATOM      7  N   UNL     1       2.387  -4.789   1.893  0.00  0.00    +0.000 N 
ATOM      8  C   UNL     1       2.959  -5.686   2.778  0.00  0.00    +0.000 C 
ATOM      9  O   UNL     1       4.014  -5.437   3.361  0.00  0.00    +0.000 OA
ATOM     10  H   UNL     1       1.601  -5.069   1.319  0.00  0.00    +0.000 HD
BRANCH   7  11
ATOM     11  C   UNL     1       2.938  -3.427   1.780  0.00  0.00    +0.000 C 
BRANCH  11  16
ATOM     12  N   UNL     1       3.115  -1.283   0.448  0.00  0.00    +0.000 NA
ATOM     13  C   UNL     1       4.103  -1.453  -0.637  0.00  0.00    +0.000 C 
ATOM     14  C   UNL     1       3.369  -2.337  -1.628  0.00  0.00    +0.000 C 
ATOM     15  C   UNL     1       2.770  -3.380  -0.717  0.00  0.00    +0.000 C 
ATOM     16  C   UNL     1       2.420  -2.603   0.564  0.00  0.00    +0.000 C 
BRANCH  12  18
ATOM     17  C   UNL     1       0.844  -0.052   0.155  0.00  0.00    +0.000 C 
ATOM     18  C   UNL     1       2.356  -0.050   0.146  0.00  0.00    +0.000 C 
ENDBRANCH  12  18
ENDBRANCH  11  16
ENDBRANCH   7  11
ENDBRANCH   1   8
BRANCH   4  19
ATOM     19  N   UNL     1       0.467 -10.803   3.603  0.00  0.00    +0.000 N 
ATOM     20  H   UNL     1       0.528 -11.627   3.036  0.00  0.00    +0.000 HD
ATOM     21  H   UNL     1       0.401 -11.073   4.581  0.00  0.00    +0.000 HD
ENDBRANCH   4  19
BRANCH   3  22
ATOM     22  S   UNL     1       1.411 -10.084   0.518  0.00  0.00    +0.000 S 
ATOM     23  O   UNL     1       0.475  -9.336  -0.302  0.00  0.00    +0.000 OA
ATOM     24  O   UNL     1       2.773 -10.308   0.069  0.00  0.00    +0.000 OA
BRANCH  22  25
ATOM     25  C   UNL     1       0.694 -11.675   0.826  0.00  0.00    +0.000 C 
ATOM     26  C   UNL     1       0.516 -12.546  -0.394  0.00  0.00    +0.000 C 
ENDBRANCH  22  25
ENDBRANCH   3  22
BRANCH   6  27
ATOM     27  O   UNL     1       1.838  -6.796   5.500  0.00  0.00    +0.000 OA
ATOM     28  C   UNL     1       2.372  -5.486   5.600  0.00  0.00    +0.000 C 
ENDBRANCH   6  27
TORSDOF 8
