REMARK  Name = Amitriptylinoxide
REMARK  5 active torsions:
REMARK  status: ('A' for Active; 'I' for Inactive)
REMARK    1  A    between atoms: C_1  and  N_2
REMARK    2  A    between atoms: N_2  and  C_3
REMARK    3  A    between atoms: N_2  and  C_5
REMARK    4  A    between atoms: C_5  and  C_6
REMARK    5  A    between atoms: C_6  and  C_7
REMARK                            x       y       z     vdW  Elec       q    Type
REMARK                         _______ _______ _______ _____ _____    ______ ____
ROOT
ATOM      1  C   UNL     1       5.634  -0.552  -2.286  0.00  0.00    +0.000 C 
ATOM      2  C   UNL     1       6.993  -0.625  -2.221  0.00  0.00    +0.000 C 
ATOM      3  C   UNL     1       7.713  -0.248  -0.975  0.00  0.00    +0.000 A 
ATOM      4  C   UNL     1       7.679  -1.043   0.179  0.00  0.00    +0.000 A 
ATOM      5  C   UNL     1       8.392  -0.668   1.319  0.00  0.00    +0.000 A 
ATOM      6  C   UNL     1       9.172   0.487   1.307  0.00  0.00    +0.000 A 
ATOM      7  C   UNL     1       9.227   1.276   0.160  0.00  0.00    +0.000 A 
ATOM      8  C   UNL     1       8.488   0.924  -0.976  0.00  0.00    +0.000 A 
ATOM      9  C   UNL     1       8.572   1.751  -2.230  0.00  0.00    +0.000 C 
ATOM     10  C   UNL     1       9.406   1.025  -3.284  0.00  0.00    +0.000 C 
ATOM     11  C   UNL     1       8.826  -0.223  -3.930  0.00  0.00    +0.000 A 
ATOM     12  C   UNL     1       9.493  -0.679  -5.080  0.00  0.00    +0.000 A 
ATOM     13  C   UNL     1       9.068  -1.817  -5.763  0.00  0.00    +0.000 A 
ATOM     14  C   UNL     1       7.973  -2.537  -5.302  0.00  0.00    +0.000 A 
ATOM     15  C   UNL     1       7.312  -2.119  -4.156  0.00  0.00    +0.000 A 
ATOM     16  C   UNL     1       7.719  -0.964  -3.462  0.00  0.00    +0.000 A 
ENDROOT
BRANCH   1  17
ATOM     17  C   UNL     1       4.824  -0.149  -1.107  0.00  0.00    +0.000 C 
BRANCH  17  18
ATOM     18  C   UNL     1       3.303  -0.193  -1.187  0.00  0.00    +0.000 C 
BRANCH  18  20
ATOM     19  C   UNL     1       1.220  -0.064   0.147  0.00  0.00    +0.000 C 
ATOM     20  N   UNL     1       2.683   0.287   0.132  0.00  0.00    +0.000 NA
ATOM     21  C   UNL     1       3.464  -0.253   1.311  0.00  0.00    +0.000 C 
ATOM     22  O   UNL     1       2.750   1.666   0.203  0.00  0.00    +0.000 OA
ENDBRANCH  18  20
ENDBRANCH  17  18
ENDBRANCH   1  17
TORSDOF 3
