REMARK  Name = Amitriptyline
REMARK  5 active torsions:
REMARK  status: ('A' for Active; 'I' for Inactive)
REMARK    1  A    between atoms: C_1  and  N_2
REMARK    2  A    between atoms: N_2  and  C_3
REMARK    3  A    between atoms: N_2  and  C_4
REMARK    4  A    between atoms: C_4  and  C_5
REMARK    5  A    between atoms: C_5  and  C_6
REMARK                            x       y       z     vdW  Elec       q    Type
REMARK                         _______ _______ _______ _____ _____    ______ ____
ROOT
ATOM      1  C   UNL     1       4.988   1.196   2.561  0.00  0.00    +0.000 C 
ATOM      2  C   UNL     1       6.311   1.357   2.776  0.00  0.00    +0.000 C 
ATOM      3  C   UNL     1       7.279   0.827   1.785  0.00  0.00    +0.000 A 
ATOM      4  C   UNL     1       7.426   1.406   0.518  0.00  0.00    +0.000 A 
ATOM      5  C   UNL     1       8.354   0.891  -0.386  0.00  0.00    +0.000 A 
ATOM      6  C   UNL     1       9.161  -0.184  -0.019  0.00  0.00    +0.000 A 
ATOM      7  C   UNL     1       9.035  -0.754   1.247  0.00  0.00    +0.000 A 
ATOM      8  C   UNL     1       8.084  -0.263   2.149  0.00  0.00    +0.000 A 
ATOM      9  C   UNL     1       7.963  -0.843   3.533  0.00  0.00    +0.000 C 
ATOM     10  C   UNL     1       8.553   0.119   4.561  0.00  0.00    +0.000 C 
ATOM     11  C   UNL     1       7.806   1.412   4.844  0.00  0.00    +0.000 A 
ATOM     12  C   UNL     1       8.235   2.116   5.987  0.00  0.00    +0.000 A 
ATOM     13  C   UNL     1       7.649   3.324   6.356  0.00  0.00    +0.000 A 
ATOM     14  C   UNL     1       6.629   3.862   5.585  0.00  0.00    +0.000 A 
ATOM     15  C   UNL     1       6.199   3.191   4.441  0.00  0.00    +0.000 A 
ATOM     16  C   UNL     1       6.771   1.963   4.056  0.00  0.00    +0.000 A 
ENDROOT
BRANCH   1  17
ATOM     17  C   UNL     1       4.401   0.571   1.321  0.00  0.00    +0.000 C 
BRANCH  17  18
ATOM     18  C   UNL     1       2.868   0.585   1.259  0.00  0.00    +0.000 C 
BRANCH  18  20
ATOM     19  C   UNL     1       0.894  -0.030   0.026  0.00  0.00    +0.000 C 
ATOM     20  N   UNL     1       2.357  -0.003   0.004  0.00  0.00    +0.000 NA
ATOM     21  C   UNL     1       2.814   0.735  -1.178  0.00  0.00    +0.000 C 
ENDBRANCH  18  20
ENDBRANCH  17  18
ENDBRANCH   1  17
TORSDOF 3
