REMARK  Name = Amlexanox
REMARK  6 active torsions:
REMARK  status: ('A' for Active; 'I' for Inactive)
REMARK    1  A    between atoms: C_1  and  C_2
REMARK    2  A    between atoms: C_2  and  C_3
REMARK    3  A    between atoms: C_2  and  C_4
REMARK    4  A    between atoms: C_11  and  N_12
REMARK    5  A    between atoms: C_13  and  C_18
REMARK    6  A    between atoms: C_18  and  O_19
REMARK                            x       y       z     vdW  Elec       q    Type
REMARK                         _______ _______ _______ _____ _____    ______ ____
ROOT
ATOM      1  C   UNL     1       3.094  -0.649   1.204  0.00  0.00    +0.000 A 
ATOM      2  C   UNL     1       2.897  -2.026   1.239  0.00  0.00    +0.000 A 
ATOM      3  C   UNL     1       3.209  -2.737   2.392  0.00  0.00    +0.000 A 
ATOM      4  C   UNL     1       3.745  -2.127   3.523  0.00  0.00    +0.000 A 
ATOM      5  O   UNL     1       4.043  -2.807   4.684  0.00  0.00    +0.000 OA
ATOM      6  C   UNL     1       3.795  -4.169   4.722  0.00  0.00    +0.000 A 
ATOM      7  N   UNL     1       4.111  -4.799   5.877  0.00  0.00    +0.000 NA
ATOM      8  C   UNL     1       3.888  -6.142   5.960  0.00  0.00    +0.000 A 
ATOM      9  C   UNL     1       3.344  -6.897   4.900  0.00  0.00    +0.000 A 
ATOM     10  C   UNL     1       3.028  -6.225   3.729  0.00  0.00    +0.000 A 
ATOM     11  C   UNL     1       3.260  -4.858   3.652  0.00  0.00    +0.000 A 
ATOM     12  C   UNL     1       2.935  -4.161   2.424  0.00  0.00    +0.000 A 
ATOM     13  O   UNL     1       2.450  -4.758   1.468  0.00  0.00    +0.000 OA
ATOM     14  C   UNL     1       3.985  -0.758   3.482  0.00  0.00    +0.000 A 
ATOM     15  C   UNL     1       3.664  -0.029   2.329  0.00  0.00    +0.000 A 
ENDROOT
BRANCH   1  17
ATOM     16  C   UNL     1       1.072   0.076  -0.048  0.00  0.00    +0.000 C 
ATOM     17  C   UNL     1       2.606   0.103  -0.019  0.00  0.00    +0.000 C 
ATOM     18  C   UNL     1       3.102   1.545  -0.063  0.00  0.00    +0.000 C 
ENDBRANCH   1  17
BRANCH   8  19
ATOM     19  N   UNL     1       4.230  -6.728   7.158  0.00  0.00    +0.000 N 
ATOM     20  H   UNL     1       4.619  -6.177   7.905  0.00  0.00    +0.000 HD
ATOM     21  H   UNL     1       4.086  -7.732   7.270  0.00  0.00    +0.000 HD
ENDBRANCH   8  19
BRANCH   9  22
ATOM     22  C   UNL     1       3.125  -8.367   5.048  0.00  0.00    +0.000 C 
ATOM     23  O   UNL     1       3.402  -8.968   6.076  0.00  0.00    +0.000 OA
BRANCH  22  24
ATOM     24  O   UNL     1       2.602  -9.025   3.992  0.00  0.00    +0.000 OA
ATOM     25  H   UNL     1       2.380  -8.552   3.173  0.00  0.00    +0.000 HD
ENDBRANCH  22  24
ENDBRANCH   9  22
TORSDOF 4
