REMARK  Name = Amlodipine
REMARK  14 active torsions:
REMARK  status: ('A' for Active; 'I' for Inactive)
REMARK    1  A    between atoms: C_1  and  C_2
REMARK    2  A    between atoms: C_2  and  O_3
REMARK    3  A    between atoms: O_3  and  C_4
REMARK    4  A    between atoms: C_4  and  C_6
REMARK    5  A    between atoms: C_7  and  C_8
REMARK    6  A    between atoms: C_8  and  O_9
REMARK    7  A    between atoms: O_9  and  C_10
REMARK    8  A    between atoms: C_10  and  C_11
REMARK    9  A    between atoms: C_11  and  N_12
REMARK   10  A    between atoms: C_14  and  C_15
REMARK   11  A    between atoms: C_16  and  C_25
REMARK   12  A    between atoms: C_17  and  C_18
REMARK   13  A    between atoms: C_25  and  O_27
REMARK   14  A    between atoms: O_27  and  C_28
REMARK                            x       y       z     vdW  Elec       q    Type
REMARK                         _______ _______ _______ _____ _____    ______ ____
ROOT
ATOM      1  C   UNL     1       4.921   1.946   2.152  0.00  0.00    +0.000 C 
ATOM      2  C   UNL     1       4.326   1.881   3.367  0.00  0.00    +0.000 C 
ATOM      3  N   UNL     1       4.726   2.782   4.359  0.00  0.00    +0.000 N 
ATOM      4  C   UNL     1       5.500   3.916   4.134  0.00  0.00    +0.000 C 
ATOM      5  C   UNL     1       5.488   4.966   5.222  0.00  0.00    +0.000 C 
ATOM      6  C   UNL     1       6.184   4.066   2.971  0.00  0.00    +0.000 C 
ATOM      7  C   UNL     1       6.082   2.939   1.914  0.00  0.00    +0.000 C 
ATOM      8  H   UNL     1       4.251   2.724   5.257  0.00  0.00    +0.000 HD
ENDROOT
BRANCH   7   9
ATOM      9  C   UNL     1       6.016   3.489   0.505  0.00  0.00    +0.000 A 
ATOM     10  C   UNL     1       7.085   3.223  -0.377  0.00  0.00    +0.000 A 
ATOM     11  C   UNL     1       7.073   3.749  -1.664  0.00  0.00    +0.000 A 
ATOM     12  C   UNL     1       5.993   4.522  -2.084  0.00  0.00    +0.000 A 
ATOM     13  C   UNL     1       4.938   4.797  -1.216  0.00  0.00    +0.000 A 
ATOM     14  C   UNL     1       4.949   4.294   0.076  0.00  0.00    +0.000 A 
ATOM     15 CL   UNL     1       3.628   4.744   1.101  0.00  0.00    +0.000 Cl
ENDBRANCH   7   9
BRANCH   1  16
ATOM     16  C   UNL     1       4.511   1.067   1.013  0.00  0.00    +0.000 C 
ATOM     17  O   UNL     1       5.306   0.322   0.434  0.00  0.00    +0.000 OA
BRANCH  16  18
ATOM     18  O   UNL     1       3.191   1.227   0.680  0.00  0.00    +0.000 OA
BRANCH  18  20
ATOM     19  C   UNL     1       1.102   0.257  -0.207  0.00  0.00    +0.000 C 
ATOM     20  C   UNL     1       2.647   0.234  -0.218  0.00  0.00    +0.000 C 
ENDBRANCH  18  20
ENDBRANCH  16  18
ENDBRANCH   1  16
BRANCH   6  21
ATOM     21  C   UNL     1       6.924   5.359   2.718  0.00  0.00    +0.000 C 
ATOM     22  O   UNL     1       6.891   6.338   3.453  0.00  0.00    +0.000 OA
BRANCH  21  23
ATOM     23  O   UNL     1       7.636   5.360   1.565  0.00  0.00    +0.000 OA
ATOM     24  C   UNL     1       8.227   6.627   1.244  0.00  0.00    +0.000 C 
ENDBRANCH  21  23
ENDBRANCH   6  21
BRANCH   2  25
ATOM     25  C   UNL     1       3.239   0.884   3.769  0.00  0.00    +0.000 C 
BRANCH  25  26
ATOM     26  O   UNL     1       3.065  -0.154   2.809  0.00  0.00    +0.000 OA
BRANCH  26  27
ATOM     27  C   UNL     1       1.930  -0.973   3.060  0.00  0.00    +0.000 C 
BRANCH  27  28
ATOM     28  C   UNL     1       1.757  -2.019   1.948  0.00  0.00    +0.000 C 
BRANCH  28  29
ATOM     29  N   UNL     1       0.602  -2.877   2.146  0.00  0.00    +0.000 NA
ATOM     30  H   UNL     1       0.824  -3.561   2.861  0.00  0.00    +0.000 HD
ATOM     31  H   UNL     1       0.434  -3.387   1.278  0.00  0.00    +0.000 HD
ENDBRANCH  28  29
ENDBRANCH  27  28
ENDBRANCH  26  27
ENDBRANCH  25  26
ENDBRANCH   2  25
TORSDOF 11
