REMARK  Name = Ammonium carbonate
REMARK  0 active torsions:
REMARK  status: ('A' for Active; 'I' for Inactive)
REMARK                            x       y       z     vdW  Elec       q    Type
REMARK                         _______ _______ _______ _____ _____    ______ ____
ROOT
ATOM      1  N   UNL     1       1.405   0.064  -1.282  0.00  0.00    +0.000 N 
ATOM      2  H   UNL     1       2.427   0.017  -1.455  0.00  0.00    +0.000 HD
ATOM      3  H   UNL     1       1.192   1.059  -1.070  0.00  0.00    +0.000 HD
ATOM      4  H   UNL     1       1.635  -0.090  -0.275  0.00  0.00    +0.000 HD
ATOM      5  H   UNL     1       0.829  -0.617  -1.731  0.00  0.00    +0.000 HD
ENDROOT
TORSDOF 0
REMARK  Name = Ammonium carbonate
REMARK  0 active torsions:
REMARK  status: ('A' for Active; 'I' for Inactive)
REMARK                            x       y       z     vdW  Elec       q    Type
REMARK                         _______ _______ _______ _____ _____    ______ ____
ROOT
ATOM      1  N   UNL     1      -0.036  -1.003   0.727  0.00  0.00    +0.000 N 
ATOM      2  H   UNL     1       0.970  -1.224   0.940  0.00  0.00    +0.000 HD
ATOM      3  H   UNL     1      -0.344  -0.294   0.039  0.00  0.00    +0.000 HD
ATOM      4  H   UNL     1       0.243  -0.119   1.233  0.00  0.00    +0.000 HD
ATOM      5  H   UNL     1       0.081  -1.638  -0.072  0.00  0.00    +0.000 HD
ENDROOT
TORSDOF 0
REMARK  Name = Ammonium carbonate
REMARK  0 active torsions:
REMARK  status: ('A' for Active; 'I' for Inactive)
REMARK                            x       y       z     vdW  Elec       q    Type
REMARK                         _______ _______ _______ _____ _____    ______ ____
ROOT
ATOM      1  O   UNL     1       1.754   1.183   0.774  0.00  0.00    +0.000 OA
ATOM      2  C   UNL     1       2.958   0.894   0.672  0.00  0.00    +0.000 C 
ATOM      3  O   UNL     1       3.618   1.432   1.510  0.00  0.00    +0.000 OA
ATOM      4  O   UNL     1       3.310  -0.002  -0.108  0.00  0.00    +0.000 OA
ENDROOT
TORSDOF 0
