REMARK  Name = Ammonium lactate
REMARK  3 active torsions:
REMARK  status: ('A' for Active; 'I' for Inactive)
REMARK    1  A    between atoms: C_2  and  C_3
REMARK    2  A    between atoms: C_3  and  O_4
REMARK    3  A    between atoms: C_3  and  C_5
REMARK                            x       y       z     vdW  Elec       q    Type
REMARK                         _______ _______ _______ _____ _____    ______ ____
ROOT
ATOM      1  N   UNL     1       1.272  -1.643   0.139  0.00  0.00    +0.000 N 
ATOM      2  H   UNL     1       1.413  -0.792  -0.378  0.00  0.00    +0.000 HD
ATOM      3  H   UNL     1       1.674  -2.023  -0.719  0.00  0.00    +0.000 HD
ATOM      4  H   UNL     1       1.696  -1.264   1.007  0.00  0.00    +0.000 HD
ATOM      5  H   UNL     1       0.270  -1.716   0.276  0.00  0.00    +0.000 HD
ENDROOT
TORSDOF 0
REMARK  Name = Ammonium lactate
REMARK  3 active torsions:
REMARK  status: ('A' for Active; 'I' for Inactive)
REMARK    1  A    between atoms: C_2  and  C_3
REMARK    2  A    between atoms: C_3  and  O_4
REMARK    3  A    between atoms: C_3  and  C_5
REMARK                            x       y       z     vdW  Elec       q    Type
REMARK                         _______ _______ _______ _____ _____    ______ ____
ROOT
ATOM      1  C   UNL     2       0.683   0.937   0.020  0.00  0.00    +0.000 C 
ATOM      2  C   UNL     2       2.293   0.856   0.025  0.00  0.00    +0.000 C 
ENDROOT
BRANCH   2   3
ATOM      3  C   UNL     2       3.044   1.739   1.023  0.00  0.00    +0.000 C 
ATOM      4  O   UNL     2       2.203   2.255   1.854  0.00  0.00    +0.000 OA
ATOM      5  O   UNL     2       4.272   1.623   1.089  0.00  0.00    +0.000 OA
ENDBRANCH   2   3
BRANCH   2   6
ATOM      6  O   UNL     2       2.724   0.581  -1.325  0.00  0.00    +0.000 OA
ATOM      7  H   UNL     2       2.773   1.429  -1.798  0.00  0.00    +0.000 HD
ENDBRANCH   2   6
TORSDOF 2
