REMARK  Name = Ammonium chloride
REMARK  0 active torsions:
REMARK  status: ('A' for Active; 'I' for Inactive)
REMARK                            x       y       z     vdW  Elec       q    Type
REMARK                         _______ _______ _______ _____ _____    ______ ____
ROOT
ATOM      1  N   UNL     1       0.941  -0.260   0.496  0.00  0.00    +0.000 N 
ATOM      2  H   UNL     1       1.964  -0.229   0.420  0.00  0.00    +0.000 HD
ATOM      3  H   UNL     1       0.706   0.668   0.080  0.00  0.00    +0.000 HD
ATOM      4  H   UNL     1       0.556  -0.421   1.418  0.00  0.00    +0.000 HD
ATOM      5  H   UNL     1       0.628  -0.883  -0.256  0.00  0.00    +0.000 HD
ENDROOT
TORSDOF 0
REMARK  Name = Ammonium chloride
REMARK  0 active torsions:
REMARK  status: ('A' for Active; 'I' for Inactive)
REMARK                            x       y       z     vdW  Elec       q    Type
REMARK                         _______ _______ _______ _____ _____    ______ ____
ROOT
ATOM      1 CL   UNL     1       1.608   1.021  -1.855  0.00  0.00    +0.000 Cl
ENDROOT
TORSDOF 0
