REMARK  Name = Amobarbital
REMARK  7 active torsions:
REMARK  status: ('A' for Active; 'I' for Inactive)
REMARK    1  A    between atoms: C_1  and  C_2
REMARK    2  A    between atoms: C_2  and  C_3
REMARK    3  A    between atoms: C_3  and  C_4
REMARK    4  A    between atoms: C_4  and  C_5
REMARK    5  A    between atoms: C_5  and  C_6
REMARK    6  A    between atoms: C_6  and  C_7
REMARK    7  A    between atoms: C_6  and  C_8
REMARK                            x       y       z     vdW  Elec       q    Type
REMARK                         _______ _______ _______ _____ _____    ______ ____
ROOT
ATOM      1  C   UNL     1       2.901   0.925  -1.126  0.00  0.00    +0.000 C 
ATOM      2  C   UNL     1       3.515   2.128  -0.435  0.00  0.00    +0.000 C 
ATOM      3  O   UNL     1       4.507   2.049   0.290  0.00  0.00    +0.000 OA
ATOM      4  N   UNL     1       2.924   3.336  -0.646  0.00  0.00    +0.000 N 
ATOM      5  C   UNL     1       1.885   3.599  -1.480  0.00  0.00    +0.000 C 
ATOM      6  O   UNL     1       1.477   4.737  -1.656  0.00  0.00    +0.000 OA
ATOM      7  N   UNL     1       1.336   2.540  -2.129  0.00  0.00    +0.000 N 
ATOM      8  C   UNL     1       1.804   1.264  -2.125  0.00  0.00    +0.000 C 
ATOM      9  O   UNL     1       1.333   0.441  -2.911  0.00  0.00    +0.000 OA
ATOM     10  H   UNL     1       3.352   4.130  -0.190  0.00  0.00    +0.000 HD
ATOM     11  H   UNL     1       0.607   2.745  -2.798  0.00  0.00    +0.000 HD
ENDROOT
BRANCH   1  13
ATOM     12  C   UNL     1       0.857  -0.074   0.077  0.00  0.00    +0.000 C 
ATOM     13  C   UNL     1       2.376  -0.034  -0.025  0.00  0.00    +0.000 C 
ENDBRANCH   1  13
BRANCH   1  14
ATOM     14  C   UNL     1       4.016   0.236  -1.933  0.00  0.00    +0.000 C 
BRANCH  14  15
ATOM     15  C   UNL     1       4.530   1.141  -3.062  0.00  0.00    +0.000 C 
BRANCH  15  16
ATOM     16  C   UNL     1       5.582   0.456  -3.927  0.00  0.00    +0.000 C 
ATOM     17  C   UNL     1       5.018  -0.802  -4.588  0.00  0.00    +0.000 C 
ATOM     18  C   UNL     1       6.053   1.439  -4.996  0.00  0.00    +0.000 C 
ENDBRANCH  15  16
ENDBRANCH  14  15
ENDBRANCH   1  14
TORSDOF 4
