REMARK  Name = Amodiaquine
REMARK  9 active torsions:
REMARK  status: ('A' for Active; 'I' for Inactive)
REMARK    1  A    between atoms: C_1  and  C_2
REMARK    2  A    between atoms: C_2  and  N_3
REMARK    3  A    between atoms: N_3  and  C_4
REMARK    4  A    between atoms: N_3  and  C_6
REMARK    5  A    between atoms: C_4  and  C_5
REMARK    6  A    between atoms: C_6  and  C_7
REMARK    7  A    between atoms: C_8  and  O_9
REMARK    8  A    between atoms: C_12  and  N_13
REMARK    9  A    between atoms: N_13  and  C_14
REMARK                            x       y       z     vdW  Elec       q    Type
REMARK                         _______ _______ _______ _____ _____    ______ ____
ROOT
ATOM      1  C   UNL     1       5.040  -2.610   1.206  0.00  0.00    +0.000 A 
ATOM      2  C   UNL     1       4.845  -3.906   0.716  0.00  0.00    +0.000 A 
ATOM      3  C   UNL     1       5.049  -5.026   1.513  0.00  0.00    +0.000 A 
ATOM      4  C   UNL     1       5.679  -4.896   2.743  0.00  0.00    +0.000 A 
ATOM      5  C   UNL     1       6.126  -3.644   3.168  0.00  0.00    +0.000 A 
ATOM      6  C   UNL     1       5.772  -2.511   2.400  0.00  0.00    +0.000 A 
ENDROOT
BRANCH   2   7
ATOM      7  O   UNL     1       4.411  -4.183  -0.551  0.00  0.00    +0.000 OA
ATOM      8  H   UNL     1       4.398  -3.352  -1.051  0.00  0.00    +0.000 HD
ENDBRANCH   2   7
BRANCH   5   9
ATOM      9  N   UNL     1       6.784  -3.541   4.419  0.00  0.00    +0.000 N 
ATOM     10  H   UNL     1       7.258  -4.394   4.697  0.00  0.00    +0.000 HD
BRANCH   9  11
ATOM     11  C   UNL     1       7.355  -2.358   4.953  0.00  0.00    +0.000 A 
ATOM     12  C   UNL     1       6.533  -1.274   5.335  0.00  0.00    +0.000 A 
ATOM     13  C   UNL     1       5.125  -1.348   5.351  0.00  0.00    +0.000 A 
ATOM     14  C   UNL     1       4.344  -0.249   5.670  0.00  0.00    +0.000 A 
ATOM     15  C   UNL     1       4.976   0.935   6.024  0.00  0.00    +0.000 A 
ATOM     16 CL   UNL     1       4.022   2.301   6.446  0.00  0.00    +0.000 Cl
ATOM     17  C   UNL     1       6.368   1.018   6.041  0.00  0.00    +0.000 A 
ATOM     18  C   UNL     1       7.168  -0.060   5.697  0.00  0.00    +0.000 A 
ATOM     19  N   UNL     1       8.502   0.076   5.697  0.00  0.00    +0.000 NA
ATOM     20  C   UNL     1       9.258  -0.982   5.333  0.00  0.00    +0.000 A 
ATOM     21  C   UNL     1       8.739  -2.208   4.958  0.00  0.00    +0.000 A 
ENDBRANCH   9  11
ENDBRANCH   5   9
BRANCH   1  22
ATOM     22  C   UNL     1       4.464  -1.342   0.564  0.00  0.00    +0.000 C 
BRANCH  22  23
ATOM     23  N   UNL     1       2.957  -1.213   0.579  0.00  0.00    +0.000 NA
BRANCH  23  25
ATOM     24  C   UNL     1       1.074   0.343  -0.051  0.00  0.00    +0.000 C 
ATOM     25  C   UNL     1       2.574   0.064  -0.060  0.00  0.00    +0.000 C 
ENDBRANCH  23  25
BRANCH  23  26
ATOM     26  C   UNL     1       2.321  -2.370  -0.071  0.00  0.00    +0.000 C 
ATOM     27  C   UNL     1       0.830  -2.651  -0.060  0.00  0.00    +0.000 C 
ENDBRANCH  23  26
ENDBRANCH  22  23
ENDBRANCH   1  22
TORSDOF 7
