REMARK  Name = Amorolfine
REMARK  12 active torsions:
REMARK  status: ('A' for Active; 'I' for Inactive)
REMARK    1  A    between atoms: C_2  and  C_3
REMARK    2  A    between atoms: C_2  and  C_4
REMARK    3  A    between atoms: C_2  and  C_15
REMARK    4  A    between atoms: C_4  and  N_5
REMARK    5  A    between atoms: C_7  and  C_9
REMARK    6  A    between atoms: C_11  and  C_13
REMARK    7  A    between atoms: C_15  and  C_16
REMARK    8  A    between atoms: C_19  and  C_22
REMARK    9  A    between atoms: C_22  and  C_23
REMARK   10  A    between atoms: C_22  and  C_24
REMARK   11  A    between atoms: C_22  and  C_25
REMARK   12  A    between atoms: C_25  and  C_26
REMARK                            x       y       z     vdW  Elec       q    Type
REMARK                         _______ _______ _______ _____ _____    ______ ____
ROOT
ATOM      1  C   UNL     1       2.633  -0.958   0.907  0.00  0.00    +0.000 C 
ENDROOT
BRANCH   1   2
ATOM      2  C   UNL     1       4.140  -1.023   0.927  0.00  0.00    +0.000 A 
ATOM      3  C   UNL     1       4.936  -0.143   0.185  0.00  0.00    +0.000 A 
ATOM      4  C   UNL     1       6.300  -0.246   0.126  0.00  0.00    +0.000 A 
ATOM      5  C   UNL     1       6.938  -1.218   0.863  0.00  0.00    +0.000 A 
ATOM      6  C   UNL     1       6.158  -2.121   1.614  0.00  0.00    +0.000 A 
ATOM      7  C   UNL     1       4.766  -2.016   1.658  0.00  0.00    +0.000 A 
BRANCH   5   8
ATOM      8  C   UNL     1       8.460  -1.189   0.831  0.00  0.00    +0.000 C 
ATOM      9  C   UNL     1       8.931  -1.361  -0.633  0.00  0.00    +0.000 C 
ATOM     10  C   UNL     1       8.912   0.198   1.359  0.00  0.00    +0.000 C 
BRANCH   8  11
ATOM     11  C   UNL     1       9.021  -2.312   1.724  0.00  0.00    +0.000 C 
ATOM     12  C   UNL     1      10.530  -2.367   1.789  0.00  0.00    +0.000 C 
ENDBRANCH   8  11
ENDBRANCH   5   8
ENDBRANCH   1   2
BRANCH   1  13
ATOM     13  C   UNL     1       2.064   0.089  -0.064  0.00  0.00    +0.000 C 
ATOM     14  C   UNL     1       2.418  -0.218  -1.530  0.00  0.00    +0.000 C 
BRANCH  13  15
ATOM     15  C   UNL     1       2.446   1.486   0.450  0.00  0.00    +0.000 C 
BRANCH  15  16
ATOM     16  N   UNL     1       1.948   2.540  -0.433  0.00  0.00    +0.000 NA
ATOM     17  C   UNL     1       0.849   3.198   0.282  0.00  0.00    +0.000 C 
ATOM     18  C   UNL     1       1.368   3.947   1.533  0.00  0.00    +0.000 C 
ATOM     19  C   UNL     1       0.179   4.488   2.293  0.00  0.00    +0.000 C 
ATOM     20  O   UNL     1       2.290   4.981   1.152  0.00  0.00    +0.000 OA
ATOM     21  C   UNL     1       3.430   4.402   0.476  0.00  0.00    +0.000 C 
ATOM     22  C   UNL     1       4.371   5.527   0.060  0.00  0.00    +0.000 C 
ATOM     23  C   UNL     1       2.973   3.569  -0.749  0.00  0.00    +0.000 C 
ENDBRANCH  15  16
ENDBRANCH  13  15
ENDBRANCH   1  13
TORSDOF 6
