REMARK  Name = Amoxicillin
REMARK  9 active torsions:
REMARK  status: ('A' for Active; 'I' for Inactive)
REMARK    1  A    between atoms: C_4  and  C_5
REMARK    2  A    between atoms: C_4  and  C_6
REMARK    3  A    between atoms: CA_7  and  C_24
REMARK    4  A    between atoms: CA_11  and  N_12
REMARK    5  A    between atoms: C_13  and  CA_15
REMARK    6  A    between atoms: CA_15  and  N_16
REMARK    7  A    between atoms: CA_15  and  C_17
REMARK    8  A    between atoms: C_20  and  O_21
REMARK    9  A    between atoms: C_24  and  O_25
REMARK                            x       y       z     vdW  Elec       q    Type
REMARK                         _______ _______ _______ _____ _____    ______ ____
ROOT
ATOM      1  N   UNL     1       3.671   2.343  -5.073  0.00  0.00    +0.000 N 
ATOM      2  C   UNL     1       3.434   3.199  -4.018  0.00  0.00    +0.000 C 
ATOM      3  O   UNL     1       2.400   3.870  -3.980  0.00  0.00    +0.000 OA
ATOM      4  H   UNL     1       4.487   1.741  -5.067  0.00  0.00    +0.000 HD
ENDROOT
BRANCH   1  14
ATOM      5  C   UNL     1       2.957   1.289  -7.324  0.00  0.00    +0.000 C 
ATOM      6  S   UNL     1       4.199  -0.027  -7.063  0.00  0.00    +0.000 S 
ATOM      7  C   UNL     1       2.985  -1.321  -7.660  0.00  0.00    +0.000 C 
ATOM      8  C   UNL     1       3.445  -2.656  -7.069  0.00  0.00    +0.000 C 
ATOM      9  C   UNL     1       3.088  -1.288  -9.196  0.00  0.00    +0.000 C 
ATOM     10  CA  UNL     1       1.631  -0.855  -7.074  0.00  0.00    +0.000 C 
ATOM     11  N   UNL     1       1.666   0.623  -7.080  0.00  0.00    +0.000 N 
ATOM     12  C   UNL     1       1.424   1.337  -5.931  0.00  0.00    +0.000 C 
ATOM     13  O   UNL     1       0.630   1.140  -5.033  0.00  0.00    +0.000 OA
ATOM     14  CA  UNL     1       2.660   2.250  -6.167  0.00  0.00    +0.000 C 
BRANCH  10  15
ATOM     15  C   UNL     1       0.313  -1.380  -7.694  0.00  0.00    +0.000 C 
ATOM     16  OXT UNL     1      -0.790  -0.983  -7.336  0.00  0.00    +0.000 OA
BRANCH  15  17
ATOM     17  O   UNL     1       0.366  -2.332  -8.646  0.00  0.00    +0.000 OA
ATOM     18  H   UNL     1       1.181  -2.829  -8.813  0.00  0.00    +0.000 HD
ENDBRANCH  15  17
ENDBRANCH  10  15
ENDBRANCH   1  14
BRANCH   2  19
ATOM     19  CA  UNL     1       4.544   3.291  -2.930  0.00  0.00    +0.000 C 
BRANCH  19  20
ATOM     20  C   UNL     1       5.149   4.687  -2.865  0.00  0.00    +0.000 A 
ATOM     21  C   UNL     1       6.539   4.872  -2.782  0.00  0.00    +0.000 A 
ATOM     22  C   UNL     1       7.085   6.163  -2.741  0.00  0.00    +0.000 A 
ATOM     23  C   UNL     1       6.241   7.270  -2.780  0.00  0.00    +0.000 A 
ATOM     24  C   UNL     1       4.868   7.108  -2.832  0.00  0.00    +0.000 A 
ATOM     25  C   UNL     1       4.327   5.827  -2.859  0.00  0.00    +0.000 A 
BRANCH  23  26
ATOM     26  O   UNL     1       6.708   8.550  -2.766  0.00  0.00    +0.000 OA
ATOM     27  H   UNL     1       7.677   8.539  -2.744  0.00  0.00    +0.000 HD
ENDBRANCH  23  26
ENDBRANCH  19  20
BRANCH  19  28
ATOM     28  N   UNL     1       3.965   2.917  -1.628  0.00  0.00    +0.000 NA
ATOM     29  H1  UNL     1       3.215   3.585  -1.428  0.00  0.00    +0.000 HD
ATOM     30  H2  UNL     1       4.659   3.059  -0.898  0.00  0.00    +0.000 HD
ENDBRANCH  19  28
ENDBRANCH   2  19
TORSDOF 7
