REMARK  Name = Amoxapine
REMARK  0 active torsions:
REMARK  status: ('A' for Active; 'I' for Inactive)
REMARK                            x       y       z     vdW  Elec       q    Type
REMARK                         _______ _______ _______ _____ _____    ______ ____
ROOT
ATOM      1 CL   UNL     1      -4.390  -0.051  -0.768  0.00  0.00    +0.000 Cl
ATOM      2  C   UNL     1      -2.797   0.200  -0.165  0.00  0.00    +0.000 A 
ATOM      3  C   UNL     1      -1.961  -0.899   0.030  0.00  0.00    +0.000 A 
ATOM      4  C   UNL     1      -0.663  -0.743   0.525  0.00  0.00    +0.000 A 
ATOM      5  C   UNL     1      -0.225   0.559   0.802  0.00  0.00    +0.000 A 
ATOM      6  O   UNL     1       1.027   0.835   1.293  0.00  0.00    +0.000 OA
ATOM      7  C   UNL     1       2.023   0.479   0.416  0.00  0.00    +0.000 A 
ATOM      8  C   UNL     1       2.835   1.512  -0.075  0.00  0.00    +0.000 A 
ATOM      9  C   UNL     1       3.865   1.217  -0.962  0.00  0.00    +0.000 A 
ATOM     10  C   UNL     1       4.082  -0.104  -1.347  0.00  0.00    +0.000 A 
ATOM     11  C   UNL     1       3.270  -1.129  -0.839  0.00  0.00    +0.000 A 
ATOM     12  C   UNL     1       2.226  -0.856   0.051  0.00  0.00    +0.000 A 
ATOM     13  N   UNL     1       1.512  -1.941   0.609  0.00  0.00    +0.000 NA
ATOM     14  C   UNL     1       0.228  -1.931   0.825  0.00  0.00    +0.000 C 
ATOM     15  N   UNL     1      -0.338  -3.039   1.460  0.00  0.00    +0.000 N 
ATOM     16  C   UNL     1       0.256  -3.605   2.682  0.00  0.00    +0.000 C 
ATOM     17  C   UNL     1      -0.876  -3.807   3.727  0.00  0.00    +0.000 C 
ATOM     18  N   UNL     1      -2.006  -4.627   3.229  0.00  0.00    +0.000 NA
ATOM     19  C   UNL     1      -2.492  -4.073   1.946  0.00  0.00    +0.000 C 
ATOM     20  C   UNL     1      -1.350  -3.942   0.910  0.00  0.00    +0.000 C 
ATOM     21  C   UNL     1      -1.067   1.665   0.613  0.00  0.00    +0.000 A 
ATOM     22  C   UNL     1      -2.358   1.484   0.126  0.00  0.00    +0.000 A 
ATOM     23  H   UNL     1      -2.761  -4.611   3.913  0.00  0.00    +0.000 HD
ENDROOT
TORSDOF 0
