REMARK  Name = Amphetamine
REMARK  4 active torsions:
REMARK  status: ('A' for Active; 'I' for Inactive)
REMARK    1  A    between atoms: C_1  and  C_2
REMARK    2  A    between atoms: C_2  and  N_3
REMARK    3  A    between atoms: C_2  and  C_4
REMARK    4  A    between atoms: C_4  and  C_5
REMARK                            x       y       z     vdW  Elec       q    Type
REMARK                         _______ _______ _______ _____ _____    ______ ____
ROOT
ATOM      1  C   UNL     1       3.041   1.040  -1.048  0.00  0.00    +0.000 C 
ENDROOT
BRANCH   1   2
ATOM      2  C   UNL     1       4.557   1.110  -1.039  0.00  0.00    +0.000 A 
ATOM      3  C   UNL     1       5.336  -0.059  -1.059  0.00  0.00    +0.000 A 
ATOM      4  C   UNL     1       6.711  -0.014  -0.858  0.00  0.00    +0.000 A 
ATOM      5  C   UNL     1       7.349   1.208  -0.765  0.00  0.00    +0.000 A 
ATOM      6  C   UNL     1       6.609   2.389  -0.853  0.00  0.00    +0.000 A 
ATOM      7  C   UNL     1       5.216   2.339  -0.978  0.00  0.00    +0.000 A 
ENDBRANCH   1   2
BRANCH   1   9
ATOM      8  C   UNL     1       0.929   0.115   0.009  0.00  0.00    +0.000 C 
ATOM      9  C   UNL     1       2.452   0.043  -0.011  0.00  0.00    +0.000 C 
BRANCH   9  10
ATOM     10  N   UNL     1       2.812  -1.351  -0.289  0.00  0.00    +0.000 NA
ATOM     11  H   UNL     1       2.489  -1.623  -1.215  0.00  0.00    +0.000 HD
ATOM     12  H   UNL     1       2.409  -1.984   0.395  0.00  0.00    +0.000 HD
ENDBRANCH   9  10
ENDBRANCH   1   9
TORSDOF 3
