REMARK  Name = Ampicillin
REMARK  8 active torsions:
REMARK  status: ('A' for Active; 'I' for Inactive)
REMARK    1  A    between atoms: C_4  and  C_5
REMARK    2  A    between atoms: C_4  and  C_6
REMARK    3  A    between atoms: CA_7  and  C_23
REMARK    4  A    between atoms: CA_11  and  N_12
REMARK    5  A    between atoms: C_13  and  CA_15
REMARK    6  A    between atoms: CA_15  and  N_16
REMARK    7  A    between atoms: CA_15  and  C_17
REMARK    8  A    between atoms: C_23  and  O_24
REMARK                            x       y       z     vdW  Elec       q    Type
REMARK                         _______ _______ _______ _____ _____    ______ ____
ROOT
ATOM      1  C   UNL     1       2.952   1.306  -7.388  0.00  0.00    +0.000 C 
ATOM      2  S   UNL     1       4.195  -0.009  -7.125  0.00  0.00    +0.000 S 
ATOM      3  C   UNL     1       2.981  -1.302  -7.718  0.00  0.00    +0.000 C 
ATOM      4  C   UNL     1       3.441  -2.636  -7.127  0.00  0.00    +0.000 C 
ATOM      5  C   UNL     1       3.084  -1.269  -9.255  0.00  0.00    +0.000 C 
ATOM      6  CA  UNL     1       1.627  -0.837  -7.133  0.00  0.00    +0.000 C 
ATOM      7  N   UNL     1       1.660   0.640  -7.142  0.00  0.00    +0.000 N 
ATOM      8  C   UNL     1       1.420   1.355  -5.993  0.00  0.00    +0.000 C 
ATOM      9  O   UNL     1       0.625   1.159  -5.095  0.00  0.00    +0.000 OA
ATOM     10  CA  UNL     1       2.656   2.265  -6.232  0.00  0.00    +0.000 C 
ENDROOT
BRANCH  10  11
ATOM     11  N   UNL     1       3.670   2.354  -5.144  0.00  0.00    +0.000 N 
ATOM     12  C   UNL     1       3.417   3.179  -4.072  0.00  0.00    +0.000 C 
ATOM     13  O   UNL     1       2.359   3.809  -4.007  0.00  0.00    +0.000 OA
ATOM     14  H   UNL     1       4.489   1.756  -5.142  0.00  0.00    +0.000 HD
BRANCH  12  15
ATOM     15  CA  UNL     1       4.541   3.296  -3.006  0.00  0.00    +0.000 C 
BRANCH  15  16
ATOM     16  C   UNL     1       5.146   4.692  -2.944  0.00  0.00    +0.000 A 
ATOM     17  C   UNL     1       6.454   4.879  -2.471  0.00  0.00    +0.000 A 
ATOM     18  C   UNL     1       6.945   6.169  -2.245  0.00  0.00    +0.000 A 
ATOM     19  C   UNL     1       6.179   7.286  -2.578  0.00  0.00    +0.000 A 
ATOM     20  C   UNL     1       4.897   7.118  -3.080  0.00  0.00    +0.000 A 
ATOM     21  C   UNL     1       4.384   5.836  -3.242  0.00  0.00    +0.000 A 
ENDBRANCH  15  16
BRANCH  15  22
ATOM     22  N   UNL     1       3.965   2.936  -1.696  0.00  0.00    +0.000 NA
ATOM     23  H1  UNL     1       3.221   3.614  -1.504  0.00  0.00    +0.000 HD
ATOM     24  H2  UNL     1       4.661   3.083  -0.968  0.00  0.00    +0.000 HD
ENDBRANCH  15  22
ENDBRANCH  12  15
ENDBRANCH  10  11
BRANCH   6  25
ATOM     25  C   UNL     1       0.309  -1.361  -7.752  0.00  0.00    +0.000 C 
ATOM     26  OXT UNL     1      -0.794  -0.963  -7.395  0.00  0.00    +0.000 OA
BRANCH  25  27
ATOM     27  O   UNL     1       0.362  -2.313  -8.705  0.00  0.00    +0.000 OA
ATOM     28  H   UNL     1       1.178  -2.809  -8.871  0.00  0.00    +0.000 HD
ENDBRANCH  25  27
ENDBRANCH   6  25
TORSDOF 6
