REMARK  Name = Amprenavir
REMARK  16 active torsions:
REMARK  status: ('A' for Active; 'I' for Inactive)
REMARK    1  A    between atoms: C_1  and  C_2
REMARK    2  A    between atoms: C_2  and  C_3
REMARK    3  A    between atoms: C_2  and  C_4
REMARK    4  A    between atoms: C_4  and  N_5
REMARK    5  A    between atoms: N_5  and  C_6
REMARK    6  A    between atoms: N_5  and  S_26
REMARK    7  A    between atoms: C_6  and  C_7
REMARK    8  A    between atoms: C_7  and  O_8
REMARK    9  A    between atoms: C_7  and  C_9
REMARK   10  A    between atoms: C_9  and  C_10
REMARK   11  A    between atoms: C_9  and  N_17
REMARK   12  A    between atoms: C_10  and  C_11
REMARK   13  A    between atoms: C_18  and  O_20
REMARK   14  A    between atoms: O_20  and  C_21
REMARK   15  A    between atoms: S_26  and  C_29
REMARK   16  A    between atoms: C_32  and  N_33
REMARK                            x       y       z     vdW  Elec       q    Type
REMARK                         _______ _______ _______ _____ _____    ______ ____
ROOT
ATOM      1  C   UNL     1       6.387   1.728   4.135  0.00  0.00    +0.000 C 
ENDROOT
BRANCH   1   2
ATOM      2  O   UNL     1       5.991   1.356   2.907  0.00  0.00    +0.000 OA
ATOM      3  H   UNL     1       5.653   0.475   3.004  0.00  0.00    +0.000 HD
ENDBRANCH   1   2
BRANCH   1   4
ATOM      4  C   UNL     1       7.557   2.506   3.424  0.00  0.00    +0.000 C 
BRANCH   4   5
ATOM      5  N   UNL     1       7.184   3.089   2.025  0.00  0.00    +0.000 NA
BRANCH   5   6
ATOM      6  S   UNL     1       7.959   4.574   1.559  0.00  0.00    +0.000 S 
ATOM      7  O   UNL     1       9.377   4.237   1.366  0.00  0.00    +0.000 OA
ATOM      8  O   UNL     1       7.227   5.201   0.505  0.00  0.00    +0.000 OA
BRANCH   6   9
ATOM      9  C   UNL     1       7.933   5.696   2.974  0.00  0.00    +0.000 A 
ATOM     10  C   UNL     1       8.456   6.973   2.914  0.00  0.00    +0.000 A 
ATOM     11  C   UNL     1       8.550   7.768   4.092  0.00  0.00    +0.000 A 
ATOM     12  C   UNL     1       8.067   7.347   5.338  0.00  0.00    +0.000 A 
ATOM     13  C   UNL     1       7.549   6.074   5.390  0.00  0.00    +0.000 A 
ATOM     14  C   UNL     1       7.409   5.332   4.194  0.00  0.00    +0.000 A 
BRANCH  12  15
ATOM     15  N   UNL     1       7.700   8.268   6.321  0.00  0.00    +0.000 N 
ATOM     16  H   UNL     1       8.184   9.153   6.362  0.00  0.00    +0.000 HD
ATOM     17  H   UNL     1       7.305   7.943   7.199  0.00  0.00    +0.000 HD
ENDBRANCH  12  15
ENDBRANCH   6   9
ENDBRANCH   5   6
BRANCH   5  18
ATOM     18  C   UNL     1       7.049   1.973   0.787  0.00  0.00    +0.000 C 
BRANCH  18  20
ATOM     19  C   UNL     1       6.021  -0.307  -0.275  0.00  0.00    +0.000 C 
ATOM     20  C   UNL     1       6.333   0.502   0.960  0.00  0.00    +0.000 C 
ATOM     21  C   UNL     1       6.952  -0.547   2.004  0.00  0.00    +0.000 C 
ENDBRANCH  18  20
ENDBRANCH   5  18
ENDBRANCH   4   5
ENDBRANCH   1   4
BRANCH   1  22
ATOM     22  C   UNL     1       4.801   1.789   4.416  0.00  0.00    +0.000 C 
BRANCH  22  23
ATOM     23  N   UNL     1       4.385   3.053   4.908  0.00  0.00    +0.000 N 
ATOM     24  C   UNL     1       5.220   3.720   5.739  0.00  0.00    +0.000 C 
ATOM     25  O   UNL     1       6.114   3.177   6.363  0.00  0.00    +0.000 OA
ATOM     26  H   UNL     1       3.880   3.584   4.233  0.00  0.00    +0.000 HD
BRANCH  24  27
ATOM     27  O   UNL     1       5.095   5.072   5.679  0.00  0.00    +0.000 OA
BRANCH  27  28
ATOM     28  C   UNL     1       4.472   5.894   4.650  0.00  0.00    +0.000 C 
ATOM     29  C   UNL     1       3.363   6.529   5.396  0.00  0.00    +0.000 C 
ATOM     30  C   UNL     1       2.998   7.707   4.539  0.00  0.00    +0.000 C 
ATOM     31  O   UNL     1       4.142   8.118   3.807  0.00  0.00    +0.000 OA
ATOM     32  C   UNL     1       5.157   7.158   4.081  0.00  0.00    +0.000 C 
ENDBRANCH  27  28
ENDBRANCH  24  27
ENDBRANCH  22  23
BRANCH  22  33
ATOM     33  C   UNL     1       3.732   1.387   3.104  0.00  0.00    +0.000 C 
BRANCH  33  34
ATOM     34  C   UNL     1       3.716   2.356   1.879  0.00  0.00    +0.000 A 
ATOM     35  C   UNL     1       4.368   3.590   1.933  0.00  0.00    +0.000 A 
ATOM     36  C   UNL     1       4.459   4.501   0.888  0.00  0.00    +0.000 A 
ATOM     37  C   UNL     1       4.038   4.122  -0.361  0.00  0.00    +0.000 A 
ATOM     38  C   UNL     1       3.418   2.882  -0.503  0.00  0.00    +0.000 A 
ATOM     39  C   UNL     1       3.244   2.010   0.603  0.00  0.00    +0.000 A 
ENDBRANCH  33  34
ENDBRANCH  22  33
ENDBRANCH   1  22
TORSDOF 14
