REMARK  Name = Amrinone
REMARK  2 active torsions:
REMARK  status: ('A' for Active; 'I' for Inactive)
REMARK    1  A    between atoms: N_1  and  C_2
REMARK    2  A    between atoms: C_4  and  C_9
REMARK                            x       y       z     vdW  Elec       q    Type
REMARK                         _______ _______ _______ _____ _____    ______ ____
ROOT
ATOM      1  C   UNL     1       2.338   0.150   0.001  0.00  0.00    +0.000 A 
ATOM      2  C   UNL     1       3.051   1.288  -0.013  0.00  0.00    +0.000 A 
ATOM      3  C   UNL     1       4.491   1.320  -0.241  0.00  0.00    +0.000 A 
ATOM      4  C   UNL     1       5.155   0.152  -0.290  0.00  0.00    +0.000 A 
ATOM      5  N   UNL     1       4.485  -1.040  -0.167  0.00  0.00    +0.000 N 
ATOM      6  C   UNL     1       3.116  -1.150  -0.115  0.00  0.00    +0.000 A 
ATOM      7  O   UNL     1       2.544  -2.242  -0.144  0.00  0.00    +0.000 OA
ATOM      8  H   UNL     1       4.996  -1.914  -0.162  0.00  0.00    +0.000 HD
ENDROOT
BRANCH   3   9
ATOM      9  C   UNL     1       5.214   2.590  -0.455  0.00  0.00    +0.000 A 
ATOM     10  C   UNL     1       5.190   3.582   0.526  0.00  0.00    +0.000 A 
ATOM     11  C   UNL     1       5.698   4.831   0.212  0.00  0.00    +0.000 A 
ATOM     12  N   UNL     1       6.325   5.114  -0.949  0.00  0.00    +0.000 NA
ATOM     13  C   UNL     1       6.421   4.111  -1.847  0.00  0.00    +0.000 A 
ATOM     14  C   UNL     1       5.847   2.863  -1.671  0.00  0.00    +0.000 A 
ENDBRANCH   3   9
BRANCH   1  15
ATOM     15  N   UNL     1       0.968   0.080   0.167  0.00  0.00    +0.000 N 
ATOM     16  H   UNL     1       0.437   0.914  -0.056  0.00  0.00    +0.000 HD
ATOM     17  H   UNL     1       0.565  -0.806  -0.142  0.00  0.00    +0.000 HD
ENDBRANCH   1  15
TORSDOF 2
