REMARK  Name = Amsacrine
REMARK  7 active torsions:
REMARK  status: ('A' for Active; 'I' for Inactive)
REMARK    1  A    between atoms: C_1  and  O_2
REMARK    2  A    between atoms: O_2  and  C_3
REMARK    3  A    between atoms: C_4  and  N_5
REMARK    4  A    between atoms: N_5  and  C_6
REMARK    5  A    between atoms: C_22  and  N_23
REMARK    6  A    between atoms: N_23  and  S_24
REMARK    7  A    between atoms: S_24  and  C_25
REMARK                            x       y       z     vdW  Elec       q    Type
REMARK                         _______ _______ _______ _____ _____    ______ ____
ROOT
ATOM      1  N   UNL     1       4.172  -0.716  -1.755  0.00  0.00    +0.000 N 
ATOM      2  H   UNL     1       5.015  -0.836  -2.319  0.00  0.00    +0.000 HD
ENDROOT
BRANCH   1   3
ATOM      3  C   UNL     1       3.674  -1.983  -1.272  0.00  0.00    +0.000 A 
ATOM      4  C   UNL     1       4.150  -3.219  -1.702  0.00  0.00    +0.000 A 
ATOM      5  C   UNL     1       5.170  -3.424  -2.642  0.00  0.00    +0.000 A 
ATOM      6  C   UNL     1       5.419  -4.710  -3.105  0.00  0.00    +0.000 A 
ATOM      7  C   UNL     1       4.712  -5.802  -2.599  0.00  0.00    +0.000 A 
ATOM      8  C   UNL     1       3.755  -5.620  -1.620  0.00  0.00    +0.000 A 
ATOM      9  C   UNL     1       3.537  -4.382  -1.124  0.00  0.00    +0.000 A 
ATOM     10  N   UNL     1       2.831  -4.388  -0.001  0.00  0.00    +0.000 NA
ATOM     11  C   UNL     1       2.578  -3.235   0.540  0.00  0.00    +0.000 A 
ATOM     12  C   UNL     1       2.309  -2.990   1.907  0.00  0.00    +0.000 A 
ATOM     13  C   UNL     1       1.813  -1.820   2.391  0.00  0.00    +0.000 A 
ATOM     14  C   UNL     1       1.445  -1.004   1.392  0.00  0.00    +0.000 A 
ATOM     15  C   UNL     1       1.680  -1.349   0.002  0.00  0.00    +0.000 A 
ATOM     16  C   UNL     1       2.691  -2.133  -0.268  0.00  0.00    +0.000 A 
ENDBRANCH   1   3
BRANCH   1  18
ATOM     17  C   UNL     1       2.842   1.235  -0.786  0.00  0.00    +0.000 A 
ATOM     18  C   UNL     1       3.909   0.676  -1.502  0.00  0.00    +0.000 A 
ATOM     19  C   UNL     1       4.759   1.673  -2.101  0.00  0.00    +0.000 A 
ATOM     20  C   UNL     1       4.437   3.078  -2.044  0.00  0.00    +0.000 A 
ATOM     21  C   UNL     1       3.396   3.517  -1.242  0.00  0.00    +0.000 A 
ATOM     22  C   UNL     1       2.741   2.562  -0.583  0.00  0.00    +0.000 A 
BRANCH  17  24
ATOM     23  C   UNL     1       0.384   0.913  -0.169  0.00  0.00    +0.000 C 
ATOM     24  O   UNL     1       1.864   0.829   0.051  0.00  0.00    +0.000 OA
ENDBRANCH  17  24
BRANCH  21  25
ATOM     25  N   UNL     1       2.776   4.794  -1.136  0.00  0.00    +0.000 N 
ATOM     26  H   UNL     1       3.295   5.612  -1.428  0.00  0.00    +0.000 HD
BRANCH  25  27
ATOM     27  S   UNL     1       1.543   5.113   0.043  0.00  0.00    +0.000 S 
ATOM     28  C   UNL     1       0.088   4.246  -0.608  0.00  0.00    +0.000 C 
ATOM     29  O   UNL     1       1.892   4.529   1.325  0.00  0.00    +0.000 OA
ATOM     30  O   UNL     1       1.267   6.527  -0.044  0.00  0.00    +0.000 OA
ENDBRANCH  25  27
ENDBRANCH  21  25
ENDBRANCH   1  18
TORSDOF 5
