REMARK  Name = Amylmetacresol
REMARK  7 active torsions:
REMARK  status: ('A' for Active; 'I' for Inactive)
REMARK    1  A    between atoms: C_1  and  C_2
REMARK    2  A    between atoms: C_2  and  C_3
REMARK    3  A    between atoms: C_3  and  C_4
REMARK    4  A    between atoms: C_4  and  C_5
REMARK    5  A    between atoms: C_5  and  C_6
REMARK    6  A    between atoms: C_9  and  C_10
REMARK    7  A    between atoms: C_12  and  O_13
REMARK                            x       y       z     vdW  Elec       q    Type
REMARK                         _______ _______ _______ _____ _____    ______ ____
ROOT
ATOM      1  C   UNL     1       6.624   2.383   1.802  0.00  0.00    +0.000 A 
ATOM      2  C   UNL     1       7.338   1.561   2.687  0.00  0.00    +0.000 A 
ATOM      3  C   UNL     1       8.734   1.537   2.664  0.00  0.00    +0.000 A 
ATOM      4  C   UNL     1       9.437   2.325   1.747  0.00  0.00    +0.000 A 
ATOM      5  C   UNL     1      10.934   2.308   1.686  0.00  0.00    +0.000 C 
ATOM      6  C   UNL     1       8.727   3.145   0.861  0.00  0.00    +0.000 A 
ATOM      7  C   UNL     1       7.334   3.170   0.894  0.00  0.00    +0.000 A 
ENDROOT
BRANCH   7   8
ATOM      8  O   UNL     1       6.646   3.966   0.023  0.00  0.00    +0.000 OA
ATOM      9  H   UNL     1       7.284   4.471  -0.505  0.00  0.00    +0.000 HD
ENDBRANCH   7   8
BRANCH   1  10
ATOM     10  C   UNL     1       5.118   2.353   1.807  0.00  0.00    +0.000 C 
BRANCH  10  11
ATOM     11  C   UNL     1       4.598   1.216   0.930  0.00  0.00    +0.000 C 
BRANCH  11  12
ATOM     12  C   UNL     1       3.074   1.200   0.919  0.00  0.00    +0.000 C 
BRANCH  12  14
ATOM     13  C   UNL     1       1.027   0.057   0.040  0.00  0.00    +0.000 C 
ATOM     14  C   UNL     1       2.545   0.066   0.047  0.00  0.00    +0.000 C 
ENDBRANCH  12  14
ENDBRANCH  11  12
ENDBRANCH  10  11
ENDBRANCH   1  10
TORSDOF 5
