REMARK  Name = Amyl Nitrite
REMARK  6 active torsions:
REMARK  status: ('A' for Active; 'I' for Inactive)
REMARK    1  A    between atoms: C_1  and  C_2
REMARK    2  A    between atoms: C_2  and  C_3
REMARK    3  A    between atoms: C_3  and  C_4
REMARK    4  A    between atoms: C_4  and  C_5
REMARK    5  A    between atoms: C_5  and  O_6
REMARK    6  A    between atoms: O_6  and  N_7
REMARK                            x       y       z     vdW  Elec       q    Type
REMARK                         _______ _______ _______ _____ _____    ______ ____
ROOT
ATOM      1  C   UNL     1       4.527   0.567   1.248  0.00  0.00    +0.000 C 
ENDROOT
BRANCH   1   2
ATOM      2  C   UNL     1       3.003   0.558   1.231  0.00  0.00    +0.000 C 
BRANCH   2   4
ATOM      3  C   UNL     1       0.954  -0.077  -0.070  0.00  0.00    +0.000 C 
ATOM      4  C   UNL     1       2.472  -0.070  -0.056  0.00  0.00    +0.000 C 
ENDBRANCH   2   4
ENDBRANCH   1   2
BRANCH   1   5
ATOM      5  C   UNL     1       5.073   1.191   2.527  0.00  0.00    +0.000 C 
BRANCH   5   6
ATOM      6  O   UNL     1       6.496   1.153   2.450  0.00  0.00    +0.000 OA
BRANCH   6   7
ATOM      7  N   UNL     1       7.029   1.717   3.604  0.00  0.00    +0.000 NA
ATOM      8  O   UNL     1       8.263   1.699   3.569  0.00  0.00    +0.000 OA
ENDBRANCH   6   7
ENDBRANCH   5   6
ENDBRANCH   1   5
TORSDOF 5
