REMARK  Name = Amylocaine
REMARK  10 active torsions:
REMARK  status: ('A' for Active; 'I' for Inactive)
REMARK    1  A    between atoms: C_1  and  C_2
REMARK    2  A    between atoms: C_2  and  C_3
REMARK    3  A    between atoms: C_3  and  C_4
REMARK    4  A    between atoms: C_3  and  C_5
REMARK    5  A    between atoms: C_3  and  O_9
REMARK    6  A    between atoms: C_5  and  N_6
REMARK    7  A    between atoms: N_6  and  C_7
REMARK    8  A    between atoms: N_6  and  C_8
REMARK    9  A    between atoms: O_9  and  C_10
REMARK   10  A    between atoms: C_10  and  C_12
REMARK                            x       y       z     vdW  Elec       q    Type
REMARK                         _______ _______ _______ _____ _____    ______ ____
ROOT
ATOM      1  O   UNL     1       4.574   1.305   0.615  0.00  0.00    +0.000 OA
ENDROOT
BRANCH   1   2
ATOM      2  C   UNL     1       3.069   1.284   0.607  0.00  0.00    +0.000 C 
ATOM      3  C   UNL     1       2.587   2.463  -0.252  0.00  0.00    +0.000 C 
BRANCH   2   5
ATOM      4  C   UNL     1       1.189  -0.382  -0.712  0.00  0.00    +0.000 C 
ATOM      5  C   UNL     1       2.647  -0.098  -0.158  0.00  0.00    +0.000 C 
ENDBRANCH   2   5
BRANCH   2   6
ATOM      6  C   UNL     1       2.577   1.426   2.144  0.00  0.00    +0.000 C 
BRANCH   6   7
ATOM      7  N   UNL     1       1.122   1.525   2.409  0.00  0.00    +0.000 NA
ATOM      8  C   UNL     1       0.503   0.300   2.017  0.00  0.00    +0.000 C 
ATOM      9  C   UNL     1       0.704   1.716   3.771  0.00  0.00    +0.000 C 
ENDBRANCH   6   7
ENDBRANCH   2   6
ENDBRANCH   1   2
BRANCH   1  10
ATOM     10  C   UNL     1       5.223   2.388   1.161  0.00  0.00    +0.000 C 
ATOM     11  O   UNL     1       4.715   3.368   1.649  0.00  0.00    +0.000 OA
BRANCH  10  12
ATOM     12  C   UNL     1       6.706   2.295   1.129  0.00  0.00    +0.000 A 
ATOM     13  C   UNL     1       7.426   2.824   2.216  0.00  0.00    +0.000 A 
ATOM     14  C   UNL     1       8.811   2.997   2.131  0.00  0.00    +0.000 A 
ATOM     15  C   UNL     1       9.488   2.580   0.988  0.00  0.00    +0.000 A 
ATOM     16  C   UNL     1       8.778   2.040  -0.088  0.00  0.00    +0.000 A 
ATOM     17  C   UNL     1       7.385   1.905  -0.024  0.00  0.00    +0.000 A 
ENDBRANCH  10  12
ENDBRANCH   1  10
TORSDOF 6
