REMARK  Name = Anagrelide
REMARK  0 active torsions:
REMARK  status: ('A' for Active; 'I' for Inactive)
REMARK                            x       y       z     vdW  Elec       q    Type
REMARK                         _______ _______ _______ _____ _____    ______ ____
ROOT
ATOM      1 CL   UNL     1       1.034  -0.139   0.090  0.00  0.00    +0.000 Cl
ATOM      2  C   UNL     1       2.762  -0.042   0.077  0.00  0.00    +0.000 A 
ATOM      3  C   UNL     1       3.480  -1.231   0.213  0.00  0.00    +0.000 A 
ATOM      4  C   UNL     1       4.880  -1.215   0.207  0.00  0.00    +0.000 A 
ATOM      5  C   UNL     1       5.583  -0.013   0.074  0.00  0.00    +0.000 A 
ATOM      6  N   UNL     1       7.005  -0.040   0.112  0.00  0.00    +0.000 NA
ATOM      7  C   UNL     1       7.561   1.105   0.307  0.00  0.00    +0.000 C 
ATOM      8  N   UNL     1       8.880   1.288   0.526  0.00  0.00    +0.000 N 
ATOM      9  C   UNL     1       9.095   2.549   1.029  0.00  0.00    +0.000 C 
ATOM     10  O   UNL     1      10.111   2.945   1.586  0.00  0.00    +0.000 OA
ATOM     11  C   UNL     1       7.800   3.347   0.841  0.00  0.00    +0.000 C 
ATOM     12  N   UNL     1       6.925   2.296   0.383  0.00  0.00    +0.000 N 
ATOM     13  C   UNL     1       5.618   2.487  -0.162  0.00  0.00    +0.000 C 
ATOM     14  C   UNL     1       4.851   1.195  -0.037  0.00  0.00    +0.000 A 
ATOM     15  C   UNL     1       3.443   1.174  -0.057  0.00  0.00    +0.000 A 
ATOM     16 CL   UNL     1       2.563   2.659  -0.249  0.00  0.00    +0.000 Cl
ATOM     17  H   UNL     1       9.565   0.552   0.555  0.00  0.00    +0.000 HD
ENDROOT
TORSDOF 0
