REMARK  Name = Anastrozole
REMARK  10 active torsions:
REMARK  status: ('A' for Active; 'I' for Inactive)
REMARK    1  A    between atoms: C_1  and  C_2
REMARK    2  A    between atoms: C_2  and  C_3
REMARK    3  A    between atoms: C_2  and  C_4
REMARK    4  A    between atoms: C_2  and  C_6
REMARK    5  A    between atoms: C_8  and  C_18
REMARK    6  A    between atoms: C_10  and  C_11
REMARK    7  A    between atoms: C_11  and  N_12
REMARK    8  A    between atoms: C_18  and  C_19
REMARK    9  A    between atoms: C_18  and  C_20
REMARK   10  A    between atoms: C_18  and  C_21
REMARK                            x       y       z     vdW  Elec       q    Type
REMARK                         _______ _______ _______ _____ _____    ______ ____
ROOT
ATOM      1  C   UNL     1      -0.735   0.021  -1.911  0.00  0.00    +0.000 A 
ATOM      2  C   UNL     1      -0.862   1.180  -2.670  0.00  0.00    +0.000 A 
ATOM      3  C   UNL     1      -1.242   1.122  -4.020  0.00  0.00    +0.000 A 
ATOM      4  C   UNL     1      -1.312  -0.134  -4.655  0.00  0.00    +0.000 A 
ATOM      5  C   UNL     1      -1.142  -1.308  -3.930  0.00  0.00    +0.000 A 
ATOM      6  C   UNL     1      -0.799  -1.193  -2.587  0.00  0.00    +0.000 A 
ENDROOT
BRANCH   1   8
ATOM      7  C   UNL     1      -1.216   1.268   0.240  0.00  0.00    +0.000 C 
ATOM      8  C   UNL     1      -0.564   0.024  -0.391  0.00  0.00    +0.000 C 
ATOM      9  C   UNL     1      -1.260  -1.204   0.259  0.00  0.00    +0.000 C 
BRANCH   8  10
ATOM     10  C   UNL     1       0.882  -0.000  -0.070  0.00  0.00    +0.000 C 
ATOM     11  N   UNL     1       2.014  -0.018   0.169  0.00  0.00    +0.000 NA
ENDBRANCH   8  10
ENDBRANCH   1   8
BRANCH   3  12
ATOM     12  C   UNL     1      -1.947   2.322  -4.670  0.00  0.00    +0.000 C 
ATOM     13  C   UNL     1      -1.494   2.592  -6.109  0.00  0.00    +0.000 C 
ATOM     14  C   UNL     1      -3.433   1.895  -4.663  0.00  0.00    +0.000 C 
BRANCH  12  15
ATOM     15  C   UNL     1      -1.813   3.589  -3.902  0.00  0.00    +0.000 C 
ATOM     16  N   UNL     1      -1.706   4.560  -3.278  0.00  0.00    +0.000 NA
ENDBRANCH  12  15
ENDBRANCH   3  12
BRANCH   5  17
ATOM     17  C   UNL     1      -1.414  -2.646  -4.574  0.00  0.00    +0.000 C 
BRANCH  17  18
ATOM     18  N   UNL     1      -1.295  -3.779  -3.666  0.00  0.00    +0.000 N 
ATOM     19  C   UNL     1      -1.968  -4.006  -2.497  0.00  0.00    +0.000 A 
ATOM     20  N   UNL     1      -1.513  -5.098  -1.931  0.00  0.00    +0.000 NA
ATOM     21  C   UNL     1      -0.571  -5.528  -2.820  0.00  0.00    +0.000 A 
ATOM     22  N   UNL     1      -0.383  -4.743  -3.883  0.00  0.00    +0.000 NA
ENDBRANCH  17  18
ENDBRANCH   5  17
TORSDOF 6
