REMARK  Name = Anethole trithione
REMARK  3 active torsions:
REMARK  status: ('A' for Active; 'I' for Inactive)
REMARK    1  A    between atoms: C_1  and  O_2
REMARK    2  A    between atoms: O_2  and  C_3
REMARK    3  A    between atoms: C_6  and  C_9
REMARK                            x       y       z     vdW  Elec       q    Type
REMARK                         _______ _______ _______ _____ _____    ______ ____
ROOT
ATOM      1  C   UNL     1       2.989   0.163  -1.197  0.00  0.00    +0.000 A 
ATOM      2  C   UNL     1       4.141  -0.585  -1.442  0.00  0.00    +0.000 A 
ATOM      3  C   UNL     1       4.916  -0.344  -2.582  0.00  0.00    +0.000 A 
ATOM      4  C   UNL     1       4.519   0.614  -3.525  0.00  0.00    +0.000 A 
ATOM      5  C   UNL     1       3.370   1.374  -3.260  0.00  0.00    +0.000 A 
ATOM      6  C   UNL     1       2.615   1.155  -2.101  0.00  0.00    +0.000 A 
ENDROOT
BRANCH   4   7
ATOM      7  C   UNL     1       5.263   0.795  -4.780  0.00  0.00    +0.000 A 
ATOM      8  C   UNL     1       5.805   1.965  -5.148  0.00  0.00    +0.000 A 
ATOM      9  C   UNL     1       6.501   1.985  -6.452  0.00  0.00    +0.000 A 
ATOM     10  S   UNL     1       7.274   3.318  -7.098  0.00  0.00    +0.000 S 
ATOM     11  S   UNL     1       6.427   0.434  -7.275  0.00  0.00    +0.000 S 
ATOM     12  S   UNL     1       5.395  -0.572  -5.831  0.00  0.00    +0.000 S 
ENDBRANCH   4   7
BRANCH   1  14
ATOM     13  C   UNL     1       0.942   0.018  -0.020  0.00  0.00    +0.000 C 
ATOM     14  O   UNL     1       2.363  -0.082  -0.007  0.00  0.00    +0.000 OA
ENDBRANCH   1  14
TORSDOF 2
