REMARK  Name = Anethole
REMARK  4 active torsions:
REMARK  status: ('A' for Active; 'I' for Inactive)
REMARK    1  A    between atoms: C_1  and  O_2
REMARK    2  A    between atoms: O_2  and  C_3
REMARK    3  A    between atoms: C_6  and  C_7
REMARK    4  A    between atoms: C_8  and  C_9
REMARK                            x       y       z     vdW  Elec       q    Type
REMARK                         _______ _______ _______ _____ _____    ______ ____
ROOT
ATOM      1  C   UNL     1       3.158  -0.634   0.981  0.00  0.00    +0.000 A 
ATOM      2  C   UNL     1       4.367  -0.091   1.418  0.00  0.00    +0.000 A 
ATOM      3  C   UNL     1       5.194  -0.799   2.300  0.00  0.00    +0.000 A 
ATOM      4  C   UNL     1       4.797  -2.044   2.805  0.00  0.00    +0.000 A 
ATOM      5  C   UNL     1       3.582  -2.576   2.353  0.00  0.00    +0.000 A 
ATOM      6  C   UNL     1       2.769  -1.882   1.453  0.00  0.00    +0.000 A 
ENDROOT
BRANCH   4   7
ATOM      7  C   UNL     1       5.637  -2.724   3.806  0.00  0.00    +0.000 C 
ATOM      8  C   UNL     1       5.318  -3.883   4.414  0.00  0.00    +0.000 C 
ATOM      9  C   UNL     1       6.137  -4.541   5.471  0.00  0.00    +0.000 C 
ENDBRANCH   4   7
BRANCH   1  11
ATOM     10  C   UNL     1       1.079  -0.053  -0.000  0.00  0.00    +0.000 C 
ATOM     11  O   UNL     1       2.494   0.087   0.029  0.00  0.00    +0.000 OA
ENDBRANCH   1  11
TORSDOF 2
