REMARK  Name = Anileridine
REMARK  9 active torsions:
REMARK  status: ('A' for Active; 'I' for Inactive)
REMARK    1  A    between atoms: C_1  and  C_2
REMARK    2  A    between atoms: C_2  and  O_3
REMARK    3  A    between atoms: O_3  and  C_4
REMARK    4  A    between atoms: C_4  and  C_6
REMARK    5  A    between atoms: C_6  and  C_21
REMARK    6  A    between atoms: N_9  and  C_10
REMARK    7  A    between atoms: C_10  and  C_11
REMARK    8  A    between atoms: C_11  and  C_12
REMARK    9  A    between atoms: C_15  and  N_16
REMARK                            x       y       z     vdW  Elec       q    Type
REMARK                         _______ _______ _______ _____ _____    ______ ____
ROOT
ATOM      1  C   UNL     1       4.914   2.018   2.102  0.00  0.00    +0.000 C 
ATOM      2  C   UNL     1       4.374   3.450   1.883  0.00  0.00    +0.000 C 
ATOM      3  C   UNL     1       4.840   4.045   0.567  0.00  0.00    +0.000 C 
ATOM      4  N   UNL     1       6.304   4.042   0.499  0.00  0.00    +0.000 NA
ATOM      5  C   UNL     1       6.829   2.676   0.590  0.00  0.00    +0.000 C 
ATOM      6  C   UNL     1       6.449   2.058   1.922  0.00  0.00    +0.000 C 
ENDROOT
BRANCH   1   7
ATOM      7  C   UNL     1       4.503   1.563   3.506  0.00  0.00    +0.000 A 
ATOM      8  C   UNL     1       5.426   1.118   4.463  0.00  0.00    +0.000 A 
ATOM      9  C   UNL     1       4.986   0.545   5.653  0.00  0.00    +0.000 A 
ATOM     10  C   UNL     1       3.627   0.502   5.948  0.00  0.00    +0.000 A 
ATOM     11  C   UNL     1       2.702   1.021   5.051  0.00  0.00    +0.000 A 
ATOM     12  C   UNL     1       3.138   1.547   3.843  0.00  0.00    +0.000 A 
ENDBRANCH   1   7
BRANCH   1  13
ATOM     13  C   UNL     1       4.397   0.997   1.045  0.00  0.00    +0.000 C 
ATOM     14  O   UNL     1       5.133   0.247   0.393  0.00  0.00    +0.000 OA
BRANCH  13  15
ATOM     15  O   UNL     1       3.042   0.987   0.899  0.00  0.00    +0.000 OA
BRANCH  15  17
ATOM     16  C   UNL     1       1.073  -0.005  -0.069  0.00  0.00    +0.000 C 
ATOM     17  C   UNL     1       2.587   0.016  -0.059  0.00  0.00    +0.000 C 
ENDBRANCH  15  17
ENDBRANCH  13  15
ENDBRANCH   1  13
BRANCH   4  18
ATOM     18  C   UNL     1       6.725   4.662  -0.762  0.00  0.00    +0.000 C 
BRANCH  18  19
ATOM     19  C   UNL     1       8.253   4.731  -0.884  0.00  0.00    +0.000 C 
BRANCH  19  20
ATOM     20  C   UNL     1       8.626   5.365  -2.185  0.00  0.00    +0.000 A 
ATOM     21  C   UNL     1       8.455   6.738  -2.351  0.00  0.00    +0.000 A 
ATOM     22  C   UNL     1       8.685   7.317  -3.592  0.00  0.00    +0.000 A 
ATOM     23  C   UNL     1       9.128   6.543  -4.667  0.00  0.00    +0.000 A 
ATOM     24  C   UNL     1       9.300   5.168  -4.493  0.00  0.00    +0.000 A 
ATOM     25  C   UNL     1       9.055   4.576  -3.257  0.00  0.00    +0.000 A 
BRANCH  23  26
ATOM     26  N   UNL     1       9.237   7.107  -5.928  0.00  0.00    +0.000 N 
ATOM     27  H   UNL     1       9.238   8.116  -6.009  0.00  0.00    +0.000 HD
ATOM     28  H   UNL     1       9.683   6.577  -6.665  0.00  0.00    +0.000 HD
ENDBRANCH  23  26
ENDBRANCH  19  20
ENDBRANCH  18  19
ENDBRANCH   4  18
TORSDOF 8
