REMARK  Name = Anisotropine methylbromide
REMARK  11 active torsions:
REMARK  status: ('A' for Active; 'I' for Inactive)
REMARK    1  A    between atoms: C_2  and  C_3
REMARK    2  A    between atoms: C_3  and  C_4
REMARK    3  A    between atoms: C_4  and  C_5
REMARK    4  A    between atoms: C_5  and  C_6
REMARK    5  A    between atoms: C_5  and  C_9
REMARK    6  A    between atoms: C_6  and  C_7
REMARK    7  A    between atoms: C_7  and  C_8
REMARK    8  A    between atoms: C_9  and  O_11
REMARK    9  A    between atoms: O_11  and  C_12
REMARK   10  A    between atoms: N_19  and  C_20
REMARK   11  A    between atoms: N_19  and  C_21
REMARK                            x       y       z     vdW  Elec       q    Type
REMARK                         _______ _______ _______ _____ _____    ______ ____
ROOT
ATOM      1 BR   UNL     1       1.023   0.085  -0.056  0.00  0.00    +0.000 Br
ENDROOT
TORSDOF 0
REMARK  Name = Anisotropine methylbromide
REMARK  11 active torsions:
REMARK  status: ('A' for Active; 'I' for Inactive)
REMARK    1  A    between atoms: C_2  and  C_3
REMARK    2  A    between atoms: C_3  and  C_4
REMARK    3  A    between atoms: C_4  and  C_5
REMARK    4  A    between atoms: C_5  and  C_6
REMARK    5  A    between atoms: C_5  and  C_9
REMARK    6  A    between atoms: C_6  and  C_7
REMARK    7  A    between atoms: C_7  and  C_8
REMARK    8  A    between atoms: C_9  and  O_11
REMARK    9  A    between atoms: O_11  and  C_12
REMARK   10  A    between atoms: N_19  and  C_20
REMARK   11  A    between atoms: N_19  and  C_21
REMARK                            x       y       z     vdW  Elec       q    Type
REMARK                         _______ _______ _______ _____ _____    ______ ____
ROOT
ATOM      1  O   UNL     2       7.728   4.291  -2.762  0.00  0.00    +0.000 OA
ENDROOT
BRANCH   1   2
ATOM      2  C   UNL     2       6.955   3.182  -3.248  0.00  0.00    +0.000 C 
ATOM      3  C   UNL     2       5.683   3.635  -3.943  0.00  0.00    +0.000 C 
ATOM      4  C   UNL     2       5.081   2.488  -4.407  0.00  0.00    +0.000 C 
ATOM      5  C   UNL     2       3.973   1.682  -4.765  0.00  0.00    +0.000 C 
ATOM      6  C   UNL     2       5.421   0.598  -3.985  0.00  0.00    +0.000 C 
ATOM      7  C   UNL     2       6.820   0.989  -4.680  0.00  0.00    +0.000 C 
ATOM      8  C   UNL     2       7.747   2.142  -4.080  0.00  0.00    +0.000 C 
ATOM      9  N   UNL     2       5.902   1.520  -5.643  0.00  0.00    +0.000 N 
ATOM     10  C   UNL     2       6.312   2.108  -6.895  0.00  0.00    +0.000 C 
ATOM     11  C   UNL     2       4.950   0.182  -6.371  0.00  0.00    +0.000 C 
ENDBRANCH   1   2
BRANCH   1  12
ATOM     12  C   UNL     2       7.575   5.600  -3.116  0.00  0.00    +0.000 C 
ATOM     13  O   UNL     2       8.037   6.468  -2.394  0.00  0.00    +0.000 OA
BRANCH  12  14
ATOM     14  C   UNL     2       6.828   5.944  -4.434  0.00  0.00    +0.000 C 
BRANCH  14  15
ATOM     15  C   UNL     2       6.743   7.430  -4.668  0.00  0.00    +0.000 C 
BRANCH  15  17
ATOM     16  C   UNL     2       5.847   9.190  -6.216  0.00  0.00    +0.000 C 
ATOM     17  C   UNL     2       5.825   7.754  -5.834  0.00  0.00    +0.000 C 
ENDBRANCH  15  17
ENDBRANCH  14  15
BRANCH  14  18
ATOM     18  C   UNL     2       7.435   5.198  -5.677  0.00  0.00    +0.000 C 
BRANCH  18  19
ATOM     19  C   UNL     2       6.584   5.104  -6.973  0.00  0.00    +0.000 C 
ATOM     20  C   UNL     2       7.208   4.465  -8.200  0.00  0.00    +0.000 C 
ENDBRANCH  18  19
ENDBRANCH  14  18
ENDBRANCH  12  14
ENDBRANCH   1  12
TORSDOF 7
