REMARK  Name = Anisindione
REMARK  3 active torsions:
REMARK  status: ('A' for Active; 'I' for Inactive)
REMARK    1  A    between atoms: C_1  and  O_2
REMARK    2  A    between atoms: O_2  and  C_3
REMARK    3  A    between atoms: C_6  and  C_9
REMARK                            x       y       z     vdW  Elec       q    Type
REMARK                         _______ _______ _______ _____ _____    ______ ____
ROOT
ATOM      1  C   UNL     1       5.424   2.082   4.540  0.00  0.00    +0.000 C 
ATOM      2  C   UNL     1       4.749   1.617   5.811  0.00  0.00    +0.000 C 
ATOM      3  O   UNL     1       3.714   1.052   6.062  0.00  0.00    +0.000 OA
ATOM      4  C   UNL     1       5.391   2.212   6.929  0.00  0.00    +0.000 A 
ATOM      5  C   UNL     1       5.265   1.598   8.166  0.00  0.00    +0.000 A 
ATOM      6  C   UNL     1       5.561   2.335   9.276  0.00  0.00    +0.000 A 
ATOM      7  C   UNL     1       6.026   3.641   9.079  0.00  0.00    +0.000 A 
ATOM      8  C   UNL     1       6.176   4.226   7.758  0.00  0.00    +0.000 A 
ATOM      9  C   UNL     1       5.856   3.470   6.617  0.00  0.00    +0.000 A 
ATOM     10  C   UNL     1       5.815   3.520   5.042  0.00  0.00    +0.000 C 
ATOM     11  O   UNL     1       6.144   4.446   4.325  0.00  0.00    +0.000 OA
ENDROOT
BRANCH   1  15
ATOM     12  C   UNL     1       3.121   0.697   1.031  0.00  0.00    +0.000 A 
ATOM     13  C   UNL     1       4.340   1.364   0.856  0.00  0.00    +0.000 A 
ATOM     14  C   UNL     1       5.112   1.822   1.963  0.00  0.00    +0.000 A 
ATOM     15  C   UNL     1       4.632   1.701   3.276  0.00  0.00    +0.000 A 
ATOM     16  C   UNL     1       3.427   0.971   3.381  0.00  0.00    +0.000 A 
ATOM     17  C   UNL     1       2.678   0.496   2.313  0.00  0.00    +0.000 A 
BRANCH  12  19
ATOM     18  C   UNL     1       1.061   0.065   0.052  0.00  0.00    +0.000 C 
ATOM     19  O   UNL     1       2.483   0.185  -0.065  0.00  0.00    +0.000 OA
ENDBRANCH  12  19
ENDBRANCH   1  15
TORSDOF 2
