REMARK  Name = Antazoline
REMARK  5 active torsions:
REMARK  status: ('A' for Active; 'I' for Inactive)
REMARK    1  A    between atoms: C_1  and  N_2
REMARK    2  A    between atoms: C_1  and  C_16
REMARK    3  A    between atoms: N_2  and  C_3
REMARK    4  A    between atoms: N_2  and  C_10
REMARK    5  A    between atoms: C_3  and  C_4
REMARK                            x       y       z     vdW  Elec       q    Type
REMARK                         _______ _______ _______ _____ _____    ______ ____
ROOT
ATOM      1  N   UNL     1       0.504  -1.361   0.141  0.00  0.00    +0.000 N 
ENDROOT
BRANCH   1   2
ATOM      2  C   UNL     1      -0.914  -1.603   0.037  0.00  0.00    +0.000 A 
ATOM      3  C   UNL     1      -1.522  -2.692   0.702  0.00  0.00    +0.000 A 
ATOM      4  C   UNL     1      -2.875  -3.050   0.506  0.00  0.00    +0.000 A 
ATOM      5  C   UNL     1      -3.693  -2.278  -0.310  0.00  0.00    +0.000 A 
ATOM      6  C   UNL     1      -3.138  -1.181  -0.963  0.00  0.00    +0.000 A 
ATOM      7  C   UNL     1      -1.769  -0.851  -0.795  0.00  0.00    +0.000 A 
ENDBRANCH   1   2
BRANCH   1   8
ATOM      8  C   UNL     1       0.924   0.101   0.401  0.00  0.00    +0.000 C 
BRANCH   8   9
ATOM      9  C   UNL     1       2.432   0.459   0.786  0.00  0.00    +0.000 C 
ATOM     10  N   UNL     1       3.114   1.535   0.477  0.00  0.00    +0.000 NA
ATOM     11  C   UNL     1       4.584   1.212   0.766  0.00  0.00    +0.000 C 
ATOM     12  C   UNL     1       4.540  -0.141   1.470  0.00  0.00    +0.000 C 
ATOM     13  N   UNL     1       3.151  -0.496   1.505  0.00  0.00    +0.000 N 
ATOM     14  H   UNL     1       3.000  -1.359   1.028  0.00  0.00    +0.000 HD
ENDBRANCH   8   9
ENDBRANCH   1   8
BRANCH   1  15
ATOM     15  C   UNL     1       1.319  -2.594  -0.263  0.00  0.00    +0.000 C 
BRANCH  15  16
ATOM     16  C   UNL     1       2.779  -2.451  -0.788  0.00  0.00    +0.000 A 
ATOM     17  C   UNL     1       3.904  -3.236  -0.353  0.00  0.00    +0.000 A 
ATOM     18  C   UNL     1       5.253  -2.758  -0.407  0.00  0.00    +0.000 A 
ATOM     19  C   UNL     1       5.504  -1.527  -1.009  0.00  0.00    +0.000 A 
ATOM     20  C   UNL     1       4.384  -0.844  -1.529  0.00  0.00    +0.000 A 
ATOM     21  C   UNL     1       3.069  -1.323  -1.525  0.00  0.00    +0.000 A 
ENDBRANCH  15  16
ENDBRANCH   1  15
TORSDOF 5
