REMARK  Name = Anthralin
REMARK  2 active torsions:
REMARK  status: ('A' for Active; 'I' for Inactive)
REMARK    1  A    between atoms: O_1  and  C_2
REMARK    2  A    between atoms: C_11  and  O_12
REMARK                            x       y       z     vdW  Elec       q    Type
REMARK                         _______ _______ _______ _____ _____    ______ ____
ROOT
ATOM      1  C   UNL     1       2.448   0.098   0.076  0.00  0.00    +0.000 A 
ATOM      2  C   UNL     1       3.159   1.290   0.077  0.00  0.00    +0.000 A 
ATOM      3  C   UNL     1       4.554   1.261   0.076  0.00  0.00    +0.000 A 
ATOM      4  C   UNL     1       5.240   0.043   0.074  0.00  0.00    +0.000 A 
ATOM      5  C   UNL     1       4.533  -1.168   0.076  0.00  0.00    +0.000 A 
ATOM      6  C   UNL     1       3.128  -1.126   0.076  0.00  0.00    +0.000 A 
ATOM      7  C   UNL     1       2.359  -2.382   0.078  0.00  0.00    +0.000 C 
ATOM      8  O   UNL     1       1.127  -2.406   0.081  0.00  0.00    +0.000 OA
ATOM      9  C   UNL     1       3.058  -3.669   0.076  0.00  0.00    +0.000 A 
ATOM     10  C   UNL     1       2.298  -4.847   0.076  0.00  0.00    +0.000 A 
ATOM     11  C   UNL     1       2.925  -6.080   0.076  0.00  0.00    +0.000 A 
ATOM     12  C   UNL     1       4.316  -6.143   0.076  0.00  0.00    +0.000 A 
ATOM     13  C   UNL     1       5.081  -4.973   0.076  0.00  0.00    +0.000 A 
ATOM     14  C   UNL     1       4.458  -3.716   0.077  0.00  0.00    +0.000 A 
ATOM     15  C   UNL     1       5.299  -2.468   0.092  0.00  0.00    +0.000 C 
ENDROOT
BRANCH   1  16
ATOM     16  O   UNL     1       1.083   0.126   0.077  0.00  0.00    +0.000 OA
ATOM     17  H   UNL     1       0.734   1.027   0.078  0.00  0.00    +0.000 HD
ENDBRANCH   1  16
BRANCH  10  18
ATOM     18  O   UNL     1       0.927  -4.858   0.078  0.00  0.00    +0.000 OA
ATOM     19  H   UNL     1       0.627  -3.916   0.079  0.00  0.00    +0.000 HD
ENDBRANCH  10  18
TORSDOF 2
