REMARK  Name = Antipyrine
REMARK  3 active torsions:
REMARK  status: ('A' for Active; 'I' for Inactive)
REMARK    1  A    between atoms: C_1  and  N_2
REMARK    2  A    between atoms: N_3  and  C_9
REMARK    3  A    between atoms: C_7  and  C_8
REMARK                            x       y       z     vdW  Elec       q    Type
REMARK                         _______ _______ _______ _____ _____    ______ ____
ROOT
ATOM      1  C   UNL     1       0.891   0.026   0.039  0.00  0.00    +0.000 C 
ATOM      2  N   UNL     1       2.334   0.018   0.147  0.00  0.00    +0.000 N 
ATOM      3  N   UNL     1       3.136   1.166   0.139  0.00  0.00    +0.000 N 
ATOM      4  C   UNL     1       4.466   0.780   0.027  0.00  0.00    +0.000 A 
ATOM      5  O   UNL     1       5.482   1.459  -0.023  0.00  0.00    +0.000 OA
ATOM      6  C   UNL     1       4.469  -0.703   0.026  0.00  0.00    +0.000 A 
ATOM      7  C   UNL     1       3.180  -1.074   0.060  0.00  0.00    +0.000 A 
ATOM      8  C   UNL     1       2.673  -2.474   0.042  0.00  0.00    +0.000 C 
ENDROOT
BRANCH   3   9
ATOM      9  C   UNL     1       2.638   2.466   0.044  0.00  0.00    +0.000 A 
ATOM     10  C   UNL     1       1.753   2.942   1.016  0.00  0.00    +0.000 A 
ATOM     11  C   UNL     1       1.175   4.200   0.875  0.00  0.00    +0.000 A 
ATOM     12  C   UNL     1       1.542   5.014  -0.196  0.00  0.00    +0.000 A 
ATOM     13  C   UNL     1       2.454   4.557  -1.148  0.00  0.00    +0.000 A 
ATOM     14  C   UNL     1       3.010   3.285  -1.025  0.00  0.00    +0.000 A 
ENDBRANCH   3   9
TORSDOF 1
