REMARK  Name = Antrafenine
REMARK  10 active torsions:
REMARK  status: ('A' for Active; 'I' for Inactive)
REMARK    1  A    between atoms: C_2  and  C_5
REMARK    2  A    between atoms: C_7  and  N_11
REMARK    3  A    between atoms: N_14  and  C_15
REMARK    4  A    between atoms: C_15  and  C_16
REMARK    5  A    between atoms: C_16  and  O_17
REMARK    6  A    between atoms: O_17  and  C_18
REMARK    7  A    between atoms: C_18  and  C_20
REMARK    8  A    between atoms: C_25  and  N_26
REMARK    9  A    between atoms: N_26  and  C_27
REMARK   10  A    between atoms: C_31  and  C_37
REMARK                            x       y       z     vdW  Elec       q    Type
REMARK                         _______ _______ _______ _____ _____    ______ ____
ROOT
ATOM      1  C   UNL     1       9.485  -7.919  -4.074  0.00  0.00    +0.000 A 
ATOM      2  C   UNL     1      10.802  -8.089  -3.607  0.00  0.00    +0.000 A 
ATOM      3  C   UNL     1      11.317  -9.345  -3.252  0.00  0.00    +0.000 A 
ATOM      4  C   UNL     1      10.522 -10.481  -3.250  0.00  0.00    +0.000 A 
ATOM      5  C   UNL     1       9.212 -10.384  -3.661  0.00  0.00    +0.000 A 
ATOM      6  C   UNL     1       8.654  -9.155  -4.086  0.00  0.00    +0.000 A 
ENDROOT
BRANCH   1   7
ATOM      7  C   UNL     1       9.412  -6.475  -4.811  0.00  0.00    +0.000 C 
ATOM      8  O   UNL     1      10.159  -6.304  -5.777  0.00  0.00    +0.000 OA
BRANCH   7   9
ATOM      9  O   UNL     1       8.461  -5.508  -4.454  0.00  0.00    +0.000 OA
BRANCH   9  10
ATOM     10  C   UNL     1       7.686  -4.615  -5.535  0.00  0.00    +0.000 C 
BRANCH  10  11
ATOM     11  C   UNL     1       5.971  -4.288  -5.193  0.00  0.00    +0.000 C 
BRANCH  11  15
ATOM     12  N   UNL     1       4.343  -2.089  -3.761  0.00  0.00    +0.000 N 
ATOM     13  C   UNL     1       3.493  -3.153  -4.290  0.00  0.00    +0.000 C 
ATOM     14  C   UNL     1       3.792  -3.326  -5.788  0.00  0.00    +0.000 C 
ATOM     15  N   UNL     1       5.273  -3.373  -6.102  0.00  0.00    +0.000 NA
ATOM     16  C   UNL     1       5.925  -2.149  -5.679  0.00  0.00    +0.000 C 
ATOM     17  C   UNL     1       5.752  -1.957  -4.151  0.00  0.00    +0.000 C 
BRANCH  12  20
ATOM     18  C   UNL     1       2.699   0.101  -1.439  0.00  0.00    +0.000 A 
ATOM     19  C   UNL     1       3.016  -1.055  -2.130  0.00  0.00    +0.000 A 
ATOM     20  C   UNL     1       3.715  -0.960  -3.324  0.00  0.00    +0.000 A 
ATOM     21  C   UNL     1       3.894   0.266  -3.956  0.00  0.00    +0.000 A 
ATOM     22  C   UNL     1       3.502   1.425  -3.316  0.00  0.00    +0.000 A 
ATOM     23  C   UNL     1       2.926   1.342  -2.051  0.00  0.00    +0.000 A 
BRANCH  18  25
ATOM     24  F   UNL     1       0.841   0.002   0.038  0.00  0.00    +0.000 F 
ATOM     25  C   UNL     1       2.198   0.012  -0.032  0.00  0.00    +0.000 C 
ATOM     26  F   UNL     1       2.615   1.061   0.729  0.00  0.00    +0.000 F 
ATOM     27  F   UNL     1       2.620  -1.108   0.623  0.00  0.00    +0.000 F 
ENDBRANCH  18  25
ENDBRANCH  12  20
ENDBRANCH  11  15
ENDBRANCH  10  11
ENDBRANCH   9  10
ENDBRANCH   7   9
ENDBRANCH   1   7
BRANCH   6  28
ATOM     28  N   UNL     1       7.319  -9.417  -4.555  0.00  0.00    +0.000 N 
ATOM     29  H   UNL     1       6.906 -10.323  -4.379  0.00  0.00    +0.000 HD
BRANCH  28  30
ATOM     30  C   UNL     1       6.564  -8.625  -5.341  0.00  0.00    +0.000 A 
ATOM     31  C   UNL     1       5.205  -8.548  -5.670  0.00  0.00    +0.000 A 
ATOM     32  C   UNL     1       4.261  -9.501  -5.472  0.00  0.00    +0.000 A 
ATOM     33  C   UNL     1       3.028  -9.234  -6.047  0.00  0.00    +0.000 A 
ATOM     34  C   UNL     1       2.635  -7.963  -6.552  0.00  0.00    +0.000 A 
ATOM     35  C   UNL     1       3.556  -6.967  -6.666  0.00  0.00    +0.000 A 
ATOM     36  C   UNL     1       4.776  -7.334  -6.232  0.00  0.00    +0.000 A 
ATOM     37  N   UNL     1       5.625  -6.386  -6.140  0.00  0.00    +0.000 NA
ATOM     38  C   UNL     1       6.423  -6.672  -5.182  0.00  0.00    +0.000 A 
ATOM     39  C   UNL     1       7.177  -7.543  -5.744  0.00  0.00    +0.000 A 
BRANCH  34  40
ATOM     40  C   UNL     1       1.230  -7.710  -6.955  0.00  0.00    +0.000 C 
ATOM     41  F   UNL     1       0.915  -8.419  -8.065  0.00  0.00    +0.000 F 
ATOM     42  F   UNL     1       0.372  -8.094  -5.975  0.00  0.00    +0.000 F 
ATOM     43  F   UNL     1       0.938  -6.407  -7.222  0.00  0.00    +0.000 F 
ENDBRANCH  34  40
ENDBRANCH  28  30
ENDBRANCH   6  28
TORSDOF 10
