REMARK  Name = Apalutamide
REMARK  6 active torsions:
REMARK  status: ('A' for Active; 'I' for Inactive)
REMARK    1  A    between atoms: C_1  and  N_2
REMARK    2  A    between atoms: C_3  and  C_5
REMARK    3  A    between atoms: C_8  and  N_12
REMARK    4  A    between atoms: N_15  and  C_22
REMARK    5  A    between atoms: C_24  and  C_30
REMARK    6  A    between atoms: C_25  and  C_28
REMARK                            x       y       z     vdW  Elec       q    Type
REMARK                         _______ _______ _______ _____ _____    ______ ____
ROOT
ATOM      1  N   UNL     1       9.037   0.581   1.100  0.00  0.00    +0.000 N 
ATOM      2  C   UNL     1       9.889  -0.457   1.570  0.00  0.00    +0.000 C 
ATOM      3  S   UNL     1       9.585  -2.085   1.342  0.00  0.00    +0.000 S 
ATOM      4  N   UNL     1      11.073   0.132   2.065  0.00  0.00    +0.000 N 
ATOM      5  C   UNL     1      11.263   1.393   1.528  0.00  0.00    +0.000 C 
ATOM      6  O   UNL     1      12.304   2.041   1.566  0.00  0.00    +0.000 OA
ATOM      7  C   UNL     1       9.878   1.809   0.881  0.00  0.00    +0.000 C 
ATOM      8  C   UNL     1       9.448   3.202   1.395  0.00  0.00    +0.000 C 
ATOM      9  C   UNL     1       8.540   3.327   0.184  0.00  0.00    +0.000 C 
ATOM     10  C   UNL     1       9.693   2.385  -0.536  0.00  0.00    +0.000 C 
ENDROOT
BRANCH   1  14
ATOM     11  C   UNL     1       4.738   0.643   1.133  0.00  0.00    +0.000 A 
ATOM     12  C   UNL     1       5.472   0.368   2.298  0.00  0.00    +0.000 A 
ATOM     13  C   UNL     1       6.887   0.305   2.274  0.00  0.00    +0.000 A 
ATOM     14  C   UNL     1       7.599   0.541   1.090  0.00  0.00    +0.000 A 
ATOM     15  C   UNL     1       6.849   0.851  -0.058  0.00  0.00    +0.000 A 
ATOM     16  C   UNL     1       5.444   0.910  -0.031  0.00  0.00    +0.000 A 
ATOM     17  F   UNL     1       4.802   1.274  -1.151  0.00  0.00    +0.000 F 
BRANCH  11  20
ATOM     18  C   UNL     1       1.116   0.062   0.088  0.00  0.00    +0.000 C 
ATOM     19  N   UNL     1       2.564   0.090   0.127  0.00  0.00    +0.000 N 
ATOM     20  C   UNL     1       3.247   0.690   1.171  0.00  0.00    +0.000 C 
ATOM     21  O   UNL     1       2.685   1.214   2.127  0.00  0.00    +0.000 OA
ATOM     22  H   UNL     1       3.072  -0.344  -0.634  0.00  0.00    +0.000 HD
ENDBRANCH  11  20
ENDBRANCH   1  14
BRANCH   4  23
ATOM     23  C   UNL     1      11.838  -0.377   3.168  0.00  0.00    +0.000 A 
ATOM     24  C   UNL     1      11.935   0.299   4.406  0.00  0.00    +0.000 A 
ATOM     25  C   UNL     1      12.610  -0.285   5.522  0.00  0.00    +0.000 A 
ATOM     26  C   UNL     1      13.205  -1.527   5.334  0.00  0.00    +0.000 A 
ATOM     27  N   UNL     1      13.135  -2.192   4.152  0.00  0.00    +0.000 NA
ATOM     28  C   UNL     1      12.459  -1.616   3.120  0.00  0.00    +0.000 A 
BRANCH  25  29
ATOM     29  C   UNL     1      12.660   0.408   6.861  0.00  0.00    +0.000 C 
ATOM     30  F   UNL     1      13.247   1.632   6.781  0.00  0.00    +0.000 F 
ATOM     31  F   UNL     1      11.414   0.624   7.369  0.00  0.00    +0.000 F 
ATOM     32  F   UNL     1      13.331  -0.250   7.841  0.00  0.00    +0.000 F 
ENDBRANCH  25  29
BRANCH  26  33
ATOM     33  C   UNL     1      13.960  -2.212   6.350  0.00  0.00    +0.000 C 
ATOM     34  N   UNL     1      14.577  -2.731   7.202  0.00  0.00    +0.000 NA
ENDBRANCH  26  33
ENDBRANCH   4  23
TORSDOF 5
