REMARK  Name = Apixaban
REMARK  6 active torsions:
REMARK  status: ('A' for Active; 'I' for Inactive)
REMARK    1  A    between atoms: C_1  and  O_2
REMARK    2  A    between atoms: O_2  and  C_3
REMARK    3  A    between atoms: C_6  and  N_9
REMARK    4  A    between atoms: C_11  and  C_12
REMARK    5  A    between atoms: N_19  and  C_22
REMARK    6  A    between atoms: C_25  and  N_28
REMARK                            x       y       z     vdW  Elec       q    Type
REMARK                         _______ _______ _______ _____ _____    ______ ____
ROOT
ATOM      1  N   UNL     1       5.524   2.102   4.555  0.00  0.00    +0.000 N 
ATOM      2  N   UNL     1       5.898   1.252   5.626  0.00  0.00    +0.000 NA
ATOM      3  C   UNL     1       6.711   1.992   6.420  0.00  0.00    +0.000 A 
ATOM      4  C   UNL     1       6.764   3.315   5.946  0.00  0.00    +0.000 A 
ATOM      5  C   UNL     1       6.044   3.405   4.764  0.00  0.00    +0.000 A 
ATOM      6  C   UNL     1       5.948   4.694   4.041  0.00  0.00    +0.000 C 
ATOM      7  O   UNL     1       5.244   4.873   3.040  0.00  0.00    +0.000 OA
ATOM      8  N   UNL     1       6.751   5.747   4.613  0.00  0.00    +0.000 N 
ATOM      9  C   UNL     1       6.939   5.759   6.063  0.00  0.00    +0.000 C 
ATOM     10  C   UNL     1       7.486   4.450   6.573  0.00  0.00    +0.000 C 
ENDROOT
BRANCH   1  14
ATOM     11  C   UNL     1       3.114   0.637   1.224  0.00  0.00    +0.000 A 
ATOM     12  C   UNL     1       4.314   1.327   1.019  0.00  0.00    +0.000 A 
ATOM     13  C   UNL     1       5.123   1.769   2.105  0.00  0.00    +0.000 A 
ATOM     14  C   UNL     1       4.738   1.564   3.438  0.00  0.00    +0.000 A 
ATOM     15  C   UNL     1       3.561   0.807   3.636  0.00  0.00    +0.000 A 
ATOM     16  C   UNL     1       2.745   0.378   2.541  0.00  0.00    +0.000 A 
BRANCH  11  18
ATOM     17  C   UNL     1       1.047   0.059   0.138  0.00  0.00    +0.000 C 
ATOM     18  O   UNL     1       2.470   0.179   0.102  0.00  0.00    +0.000 OA
ENDBRANCH  11  18
ENDBRANCH   1  14
BRANCH   8  19
ATOM     19  C   UNL     1       7.629   6.582   3.841  0.00  0.00    +0.000 A 
ATOM     20  C   UNL     1       7.142   7.585   3.004  0.00  0.00    +0.000 A 
ATOM     21  C   UNL     1       8.029   8.390   2.259  0.00  0.00    +0.000 A 
ATOM     22  C   UNL     1       9.418   8.246   2.359  0.00  0.00    +0.000 A 
ATOM     23  C   UNL     1       9.915   7.253   3.204  0.00  0.00    +0.000 A 
ATOM     24  C   UNL     1       9.029   6.456   3.961  0.00  0.00    +0.000 A 
BRANCH  22  25
ATOM     25  N   UNL     1      10.272   9.131   1.626  0.00  0.00    +0.000 N 
ATOM     26  C   UNL     1      10.112  10.565   1.908  0.00  0.00    +0.000 C 
ATOM     27  C   UNL     1      10.655  11.459   0.808  0.00  0.00    +0.000 C 
ATOM     28  C   UNL     1      12.090  11.071   0.517  0.00  0.00    +0.000 C 
ATOM     29  C   UNL     1      12.152   9.627   0.058  0.00  0.00    +0.000 C 
ATOM     30  C   UNL     1      11.316   8.629   0.851  0.00  0.00    +0.000 C 
ATOM     31  O   UNL     1      11.515   7.425   0.668  0.00  0.00    +0.000 OA
ENDBRANCH  22  25
ENDBRANCH   8  19
BRANCH   3  32
ATOM     32  C   UNL     1       7.470   1.606   7.656  0.00  0.00    +0.000 C 
ATOM     33  N   UNL     1       7.460   0.331   8.123  0.00  0.00    +0.000 N 
ATOM     34  O   UNL     1       8.148   2.410   8.304  0.00  0.00    +0.000 OA
ATOM     35  H   UNL     1       6.988  -0.422   7.654  0.00  0.00    +0.000 HD
ATOM     36  H   UNL     1       8.012   0.169   8.958  0.00  0.00    +0.000 HD
ENDBRANCH   3  32
TORSDOF 5
