REMARK  Name = Apomorphine
REMARK  3 active torsions:
REMARK  status: ('A' for Active; 'I' for Inactive)
REMARK    1  A    between atoms: C_6  and  O_7
REMARK    2  A    between atoms: C_8  and  O_9
REMARK    3  A    between atoms: N_19  and  C_20
REMARK                            x       y       z     vdW  Elec       q    Type
REMARK                         _______ _______ _______ _____ _____    ______ ____
ROOT
ATOM      1  C   UNL     1       2.019   0.138  -0.027  0.00  0.00    +0.000 C 
ATOM      2  C   UNL     1       2.392   1.416   0.688  0.00  0.00    +0.000 C 
ATOM      3  C   UNL     1       3.153   1.264   1.962  0.00  0.00    +0.000 A 
ATOM      4  C   UNL     1       3.520   0.009   2.527  0.00  0.00    +0.000 A 
ATOM      5  C   UNL     1       4.258   0.135   3.724  0.00  0.00    +0.000 A 
ATOM      6  C   UNL     1       4.589   1.397   4.269  0.00  0.00    +0.000 A 
ATOM      7  C   UNL     1       4.231   2.585   3.683  0.00  0.00    +0.000 A 
ATOM      8  C   UNL     1       3.503   2.517   2.523  0.00  0.00    +0.000 A 
ATOM      9  C   UNL     1       3.118  -1.262   1.810  0.00  0.00    +0.000 A 
ATOM     10  C   UNL     1       3.388  -2.581   2.224  0.00  0.00    +0.000 A 
ATOM     11  C   UNL     1       2.969  -3.725   1.520  0.00  0.00    +0.000 A 
ATOM     12  C   UNL     1       2.271  -3.610   0.333  0.00  0.00    +0.000 A 
ATOM     13  C   UNL     1       1.998  -2.338  -0.157  0.00  0.00    +0.000 A 
ATOM     14  C   UNL     1       1.318  -2.178  -1.520  0.00  0.00    +0.000 C 
ATOM     15  C   UNL     1       1.249  -0.719  -2.058  0.00  0.00    +0.000 C 
ATOM     16  N   UNL     1       2.341   0.037  -1.455  0.00  0.00    +0.000 NA
ATOM     17  C   UNL     1       2.919   1.167  -2.141  0.00  0.00    +0.000 C 
ATOM     18  C   UNL     1       2.410  -1.183   0.589  0.00  0.00    +0.000 A 
ENDROOT
BRANCH   5  19
ATOM     19  O   UNL     1       4.763  -0.862   4.516  0.00  0.00    +0.000 OA
ATOM     20  H   UNL     1       4.432  -1.712   4.212  0.00  0.00    +0.000 HD
ENDBRANCH   5  19
BRANCH   6  21
ATOM     21  O   UNL     1       5.301   1.446   5.438  0.00  0.00    +0.000 OA
ATOM     22  H   UNL     1       5.432   0.501   5.656  0.00  0.00    +0.000 HD
ENDBRANCH   6  21
TORSDOF 2
