REMARK  Name = Apraclonidine
REMARK  2 active torsions:
REMARK  status: ('A' for Active; 'I' for Inactive)
REMARK    1  A    between atoms: N_1  and  C_2
REMARK    2  A    between atoms: C_6  and  N_7
REMARK                            x       y       z     vdW  Elec       q    Type
REMARK                         _______ _______ _______ _____ _____    ______ ____
ROOT
ATOM      1  C   UNL     1       2.484   0.070   0.064  0.00  0.00    +0.000 A 
ATOM      2  C   UNL     1       3.234   1.238   0.044  0.00  0.00    +0.000 A 
ATOM      3  C   UNL     1       4.641   1.187   0.017  0.00  0.00    +0.000 A 
ATOM      4 CL   UNL     1       5.477   2.709   0.009  0.00  0.00    +0.000 Cl
ATOM      5  C   UNL     1       5.358  -0.038   0.019  0.00  0.00    +0.000 A 
ATOM      6  C   UNL     1       4.563  -1.201   0.075  0.00  0.00    +0.000 A 
ATOM      7 CL   UNL     1       5.126  -2.820   0.245  0.00  0.00    +0.000 Cl
ATOM      8  C   UNL     1       3.162  -1.136   0.066  0.00  0.00    +0.000 A 
ENDROOT
BRANCH   5   9
ATOM      9  N   UNL     1       6.779   0.005  -0.170  0.00  0.00    +0.000 N 
ATOM     10  C   UNL     1       7.623  -1.057  -0.018  0.00  0.00    +0.000 C 
ATOM     11  N   UNL     1       8.415  -1.268   0.991  0.00  0.00    +0.000 NA
ATOM     12  C   UNL     1       9.091  -2.562   0.635  0.00  0.00    +0.000 C 
ATOM     13  C   UNL     1       8.290  -3.147  -0.529  0.00  0.00    +0.000 C 
ATOM     14  N   UNL     1       7.696  -1.939  -1.056  0.00  0.00    +0.000 N 
ATOM     15  H   UNL     1       7.143   0.831   0.302  0.00  0.00    +0.000 HD
ATOM     16  H   UNL     1       6.879  -2.018  -1.642  0.00  0.00    +0.000 HD
ENDBRANCH   5   9
BRANCH   1  17
ATOM     17  N   UNL     1       1.105   0.076  -0.026  0.00  0.00    +0.000 N 
ATOM     18  H   UNL     1       0.582   0.934   0.079  0.00  0.00    +0.000 HD
ATOM     19  H   UNL     1       0.594  -0.794   0.077  0.00  0.00    +0.000 HD
ENDBRANCH   1  17
TORSDOF 2
