REMARK  Name = Apremilast
REMARK  12 active torsions:
REMARK  status: ('A' for Active; 'I' for Inactive)
REMARK    1  A    between atoms: C_1  and  C_2
REMARK    2  A    between atoms: C_2  and  O_3
REMARK    3  A    between atoms: O_3  and  C_4
REMARK    4  A    between atoms: C_6  and  C_12
REMARK    5  A    between atoms: C_9  and  O_10
REMARK    6  A    between atoms: O_10  and  C_11
REMARK    7  A    between atoms: C_12  and  C_13
REMARK    8  A    between atoms: C_12  and  N_18
REMARK    9  A    between atoms: C_13  and  S_14
REMARK   10  A    between atoms: S_14  and  C_15
REMARK   11  A    between atoms: C_25  and  N_26
REMARK   12  A    between atoms: C_27  and  C_28
REMARK                            x       y       z     vdW  Elec       q    Type
REMARK                         _______ _______ _______ _____ _____    ______ ____
ROOT
ATOM      1  C   UNL     1       6.776  -4.194   1.249  0.00  0.00    +0.000 C 
ENDROOT
BRANCH   1   2
ATOM      2  N   UNL     1       8.291  -4.319   1.776  0.00  0.00    +0.000 N 
ATOM      3  C   UNL     1       8.827  -5.573   1.774  0.00  0.00    +0.000 C 
ATOM      4  O   UNL     1       8.262  -6.627   1.666  0.00  0.00    +0.000 OA
ATOM      5  C   UNL     1      10.238  -5.481   2.114  0.00  0.00    +0.000 A 
ATOM      6  C   UNL     1      11.197  -6.426   1.824  0.00  0.00    +0.000 A 
ATOM      7  C   UNL     1      12.416  -6.348   2.475  0.00  0.00    +0.000 A 
ATOM      8  C   UNL     1      12.621  -5.345   3.428  0.00  0.00    +0.000 A 
ATOM      9  C   UNL     1      11.629  -4.350   3.686  0.00  0.00    +0.000 A 
ATOM     10  C   UNL     1      10.458  -4.357   2.861  0.00  0.00    +0.000 A 
ATOM     11  C   UNL     1       9.218  -3.526   2.464  0.00  0.00    +0.000 C 
ATOM     12  O   UNL     1       9.188  -2.324   2.673  0.00  0.00    +0.000 OA
BRANCH   9  13
ATOM     13  N   UNL     1      11.936  -3.594   4.858  0.00  0.00    +0.000 N 
ATOM     14  C   UNL     1      11.150  -2.823   5.669  0.00  0.00    +0.000 C 
ATOM     15  C   UNL     1       9.709  -2.694   5.343  0.00  0.00    +0.000 C 
ATOM     16  O   UNL     1      11.626  -2.277   6.664  0.00  0.00    +0.000 OA
ATOM     17  H   UNL     1      12.837  -3.756   5.312  0.00  0.00    +0.000 HD
ENDBRANCH   9  13
ENDBRANCH   1   2
BRANCH   1  20
ATOM     18  C   UNL     1       4.224  -1.217   1.023  0.00  0.00    +0.000 A 
ATOM     19  C   UNL     1       4.773  -2.518   1.083  0.00  0.00    +0.000 A 
ATOM     20  C   UNL     1       6.166  -2.799   1.161  0.00  0.00    +0.000 A 
ATOM     21  C   UNL     1       6.988  -1.704   1.118  0.00  0.00    +0.000 A 
ATOM     22  C   UNL     1       6.482  -0.451   1.394  0.00  0.00    +0.000 A 
ATOM     23  C   UNL     1       5.114  -0.176   1.327  0.00  0.00    +0.000 A 
BRANCH  23  24
ATOM     24  O   UNL     1       4.931   1.144   1.656  0.00  0.00    +0.000 OA
ATOM     25  C   UNL     1       3.677   1.628   1.311  0.00  0.00    +0.000 C 
ENDBRANCH  23  24
BRANCH  18  26
ATOM     26  O   UNL     1       2.848  -1.232   0.865  0.00  0.00    +0.000 OA
BRANCH  26  28
ATOM     27  C   UNL     1       0.720  -0.307  -0.033  0.00  0.00    +0.000 C 
ATOM     28  C   UNL     1       2.230  -0.374  -0.099  0.00  0.00    +0.000 C 
ENDBRANCH  26  28
ENDBRANCH  18  26
ENDBRANCH   1  20
BRANCH   1  29
ATOM     29  C   UNL     1       6.616  -4.937  -0.117  0.00  0.00    +0.000 C 
BRANCH  29  30
ATOM     30  S   UNL     1       4.973  -5.161  -0.831  0.00  0.00    +0.000 S 
ATOM     31  C   UNL     1       3.960  -5.867   0.476  0.00  0.00    +0.000 C 
ATOM     32  O   UNL     1       4.425  -3.881  -1.235  0.00  0.00    +0.000 OA
ATOM     33  O   UNL     1       5.081  -6.185  -1.856  0.00  0.00    +0.000 OA
ENDBRANCH  29  30
ENDBRANCH   1  29
TORSDOF 8
