REMARK  Name = Aprepitant
REMARK  9 active torsions:
REMARK  status: ('A' for Active; 'I' for Inactive)
REMARK    1  A    between atoms: C_1  and  C_2
REMARK    2  A    between atoms: C_2  and  O_3
REMARK    3  A    between atoms: C_2  and  C_24
REMARK    4  A    between atoms: O_3  and  C_4
REMARK    5  A    between atoms: N_8  and  C_9
REMARK    6  A    between atoms: C_9  and  C_10
REMARK    7  A    between atoms: C_16  and  C_17
REMARK    8  A    between atoms: C_26  and  C_34
REMARK    9  A    between atoms: C_28  and  C_30
REMARK                            x       y       z     vdW  Elec       q    Type
REMARK                         _______ _______ _______ _____ _____    ______ ____
ROOT
ATOM      1  C   UNL     1       2.578  -1.968   1.441  0.00  0.00    +0.000 C 
ATOM      2  O   UNL     1       2.884  -3.373   1.487  0.00  0.00    +0.000 OA
ATOM      3  C   UNL     1       2.533  -3.939   2.763  0.00  0.00    +0.000 C 
ATOM      4  C   UNL     1       3.122  -3.185   3.986  0.00  0.00    +0.000 C 
ATOM      5  N   UNL     1       2.851  -1.727   3.962  0.00  0.00    +0.000 NA
ATOM      6  C   UNL     1       3.282  -1.214   2.619  0.00  0.00    +0.000 C 
ENDROOT
BRANCH   6   7
ATOM      7  C   UNL     1       4.798  -1.174   2.398  0.00  0.00    +0.000 A 
ATOM      8  C   UNL     1       5.542  -2.356   2.256  0.00  0.00    +0.000 A 
ATOM      9  C   UNL     1       6.914  -2.344   2.108  0.00  0.00    +0.000 A 
ATOM     10  C   UNL     1       7.553  -1.130   1.974  0.00  0.00    +0.000 A 
ATOM     11  F   UNL     1       8.878  -1.116   1.792  0.00  0.00    +0.000 F 
ATOM     12  C   UNL     1       6.842   0.066   2.001  0.00  0.00    +0.000 A 
ATOM     13  C   UNL     1       5.466   0.051   2.233  0.00  0.00    +0.000 A 
ENDBRANCH   6   7
BRANCH   1  14
ATOM     14  O   UNL     1       2.895  -1.407   0.170  0.00  0.00    +0.000 OA
BRANCH  14  16
ATOM     15  C   UNL     1       0.909   0.009   0.028  0.00  0.00    +0.000 C 
ATOM     16  C   UNL     1       2.432  -0.061   0.031  0.00  0.00    +0.000 C 
BRANCH  16  17
ATOM     17  C   UNL     1       2.960   0.543  -1.244  0.00  0.00    +0.000 A 
ATOM     18  C   UNL     1       3.669  -0.194  -2.193  0.00  0.00    +0.000 A 
ATOM     19  C   UNL     1       4.201   0.443  -3.318  0.00  0.00    +0.000 A 
ATOM     20  C   UNL     1       3.893   1.789  -3.555  0.00  0.00    +0.000 A 
ATOM     21  C   UNL     1       3.194   2.541  -2.607  0.00  0.00    +0.000 A 
ATOM     22  C   UNL     1       2.756   1.914  -1.446  0.00  0.00    +0.000 A 
BRANCH  21  23
ATOM     23  C   UNL     1       2.974   4.011  -2.806  0.00  0.00    +0.000 C 
ATOM     24  F   UNL     1       4.146   4.688  -2.940  0.00  0.00    +0.000 F 
ATOM     25  F   UNL     1       2.243   4.280  -3.919  0.00  0.00    +0.000 F 
ATOM     26  F   UNL     1       2.317   4.602  -1.768  0.00  0.00    +0.000 F 
ENDBRANCH  21  23
BRANCH  19  27
ATOM     27  C   UNL     1       5.191  -0.276  -4.192  0.00  0.00    +0.000 C 
ATOM     28  F   UNL     1       6.289  -0.674  -3.490  0.00  0.00    +0.000 F 
ATOM     29  F   UNL     1       4.684  -1.391  -4.778  0.00  0.00    +0.000 F 
ATOM     30  F   UNL     1       5.667   0.504  -5.202  0.00  0.00    +0.000 F 
ENDBRANCH  19  27
ENDBRANCH  16  17
ENDBRANCH  14  16
ENDBRANCH   1  14
BRANCH   5  31
ATOM     31  C   UNL     1       1.388  -1.529   4.182  0.00  0.00    +0.000 C 
BRANCH  31  32
ATOM     32  C   UNL     1       0.973  -0.078   4.134  0.00  0.00    +0.000 A 
ATOM     33  N   UNL     1       1.067   0.689   3.082  0.00  0.00    +0.000 NA
ATOM     34  N   UNL     1       0.597   1.892   3.499  0.00  0.00    +0.000 N 
ATOM     35  C   UNL     1       0.179   1.813   4.820  0.00  0.00    +0.000 A 
ATOM     36  O   UNL     1      -0.300   2.695   5.492  0.00  0.00    +0.000 OA
ATOM     37  N   UNL     1       0.421   0.522   5.198  0.00  0.00    +0.000 N 
ATOM     38  H   UNL     1       0.600   2.719   2.918  0.00  0.00    +0.000 HD
ATOM     39  H   UNL     1       0.215   0.145   6.105  0.00  0.00    +0.000 HD
ENDBRANCH  31  32
ENDBRANCH   5  31
TORSDOF 8
