REMARK  Name = Apronalide
REMARK  6 active torsions:
REMARK  status: ('A' for Active; 'I' for Inactive)
REMARK    1  A    between atoms: C_1  and  C_2
REMARK    2  A    between atoms: C_2  and  C_3
REMARK    3  A    between atoms: C_2  and  C_4
REMARK    4  A    between atoms: C_4  and  C_5
REMARK    5  A    between atoms: C_4  and  C_8
REMARK    6  A    between atoms: C_5  and  C_6
REMARK                            x       y       z     vdW  Elec       q    Type
REMARK                         _______ _______ _______ _____ _____    ______ ____
ROOT
ATOM      1  C   UNL     1       4.700  -0.697   1.243  0.00  0.00    +0.000 C 
ATOM      2  O   UNL     1       5.293  -0.317   0.231  0.00  0.00    +0.000 OA
ATOM      3  N   UNL     1       5.403  -1.155   2.343  0.00  0.00    +0.000 N 
ATOM      4  C   UNL     1       6.773  -1.216   2.457  0.00  0.00    +0.000 C 
ATOM      5  N   UNL     1       7.496  -0.672   1.454  0.00  0.00    +0.000 N 
ATOM      6  O   UNL     1       7.319  -1.731   3.432  0.00  0.00    +0.000 OA
ATOM      7  H   UNL     1       4.923  -1.550   3.137  0.00  0.00    +0.000 HD
ATOM      8  H   UNL     1       7.019  -0.302   0.633  0.00  0.00    +0.000 HD
ATOM      9  H   UNL     1       8.504  -0.708   1.457  0.00  0.00    +0.000 HD
ENDROOT
BRANCH   1  10
ATOM     10  C   UNL     1       3.149  -0.663   1.327  0.00  0.00    +0.000 C 
BRANCH  10  12
ATOM     11  C   UNL     1       1.079   0.138  -0.098  0.00  0.00    +0.000 C 
ATOM     12  C   UNL     1       2.604   0.074   0.044  0.00  0.00    +0.000 C 
ATOM     13  C   UNL     1       3.087   1.532  -0.020  0.00  0.00    +0.000 C 
ENDBRANCH  10  12
BRANCH  10  14
ATOM     14  C   UNL     1       2.612  -2.110   1.483  0.00  0.00    +0.000 C 
BRANCH  14  15
ATOM     15  C   UNL     1       1.122  -2.232   1.672  0.00  0.00    +0.000 C 
ATOM     16  C   UNL     1       0.424  -3.364   1.519  0.00  0.00    +0.000 C 
ENDBRANCH  14  15
ENDBRANCH  10  14
ENDBRANCH   1  10
TORSDOF 4
