REMARK  Name = Arbutamine
REMARK  12 active torsions:
REMARK  status: ('A' for Active; 'I' for Inactive)
REMARK    1  A    between atoms: O_1  and  C_2
REMARK    2  A    between atoms: C_2  and  C_3
REMARK    3  A    between atoms: C_2  and  C_16
REMARK    4  A    between atoms: C_3  and  N_4
REMARK    5  A    between atoms: N_4  and  C_5
REMARK    6  A    between atoms: C_5  and  C_6
REMARK    7  A    between atoms: C_6  and  C_7
REMARK    8  A    between atoms: C_7  and  C_8
REMARK    9  A    between atoms: C_8  and  C_9
REMARK   10  A    between atoms: C_12  and  O_13
REMARK   11  A    between atoms: C_18  and  O_19
REMARK   12  A    between atoms: C_20  and  O_21
REMARK                            x       y       z     vdW  Elec       q    Type
REMARK                         _______ _______ _______ _____ _____    ______ ____
ROOT
ATOM      1  C   UNL     1       2.822   1.123   0.792  0.00  0.00    +0.000 C 
ENDROOT
BRANCH   1   2
ATOM      2  N   UNL     1       2.310   2.400   0.280  0.00  0.00    +0.000 NA
ATOM      3  H   UNL     1       1.295   2.415   0.369  0.00  0.00    +0.000 HD
BRANCH   2   4
ATOM      4  C   UNL     1       2.837   3.472   1.118  0.00  0.00    +0.000 C 
BRANCH   4   5
ATOM      5  C   UNL     1       2.331   4.793   0.571  0.00  0.00    +0.000 C 
BRANCH   5   6
ATOM      6  C   UNL     1       2.846   5.912   1.454  0.00  0.00    +0.000 C 
BRANCH   6   7
ATOM      7  C   UNL     1       2.373   7.272   0.964  0.00  0.00    +0.000 C 
BRANCH   7   8
ATOM      8  C   UNL     1       2.804   8.423   1.839  0.00  0.00    +0.000 A 
ATOM      9  C   UNL     1       3.580   8.265   2.997  0.00  0.00    +0.000 A 
ATOM     10  C   UNL     1       3.895   9.358   3.804  0.00  0.00    +0.000 A 
ATOM     11  C   UNL     1       3.439  10.620   3.442  0.00  0.00    +0.000 A 
ATOM     12  C   UNL     1       2.689  10.802   2.290  0.00  0.00    +0.000 A 
ATOM     13  C   UNL     1       2.373   9.709   1.485  0.00  0.00    +0.000 A 
BRANCH  11  14
ATOM     14  O   UNL     1       3.711  11.715   4.206  0.00  0.00    +0.000 OA
ATOM     15  H   UNL     1       4.250  11.435   4.962  0.00  0.00    +0.000 HD
ENDBRANCH  11  14
ENDBRANCH   7   8
ENDBRANCH   6   7
ENDBRANCH   5   6
ENDBRANCH   4   5
ENDBRANCH   2   4
ENDBRANCH   1   2
BRANCH   1  16
ATOM     16  C   UNL     1       2.345  -0.083  -0.041  0.00  0.00    +0.000 C 
BRANCH  16  17
ATOM     17  C   UNL     1       2.808  -1.418   0.511  0.00  0.00    +0.000 A 
ATOM     18  C   UNL     1       2.239  -2.604   0.010  0.00  0.00    +0.000 A 
ATOM     19  C   UNL     1       2.621  -3.832   0.541  0.00  0.00    +0.000 A 
ATOM     20  C   UNL     1       3.566  -3.899   1.558  0.00  0.00    +0.000 A 
ATOM     21  C   UNL     1       4.166  -2.751   2.043  0.00  0.00    +0.000 A 
ATOM     22  C   UNL     1       3.795  -1.518   1.511  0.00  0.00    +0.000 A 
BRANCH  19  23
ATOM     23  O   UNL     1       2.078  -5.006   0.095  0.00  0.00    +0.000 OA
ATOM     24  H   UNL     1       1.446  -4.790  -0.612  0.00  0.00    +0.000 HD
ENDBRANCH  19  23
BRANCH  20  25
ATOM     25  O   UNL     1       3.917  -5.099   2.103  0.00  0.00    +0.000 OA
ATOM     26  H   UNL     1       3.361  -5.750   1.631  0.00  0.00    +0.000 HD
ENDBRANCH  20  25
ENDBRANCH  16  17
BRANCH  16  27
ATOM     27  O   UNL     1       0.911  -0.080  -0.071  0.00  0.00    +0.000 OA
ATOM     28  H   UNL     1       0.663   0.756  -0.499  0.00  0.00    +0.000 HD
ENDBRANCH  16  27
ENDBRANCH   1  16
TORSDOF 12
