REMARK  Name = Arbutin
REMARK  8 active torsions:
REMARK  status: ('A' for Active; 'I' for Inactive)
REMARK    1  A    between atoms: O_1  and  C_2
REMARK    2  A    between atoms: C_2  and  C_3
REMARK    3  A    between atoms: C_5  and  O_6
REMARK    4  A    between atoms: O_6  and  C_7
REMARK    5  A    between atoms: C_10  and  O_11
REMARK    6  A    between atoms: C_14  and  O_15
REMARK    7  A    between atoms: C_16  and  O_17
REMARK    8  A    between atoms: C_18  and  O_19
REMARK                            x       y       z     vdW  Elec       q    Type
REMARK                         _______ _______ _______ _____ _____    ______ ____
ROOT
ATOM      1  C   UNL     1       2.743  -1.494  -0.222  0.00  0.00    +0.000 C 
ATOM      2  O   UNL     1       3.341  -1.403  -1.506  0.00  0.00    +0.000 OA
ATOM      3  C   UNL     1       2.873  -2.405  -2.389  0.00  0.00    +0.000 C 
ATOM      4  C   UNL     1       3.163  -3.835  -1.857  0.00  0.00    +0.000 C 
ATOM      5  C   UNL     1       2.846  -3.946  -0.343  0.00  0.00    +0.000 C 
ATOM      6  C   UNL     1       3.379  -2.705   0.494  0.00  0.00    +0.000 C 
ENDROOT
BRANCH   4   7
ATOM      7  O   UNL     1       2.478  -4.832  -2.629  0.00  0.00    +0.000 OA
ATOM      8  H   UNL     1       1.526  -4.641  -2.630  0.00  0.00    +0.000 HD
ENDBRANCH   4   7
BRANCH   5   9
ATOM      9  O   UNL     1       3.329  -5.188   0.178  0.00  0.00    +0.000 OA
ATOM     10  H   UNL     1       4.272  -5.270  -0.041  0.00  0.00    +0.000 HD
ENDBRANCH   5   9
BRANCH   6  11
ATOM     11  O   UNL     1       2.973  -2.812   1.855  0.00  0.00    +0.000 OA
ATOM     12  H   UNL     1       2.024  -3.032   1.873  0.00  0.00    +0.000 HD
ENDBRANCH   6  11
BRANCH   1  13
ATOM     13  C   UNL     1       2.500  -0.028   0.155  0.00  0.00    +0.000 C 
BRANCH  13  14
ATOM     14  O   UNL     1       1.060   0.129   0.132  0.00  0.00    +0.000 OA
ATOM     15  H   UNL     1       0.846   1.055  -0.061  0.00  0.00    +0.000 HD
ENDBRANCH  13  14
ENDBRANCH   1  13
BRANCH   3  16
ATOM     16  O   UNL     1       3.398  -2.170  -3.701  0.00  0.00    +0.000 OA
BRANCH  16  17
ATOM     17  C   UNL     1       4.765  -2.168  -3.838  0.00  0.00    +0.000 A 
ATOM     18  C   UNL     1       5.683  -2.334  -2.805  0.00  0.00    +0.000 A 
ATOM     19  C   UNL     1       7.044  -2.492  -3.049  0.00  0.00    +0.000 A 
ATOM     20  C   UNL     1       7.490  -2.381  -4.357  0.00  0.00    +0.000 A 
ATOM     21  C   UNL     1       6.612  -2.126  -5.393  0.00  0.00    +0.000 A 
ATOM     22  C   UNL     1       5.235  -2.027  -5.146  0.00  0.00    +0.000 A 
BRANCH  20  23
ATOM     23  O   UNL     1       8.822  -2.512  -4.629  0.00  0.00    +0.000 OA
ATOM     24  H   UNL     1       9.284  -2.690  -3.798  0.00  0.00    +0.000 HD
ENDBRANCH  20  23
ENDBRANCH  16  17
ENDBRANCH   3  16
TORSDOF 8
