REMARK  Name = Arformoterol
REMARK  12 active torsions:
REMARK  status: ('A' for Active; 'I' for Inactive)
REMARK    1  A    between atoms: C_1  and  O_2
REMARK    2  A    between atoms: O_2  and  C_3
REMARK    3  A    between atoms: C_6  and  C_7
REMARK    4  A    between atoms: C_7  and  C_8
REMARK    5  A    between atoms: C_8  and  C_9
REMARK    6  A    between atoms: C_8  and  N_10
REMARK    7  A    between atoms: N_10  and  C_11
REMARK    8  A    between atoms: C_11  and  C_12
REMARK    9  A    between atoms: C_12  and  O_13
REMARK   10  A    between atoms: C_12  and  C_14
REMARK   11  A    between atoms: C_16  and  N_17
REMARK   12  A    between atoms: C_20  and  O_21
REMARK                            x       y       z     vdW  Elec       q    Type
REMARK                         _______ _______ _______ _____ _____    ______ ____
ROOT
ATOM      1  C   UNL     1       5.450   5.869   7.517  0.00  0.00    +0.000 C 
ENDROOT
BRANCH   1   2
ATOM      2  C   UNL     1       4.728   6.109   8.835  0.00  0.00    +0.000 A 
ATOM      3  C   UNL     1       4.534   7.375   9.440  0.00  0.00    +0.000 A 
ATOM      4  C   UNL     1       4.044   7.501  10.746  0.00  0.00    +0.000 A 
ATOM      5  C   UNL     1       3.586   6.349  11.383  0.00  0.00    +0.000 A 
ATOM      6  C   UNL     1       3.747   5.096  10.803  0.00  0.00    +0.000 A 
ATOM      7  C   UNL     1       4.326   4.975   9.547  0.00  0.00    +0.000 A 
BRANCH   4   8
ATOM      8  N   UNL     1       4.104   8.785  11.336  0.00  0.00    +0.000 N 
ATOM      9  C   UNL     1       3.984   9.100  12.657  0.00  0.00    +0.000 C 
ATOM     10  O   UNL     1       4.033  10.258  13.073  0.00  0.00    +0.000 OA
ATOM     11  H   UNL     1       4.434   9.563  10.774  0.00  0.00    +0.000 HD
ENDBRANCH   4   8
BRANCH   5  12
ATOM     12  O   UNL     1       2.901   6.368  12.562  0.00  0.00    +0.000 OA
ATOM     13  H   UNL     1       2.342   7.165  12.542  0.00  0.00    +0.000 HD
ENDBRANCH   5  12
ENDBRANCH   1   2
BRANCH   1  14
ATOM     14  O   UNL     1       4.737   4.879   6.761  0.00  0.00    +0.000 OA
ATOM     15  H   UNL     1       3.966   5.359   6.399  0.00  0.00    +0.000 HD
ENDBRANCH   1  14
BRANCH   1  16
ATOM     16  C   UNL     1       5.681   7.114   6.654  0.00  0.00    +0.000 C 
BRANCH  16  17
ATOM     17  N   UNL     1       4.917   7.104   5.402  0.00  0.00    +0.000 NA
ATOM     18  H   UNL     1       5.320   6.381   4.798  0.00  0.00    +0.000 HD
BRANCH  17  19
ATOM     19  C   UNL     1       5.017   8.423   4.764  0.00  0.00    +0.000 C 
ATOM     20  C   UNL     1       4.328   9.494   5.651  0.00  0.00    +0.000 C 
BRANCH  19  21
ATOM     21  C   UNL     1       4.382   8.385   3.362  0.00  0.00    +0.000 C 
BRANCH  21  25
ATOM     22  C   UNL     1       5.021  12.042   1.144  0.00  0.00    +0.000 A 
ATOM     23  C   UNL     1       4.287  10.989   0.587  0.00  0.00    +0.000 A 
ATOM     24  C   UNL     1       4.034   9.823   1.321  0.00  0.00    +0.000 A 
ATOM     25  C   UNL     1       4.612   9.659   2.579  0.00  0.00    +0.000 A 
ATOM     26  C   UNL     1       5.416  10.696   3.074  0.00  0.00    +0.000 A 
ATOM     27  C   UNL     1       5.561  11.895   2.407  0.00  0.00    +0.000 A 
BRANCH  22  29
ATOM     28  C   UNL     1       6.283  13.977   0.681  0.00  0.00    +0.000 C 
ATOM     29  O   UNL     1       5.118  13.195   0.419  0.00  0.00    +0.000 OA
ENDBRANCH  22  29
ENDBRANCH  21  25
ENDBRANCH  19  21
ENDBRANCH  17  19
ENDBRANCH  16  17
ENDBRANCH   1  16
TORSDOF 10
