REMARK  Name = Argatroban
REMARK  12 active torsions:
REMARK  status: ('A' for Active; 'I' for Inactive)
REMARK    1  A    between atoms: C_1  and  C_2
REMARK    2  A    between atoms: C_6  and  C_8
REMARK    3  A    between atoms: C_8  and  O_9
REMARK    4  A    between atoms: C_11  and  C_13
REMARK    5  A    between atoms: C_13  and  C_14
REMARK    6  A    between atoms: C_13  and  N_21
REMARK    7  A    between atoms: C_14  and  C_15
REMARK    8  A    between atoms: C_15  and  C_16
REMARK    9  A    between atoms: C_16  and  N_17
REMARK   10  A    between atoms: N_21  and  S_22
REMARK   11  A    between atoms: S_22  and  C_25
REMARK   12  A    between atoms: C_33  and  C_34
REMARK                            x       y       z     vdW  Elec       q    Type
REMARK                         _______ _______ _______ _____ _____    ______ ____
ROOT
ATOM      1  C   UNL     1       3.597  -1.310  -1.580  0.00  0.00    +0.000 C 
ENDROOT
BRANCH   1   9
ATOM      2  C   UNL     1       0.385  -6.236  -0.359  0.00  0.00    +0.000 C 
ATOM      3  C   UNL     1       1.690  -6.091  -1.143  0.00  0.00    +0.000 C 
ATOM      4  C   UNL     1       2.676  -5.172  -0.419  0.00  0.00    +0.000 C 
ATOM      5  C   UNL     1       2.204  -3.721  -0.433  0.00  0.00    +0.000 C 
ATOM      6  N   UNL     1       1.963  -3.245  -1.800  0.00  0.00    +0.000 N 
ATOM      7  C   UNL     1       1.021  -4.072  -2.607  0.00  0.00    +0.000 C 
ATOM      8  C   UNL     1       1.441  -5.559  -2.560  0.00  0.00    +0.000 C 
ATOM      9  C   UNL     1       2.530  -2.103  -2.353  0.00  0.00    +0.000 C 
ATOM     10  O   UNL     1       2.243  -1.688  -3.478  0.00  0.00    +0.000 OA
BRANCH   7  11
ATOM     11  C   UNL     1       0.607  -3.611  -4.041  0.00  0.00    +0.000 C 
ATOM     12  O   UNL     1      -0.053  -2.598  -4.251  0.00  0.00    +0.000 OA
BRANCH  11  13
ATOM     13  O   UNL     1       0.939  -4.433  -5.065  0.00  0.00    +0.000 OA
ATOM     14  H   UNL     1       1.485  -5.209  -4.857  0.00  0.00    +0.000 HD
ENDBRANCH  11  13
ENDBRANCH   7  11
ENDBRANCH   1   9
BRANCH   1  15
ATOM     15  N   UNL     1       4.797  -1.128  -2.471  0.00  0.00    +0.000 NA
ATOM     16  H   UNL     1       5.529  -0.617  -1.981  0.00  0.00    +0.000 HD
BRANCH  15  17
ATOM     17  S   UNL     1       5.447  -2.623  -2.988  0.00  0.00    +0.000 S 
ATOM     18  O   UNL     1       5.948  -3.227  -1.774  0.00  0.00    +0.000 OA
ATOM     19  O   UNL     1       4.482  -3.332  -3.806  0.00  0.00    +0.000 OA
BRANCH  17  20
ATOM     20  C   UNL     1       6.828  -2.238  -4.015  0.00  0.00    +0.000 A 
ATOM     21  C   UNL     1       7.118  -0.911  -4.365  0.00  0.00    +0.000 A 
ATOM     22  C   UNL     1       8.207  -0.634  -5.191  0.00  0.00    +0.000 A 
ATOM     23  C   UNL     1       8.991  -1.674  -5.677  0.00  0.00    +0.000 A 
ATOM     24  C   UNL     1       8.699  -3.000  -5.332  0.00  0.00    +0.000 A 
ATOM     25  C   UNL     1       7.607  -3.307  -4.492  0.00  0.00    +0.000 A 
ATOM     26  N   UNL     1       7.310  -4.636  -4.214  0.00  0.00    +0.000 N 
ATOM     27  C   UNL     1       7.884  -5.679  -5.032  0.00  0.00    +0.000 C 
ATOM     28  C   UNL     1       9.380  -5.417  -5.145  0.00  0.00    +0.000 C 
ATOM     29  C   UNL     1      10.094  -6.555  -5.852  0.00  0.00    +0.000 C 
ATOM     30  C   UNL     1       9.568  -4.098  -5.899  0.00  0.00    +0.000 C 
ATOM     31  H   UNL     1       6.660  -4.897  -3.480  0.00  0.00    +0.000 HD
ENDBRANCH  17  20
ENDBRANCH  15  17
ENDBRANCH   1  15
BRANCH   1  32
ATOM     32  C   UNL     1       2.964   0.024  -1.146  0.00  0.00    +0.000 C 
BRANCH  32  33
ATOM     33  C   UNL     1       3.840   1.273  -1.285  0.00  0.00    +0.000 C 
BRANCH  33  34
ATOM     34  C   UNL     1       3.056   2.507  -0.845  0.00  0.00    +0.000 C 
BRANCH  34  35
ATOM     35  N   UNL     1       3.841   3.720  -0.938  0.00  0.00    +0.000 N 
ATOM     36  C   UNL     1       3.410   4.964  -0.628  0.00  0.00    +0.000 C 
ATOM     37  N   UNL     1       2.172   5.085  -0.135  0.00  0.00    +0.000 N 
ATOM     38  N   UNL     1       4.124   6.026  -0.753  0.00  0.00    +0.000 NA
ATOM     39  H   UNL     1       4.772   3.635  -1.322  0.00  0.00    +0.000 HD
ATOM     40  H   UNL     1       1.507   4.333  -0.100  0.00  0.00    +0.000 HD
ATOM     41  H   UNL     1       1.842   6.025   0.033  0.00  0.00    +0.000 HD
ATOM     42  H   UNL     1       5.046   5.789  -1.115  0.00  0.00    +0.000 HD
ENDBRANCH  34  35
ENDBRANCH  33  34
ENDBRANCH  32  33
ENDBRANCH   1  32
TORSDOF 10
