REMARK  Name = Aripiprazole
REMARK  7 active torsions:
REMARK  status: ('A' for Active; 'I' for Inactive)
REMARK    1  A    between atoms: C_6  and  N_7
REMARK    2  A    between atoms: N_10  and  C_11
REMARK    3  A    between atoms: C_11  and  C_12
REMARK    4  A    between atoms: C_12  and  C_13
REMARK    5  A    between atoms: C_13  and  C_14
REMARK    6  A    between atoms: C_14  and  O_15
REMARK    7  A    between atoms: O_15  and  C_16
REMARK                            x       y       z     vdW  Elec       q    Type
REMARK                         _______ _______ _______ _____ _____    ______ ____
ROOT
ATOM      1  C   UNL     1      -2.103  -7.138  -1.449  0.00  0.00    +0.000 C 
ENDROOT
BRANCH   1   2
ATOM      2  C   UNL     1      -1.450  -6.377  -0.298  0.00  0.00    +0.000 C 
BRANCH   2   6
ATOM      3  N   UNL     1      -1.356  -2.835   0.064  0.00  0.00    +0.000 N 
ATOM      4  C   UNL     1      -0.685  -3.727   1.019  0.00  0.00    +0.000 C 
ATOM      5  C   UNL     1      -1.711  -4.789   1.517  0.00  0.00    +0.000 C 
ATOM      6  N   UNL     1      -2.413  -5.525   0.424  0.00  0.00    +0.000 NA
ATOM      7  C   UNL     1      -3.040  -4.511  -0.469  0.00  0.00    +0.000 C 
ATOM      8  C   UNL     1      -2.032  -3.499  -1.050  0.00  0.00    +0.000 C 
BRANCH   3  14
ATOM      9 CL   UNL     1       1.335   1.642  -0.006  0.00  0.00    +0.000 Cl
ATOM     10  C   UNL     1      -0.105   0.681   0.012  0.00  0.00    +0.000 A 
ATOM     11  C   UNL     1      -1.323   1.368  -0.031  0.00  0.00    +0.000 A 
ATOM     12  C   UNL     1      -2.517   0.661  -0.015  0.00  0.00    +0.000 A 
ATOM     13  C   UNL     1      -2.488  -0.731   0.040  0.00  0.00    +0.000 A 
ATOM     14  C   UNL     1      -1.278  -1.458   0.070  0.00  0.00    +0.000 A 
ATOM     15  C   UNL     1      -0.073  -0.725   0.057  0.00  0.00    +0.000 A 
ATOM     16 CL   UNL     1       1.453  -1.559  -0.014  0.00  0.00    +0.000 Cl
ENDBRANCH   3  14
ENDBRANCH   2   6
ENDBRANCH   1   2
BRANCH   1  17
ATOM     17  C   UNL     1      -1.079  -7.965  -2.212  0.00  0.00    +0.000 C 
BRANCH  17  18
ATOM     18  C   UNL     1      -1.757  -8.686  -3.369  0.00  0.00    +0.000 C 
BRANCH  18  19
ATOM     19  O   UNL     1      -0.772  -9.461  -4.063  0.00  0.00    +0.000 OA
BRANCH  19  20
ATOM     20  C   UNL     1      -1.301 -10.173  -5.107  0.00  0.00    +0.000 A 
ATOM     21  C   UNL     1      -2.099  -9.590  -6.090  0.00  0.00    +0.000 A 
ATOM     22  C   UNL     1      -2.648 -10.390  -7.088  0.00  0.00    +0.000 A 
ATOM     23  C   UNL     1      -2.378 -11.761  -7.145  0.00  0.00    +0.000 A 
ATOM     24  C   UNL     1      -2.966 -12.567  -8.271  0.00  0.00    +0.000 C 
ATOM     25  C   UNL     1      -4.341 -12.026  -8.638  0.00  0.00    +0.000 C 
ATOM     26  C   UNL     1      -4.285 -10.537  -8.889  0.00  0.00    +0.000 C 
ATOM     27  O   UNL     1      -4.999  -9.978  -9.724  0.00  0.00    +0.000 OA
ATOM     28  N   UNL     1      -3.484  -9.812  -8.049  0.00  0.00    +0.000 N 
ATOM     29  C   UNL     1      -1.507 -12.322  -6.206  0.00  0.00    +0.000 A 
ATOM     30  C   UNL     1      -0.968 -11.526  -5.190  0.00  0.00    +0.000 A 
ATOM     31  H   UNL     1      -3.549  -8.806  -8.130  0.00  0.00    +0.000 HD
ENDBRANCH  19  20
ENDBRANCH  18  19
ENDBRANCH  17  18
ENDBRANCH   1  17
TORSDOF 7
