REMARK  Name = Aripiprazole lauroxil
REMARK  21 active torsions:
REMARK  status: ('A' for Active; 'I' for Inactive)
REMARK    1  A    between atoms: C_1  and  C_2
REMARK    2  A    between atoms: C_2  and  C_3
REMARK    3  A    between atoms: C_3  and  C_4
REMARK    4  A    between atoms: C_4  and  C_5
REMARK    5  A    between atoms: C_5  and  C_6
REMARK    6  A    between atoms: C_6  and  C_7
REMARK    7  A    between atoms: C_7  and  C_8
REMARK    8  A    between atoms: C_8  and  C_9
REMARK    9  A    between atoms: C_9  and  C_10
REMARK   10  A    between atoms: C_10  and  C_11
REMARK   11  A    between atoms: C_11  and  C_12
REMARK   12  A    between atoms: C_12  and  O_14
REMARK   13  A    between atoms: O_14  and  C_15
REMARK   14  A    between atoms: C_15  and  N_16
REMARK   15  A    between atoms: C_24  and  O_25
REMARK   16  A    between atoms: O_25  and  C_26
REMARK   17  A    between atoms: C_26  and  C_27
REMARK   18  A    between atoms: C_27  and  C_28
REMARK   19  A    between atoms: C_28  and  C_29
REMARK   20  A    between atoms: C_29  and  N_30
REMARK   21  A    between atoms: N_33  and  C_36
REMARK                            x       y       z     vdW  Elec       q    Type
REMARK                         _______ _______ _______ _____ _____    ______ ____
ROOT
ATOM      1  N   UNL     1      15.153  -0.399  -9.680  0.00  0.00    +0.000 N 
ATOM      2  C   UNL     1      15.454   0.770 -10.363  0.00  0.00    +0.000 C 
ATOM      3  O   UNL     1      15.331   1.893  -9.867  0.00  0.00    +0.000 OA
ATOM      4  C   UNL     1      15.843   0.616 -11.818  0.00  0.00    +0.000 C 
ATOM      5  C   UNL     1      16.749  -0.580 -12.032  0.00  0.00    +0.000 C 
ATOM      6  C   UNL     1      16.116  -1.804 -11.438  0.00  0.00    +0.000 A 
ATOM      7  C   UNL     1      16.341  -3.073 -11.993  0.00  0.00    +0.000 A 
ATOM      8  C   UNL     1      15.783  -4.207 -11.401  0.00  0.00    +0.000 A 
ATOM      9  C   UNL     1      15.008  -4.086 -10.253  0.00  0.00    +0.000 A 
ATOM     10  C   UNL     1      14.801  -2.826  -9.695  0.00  0.00    +0.000 A 
ATOM     11  C   UNL     1      15.351  -1.680 -10.270  0.00  0.00    +0.000 A 
ENDROOT
BRANCH   1  12
ATOM     12  C   UNL     1      14.648  -0.290  -8.313  0.00  0.00    +0.000 C 
BRANCH  12  13
ATOM     13  O   UNL     1      13.214  -0.330  -8.333  0.00  0.00    +0.000 OA
BRANCH  13  14
ATOM     14  C   UNL     1      12.678  -0.286  -7.080  0.00  0.00    +0.000 C 
ATOM     15  O   UNL     1      13.335  -0.271  -6.053  0.00  0.00    +0.000 OA
BRANCH  14  16
ATOM     16  C   UNL     1      11.161  -0.290  -7.132  0.00  0.00    +0.000 C 
BRANCH  16  17
ATOM     17  C   UNL     1      10.586  -0.224  -5.716  0.00  0.00    +0.000 C 
BRANCH  17  18
ATOM     18  C   UNL     1       9.062  -0.224  -5.704  0.00  0.00    +0.000 C 
BRANCH  18  19
ATOM     19  C   UNL     1       8.544  -0.154  -4.271  0.00  0.00    +0.000 C 
BRANCH  19  20
ATOM     20  C   UNL     1       7.023  -0.153  -4.253  0.00  0.00    +0.000 C 
BRANCH  20  21
ATOM     21  C   UNL     1       6.509  -0.082  -2.824  0.00  0.00    +0.000 C 
BRANCH  21  22
ATOM     22  C   UNL     1       4.989  -0.081  -2.813  0.00  0.00    +0.000 C 
BRANCH  22  23
ATOM     23  C   UNL     1       4.474  -0.011  -1.384  0.00  0.00    +0.000 C 
BRANCH  23  24
ATOM     24  C   UNL     1       2.953  -0.010  -1.373  0.00  0.00    +0.000 C 
BRANCH  24  26
ATOM     25  C   UNL     1       0.912   0.061   0.063  0.00  0.00    +0.000 C 
ATOM     26  C   UNL     1       2.428   0.060   0.055  0.00  0.00    +0.000 C 
ENDBRANCH  24  26
ENDBRANCH  23  24
ENDBRANCH  22  23
ENDBRANCH  21  22
ENDBRANCH  20  21
ENDBRANCH  19  20
ENDBRANCH  18  19
ENDBRANCH  17  18
ENDBRANCH  16  17
ENDBRANCH  14  16
ENDBRANCH  13  14
ENDBRANCH  12  13
ENDBRANCH   1  12
BRANCH   9  27
ATOM     27  O   UNL     1      14.495  -5.252  -9.758  0.00  0.00    +0.000 OA
BRANCH  27  28
ATOM     28  C   UNL     1      13.685  -5.112  -8.599  0.00  0.00    +0.000 C 
BRANCH  28  29
ATOM     29  C   UNL     1      13.156  -6.485  -8.217  0.00  0.00    +0.000 C 
BRANCH  29  30
ATOM     30  C   UNL     1      12.229  -6.304  -7.042  0.00  0.00    +0.000 C 
BRANCH  30  31
ATOM     31  C   UNL     1      11.798  -7.619  -6.390  0.00  0.00    +0.000 C 
BRANCH  31  32
ATOM     32  N   UNL     1      11.050  -7.472  -5.128  0.00  0.00    +0.000 NA
ATOM     33  C   UNL     1      11.486  -8.477  -4.111  0.00  0.00    +0.000 C 
ATOM     34  C   UNL     1      12.926  -8.243  -3.564  0.00  0.00    +0.000 C 
ATOM     35  N   UNL     1      13.006  -6.878  -3.038  0.00  0.00    +0.000 N 
ATOM     36  C   UNL     1      12.601  -5.824  -3.951  0.00  0.00    +0.000 C 
ATOM     37  C   UNL     1      11.182  -6.131  -4.506  0.00  0.00    +0.000 C 
BRANCH  35  38
ATOM     38  C   UNL     1      13.462  -6.554  -1.784  0.00  0.00    +0.000 A 
ATOM     39  C   UNL     1      12.699  -5.792  -0.862  0.00  0.00    +0.000 A 
ATOM     40 CL   UNL     1      11.079  -5.275  -1.240  0.00  0.00    +0.000 Cl
ATOM     41  C   UNL     1      13.212  -5.499   0.405  0.00  0.00    +0.000 A 
ATOM     42 CL   UNL     1      12.318  -4.593   1.579  0.00  0.00    +0.000 Cl
ATOM     43  C   UNL     1      14.476  -5.956   0.771  0.00  0.00    +0.000 A 
ATOM     44  C   UNL     1      15.246  -6.686  -0.130  0.00  0.00    +0.000 A 
ATOM     45  C   UNL     1      14.744  -6.976  -1.397  0.00  0.00    +0.000 A 
ENDBRANCH  35  38
ENDBRANCH  31  32
ENDBRANCH  30  31
ENDBRANCH  29  30
ENDBRANCH  28  29
ENDBRANCH  27  28
ENDBRANCH   9  27
TORSDOF 20
