REMARK  Name = Armodafinil
REMARK  5 active torsions:
REMARK  status: ('A' for Active; 'I' for Inactive)
REMARK    1  A    between atoms: C_2  and  C_4
REMARK    2  A    between atoms: C_4  and  S_5
REMARK    3  A    between atoms: S_5  and  C_7
REMARK    4  A    between atoms: C_7  and  C_8
REMARK    5  A    between atoms: C_7  and  C_14
REMARK                            x       y       z     vdW  Elec       q    Type
REMARK                         _______ _______ _______ _____ _____    ______ ____
ROOT
ATOM      1  C   UNL     1       5.827  -2.476   0.477  0.00  0.00    +0.000 C 
ENDROOT
BRANCH   1   2
ATOM      2  C   UNL     1       5.429  -3.615  -0.468  0.00  0.00    +0.000 A 
ATOM      3  C   UNL     1       4.695  -3.436  -1.645  0.00  0.00    +0.000 A 
ATOM      4  C   UNL     1       4.371  -4.521  -2.458  0.00  0.00    +0.000 A 
ATOM      5  C   UNL     1       4.944  -5.765  -2.223  0.00  0.00    +0.000 A 
ATOM      6  C   UNL     1       5.719  -5.964  -1.092  0.00  0.00    +0.000 A 
ATOM      7  C   UNL     1       5.860  -4.926  -0.176  0.00  0.00    +0.000 A 
ENDBRANCH   1   2
BRANCH   1   8
ATOM      8  C   UNL     1       7.373  -2.209   0.471  0.00  0.00    +0.000 A 
ATOM      9  C   UNL     1       8.337  -3.240   0.521  0.00  0.00    +0.000 A 
ATOM     10  C   UNL     1       9.706  -2.988   0.646  0.00  0.00    +0.000 A 
ATOM     11  C   UNL     1      10.171  -1.687   0.644  0.00  0.00    +0.000 A 
ATOM     12  C   UNL     1       9.265  -0.644   0.564  0.00  0.00    +0.000 A 
ATOM     13  C   UNL     1       7.898  -0.905   0.489  0.00  0.00    +0.000 A 
ENDBRANCH   1   8
BRANCH   1  14
ATOM     14  S   UNL     1       4.896  -0.874   0.219  0.00  0.00    +0.000 S 
ATOM     15  O   UNL     1       5.166   0.010   1.405  0.00  0.00    +0.000 OA
BRANCH  14  16
ATOM     16  C   UNL     1       3.144  -1.295   0.305  0.00  0.00    +0.000 C 
BRANCH  16  18
ATOM     17  N   UNL     1       1.000  -0.128  -0.028  0.00  0.00    +0.000 N 
ATOM     18  C   UNL     1       2.356  -0.035  -0.055  0.00  0.00    +0.000 C 
ATOM     19  O   UNL     1       2.844   1.041  -0.413  0.00  0.00    +0.000 OA
ATOM     20  H   UNL     1       0.498   0.722  -0.261  0.00  0.00    +0.000 HD
ATOM     21  H   UNL     1       0.479  -0.961   0.200  0.00  0.00    +0.000 HD
ENDBRANCH  16  18
ENDBRANCH  14  16
ENDBRANCH   1  14
TORSDOF 5
