REMARK  Name = Artesunate
REMARK  9 active torsions:
REMARK  status: ('A' for Active; 'I' for Inactive)
REMARK    1  A    between atoms: C_5  and  C_6
REMARK    2  A    between atoms: C_11  and  C_12
REMARK    3  A    between atoms: C_19  and  O_20
REMARK    4  A    between atoms: O_20  and  C_21
REMARK    5  A    between atoms: C_21  and  C_23
REMARK    6  A    between atoms: C_23  and  C_24
REMARK    7  A    between atoms: C_24  and  C_25
REMARK    8  A    between atoms: C_25  and  O_26
REMARK    9  A    between atoms: C_28  and  C_29
REMARK                            x       y       z     vdW  Elec       q    Type
REMARK                         _______ _______ _______ _____ _____    ______ ____
ROOT
ATOM      1  C   UNL     1       2.136   0.014   0.044  0.00  0.00    +0.000 C 
ATOM      2  C   UNL     1       2.540  -0.048  -1.438  0.00  0.00    +0.000 C 
ATOM      3  C   UNL     1       2.062   1.186  -2.196  0.00  0.00    +0.000 C 
ATOM      4  C   UNL     1       2.638   2.473  -1.603  0.00  0.00    +0.000 C 
ATOM      5  C   UNL     1       2.098   3.672  -2.395  0.00  0.00    +0.000 C 
ATOM      6  C   UNL     1       2.301   2.585  -0.096  0.00  0.00    +0.000 C 
ATOM      7  C   UNL     1       2.936   3.860   0.499  0.00  0.00    +0.000 C 
ATOM      8  C   UNL     1       2.908   3.946   2.027  0.00  0.00    +0.000 C 
ATOM      9  C   UNL     1       3.622   2.761   2.703  0.00  0.00    +0.000 C 
ATOM     10  C   UNL     1       4.294   3.208   3.996  0.00  0.00    +0.000 C 
ATOM     11  O   UNL     1       2.701   1.725   3.068  0.00  0.00    +0.000 OA
ATOM     12  O   UNL     1       1.835   1.442   1.925  0.00  0.00    +0.000 OA
ATOM     13  C   UNL     1       2.645   1.305   0.724  0.00  0.00    +0.000 C 
ATOM     14  C   UNL     1       4.160   1.166   1.071  0.00  0.00    +0.000 C 
ATOM     15  O   UNL     1       4.442  -0.014   1.819  0.00  0.00    +0.000 OA
ATOM     16  C   UNL     1       4.105  -1.218   1.152  0.00  0.00    +0.000 C 
ATOM     17  C   UNL     1       2.584  -1.222   0.881  0.00  0.00    +0.000 C 
ATOM     18  C   UNL     1       2.096  -2.540   0.286  0.00  0.00    +0.000 C 
ATOM     19  O   UNL     1       4.646   2.271   1.834  0.00  0.00    +0.000 OA
ENDROOT
BRANCH  16  20
ATOM     20  O   UNL     1       4.445  -2.346   1.990  0.00  0.00    +0.000 OA
BRANCH  20  21
ATOM     21  C   UNL     1       5.772  -2.458   2.283  0.00  0.00    +0.000 C 
ATOM     22  O   UNL     1       6.657  -1.730   1.850  0.00  0.00    +0.000 OA
BRANCH  21  23
ATOM     23  C   UNL     1       6.028  -3.652   3.178  0.00  0.00    +0.000 C 
BRANCH  23  24
ATOM     24  C   UNL     1       7.509  -3.760   3.532  0.00  0.00    +0.000 C 
BRANCH  24  25
ATOM     25  C   UNL     1       7.928  -4.924   4.401  0.00  0.00    +0.000 C 
ATOM     26  O   UNL     1       9.095  -5.095   4.732  0.00  0.00    +0.000 OA
BRANCH  25  27
ATOM     27  O   UNL     1       6.968  -5.778   4.800  0.00  0.00    +0.000 OA
ATOM     28  H   UNL     1       6.053  -5.605   4.524  0.00  0.00    +0.000 HD
ENDBRANCH  25  27
ENDBRANCH  24  25
ENDBRANCH  23  24
ENDBRANCH  21  23
ENDBRANCH  20  21
ENDBRANCH  16  20
TORSDOF 6
