REMARK  Name = Artenimol
REMARK  4 active torsions:
REMARK  status: ('A' for Active; 'I' for Inactive)
REMARK    1  A    between atoms: C_2  and  C_3
REMARK    2  A    between atoms: C_8  and  C_10
REMARK    3  A    between atoms: C_11  and  O_13
REMARK    4  A    between atoms: C_18  and  C_19
REMARK                            x       y       z     vdW  Elec       q    Type
REMARK                         _______ _______ _______ _____ _____    ______ ____
ROOT
ATOM      1  C   UNL     1       2.321  -1.146  -2.093  0.00  0.00    +0.000 C 
ATOM      2  C   UNL     1       0.857  -0.548  -1.035  0.00  0.00    +0.000 C 
ATOM      3  C   UNL     1       2.688   0.280  -1.796  0.00  0.00    +0.000 C 
ATOM      4  C   UNL     1       4.156   0.281  -1.563  0.00  0.00    +0.000 C 
ATOM      5  C   UNL     1       4.656   0.483  -2.955  0.00  0.00    +0.000 C 
ATOM      6  C   UNL     1       4.070   1.807  -3.494  0.00  0.00    +0.000 C 
ATOM      7  C   UNL     1       4.764   2.949  -2.764  0.00  0.00    +0.000 C 
ATOM      8  C   UNL     1       4.180   1.906  -4.999  0.00  0.00    +0.000 C 
ATOM      9  O   UNL     1       3.440   0.889  -5.651  0.00  0.00    +0.000 OA
ATOM     10  C   UNL     1       4.011  -0.365  -5.392  0.00  0.00    +0.000 C 
ATOM     11  O   UNL     1       2.887  -1.737  -5.922  0.00  0.00    +0.000 OA
ATOM     12  C   UNL     1       3.568  -3.260  -4.965  0.00  0.00    +0.000 C 
ATOM     13  C   UNL     1       2.860  -4.405  -5.654  0.00  0.00    +0.000 C 
ATOM     14  C   UNL     1       5.212  -3.414  -4.905  0.00  0.00    +0.000 C 
ATOM     15  C   UNL     1       4.480  -2.284  -5.351  0.00  0.00    +0.000 C 
ATOM     16  C   UNL     1       3.107  -1.369  -3.983  0.00  0.00    +0.000 C 
ATOM     17  C   UNL     1       4.327  -0.713  -3.799  0.00  0.00    +0.000 C 
ATOM     18  O   UNL     1       4.704  -2.028  -3.073  0.00  0.00    +0.000 OA
ATOM     19  O   UNL     1       3.559  -3.266  -3.468  0.00  0.00    +0.000 OA
ENDROOT
BRANCH   8  20
ATOM     20  O   UNL     1       5.542   1.874  -5.369  0.00  0.00    +0.000 OA
ATOM     21  H   UNL     1       5.963   2.633  -4.936  0.00  0.00    +0.000 HD
ENDBRANCH   8  20
TORSDOF 1
