REMARK  Name = Artemotil
REMARK  6 active torsions:
REMARK  status: ('A' for Active; 'I' for Inactive)
REMARK    1  A    between atoms: C_5  and  C_6
REMARK    2  A    between atoms: C_11  and  C_12
REMARK    3  A    between atoms: C_19  and  O_20
REMARK    4  A    between atoms: O_20  and  C_21
REMARK    5  A    between atoms: C_21  and  C_22
REMARK    6  A    between atoms: C_23  and  C_24
REMARK                            x       y       z     vdW  Elec       q    Type
REMARK                         _______ _______ _______ _____ _____    ______ ____
ROOT
ATOM      1  C   UNL     1       1.966  -0.053   0.118  0.00  0.00    +0.000 C 
ATOM      2  C   UNL     1       2.136  -0.161  -1.411  0.00  0.00    +0.000 C 
ATOM      3  C   UNL     1       1.839   1.128  -2.149  0.00  0.00    +0.000 C 
ATOM      4  C   UNL     1       2.491   2.372  -1.532  0.00  0.00    +0.000 C 
ATOM      5  C   UNL     1       2.013   3.584  -2.347  0.00  0.00    +0.000 C 
ATOM      6  C   UNL     1       2.153   2.517  -0.018  0.00  0.00    +0.000 C 
ATOM      7  C   UNL     1       2.806   3.786   0.584  0.00  0.00    +0.000 C 
ATOM      8  C   UNL     1       2.753   3.903   2.121  0.00  0.00    +0.000 C 
ATOM      9  C   UNL     1       3.392   2.724   2.879  0.00  0.00    +0.000 C 
ATOM     10  C   UNL     1       4.084   3.169   4.162  0.00  0.00    +0.000 C 
ATOM     11  O   UNL     1       2.462   1.689   3.193  0.00  0.00    +0.000 OA
ATOM     12  O   UNL     1       1.639   1.397   2.011  0.00  0.00    +0.000 OA
ATOM     13  C   UNL     1       2.481   1.249   0.823  0.00  0.00    +0.000 C 
ATOM     14  C   UNL     1       3.984   1.182   1.250  0.00  0.00    +0.000 C 
ATOM     15  O   UNL     1       4.425  -0.063   1.774  0.00  0.00    +0.000 OA
ATOM     16  C   UNL     1       4.046  -1.229   1.046  0.00  0.00    +0.000 C 
ATOM     17  C   UNL     1       2.511  -1.287   0.875  0.00  0.00    +0.000 C 
ATOM     18  C   UNL     1       2.034  -2.622   0.299  0.00  0.00    +0.000 C 
ATOM     19  O   UNL     1       4.454   2.202   2.107  0.00  0.00    +0.000 OA
ENDROOT
BRANCH  16  20
ATOM     20  O   UNL     1       4.794  -1.484  -0.167  0.00  0.00    +0.000 OA
BRANCH  20  21
ATOM     21  C   UNL     1       5.382  -0.327  -0.735  0.00  0.00    +0.000 C 
ATOM     22  C   UNL     1       5.932  -0.428  -2.128  0.00  0.00    +0.000 C 
ENDBRANCH  20  21
ENDBRANCH  16  20
TORSDOF 2
