REMARK  Name = Artemether
REMARK  5 active torsions:
REMARK  status: ('A' for Active; 'I' for Inactive)
REMARK    1  A    between atoms: C_5  and  C_6
REMARK    2  A    between atoms: C_11  and  C_12
REMARK    3  A    between atoms: C_19  and  O_20
REMARK    4  A    between atoms: O_20  and  C_21
REMARK    5  A    between atoms: C_22  and  C_23
REMARK                            x       y       z     vdW  Elec       q    Type
REMARK                         _______ _______ _______ _____ _____    ______ ____
ROOT
ATOM      1  C   UNL     1       1.889   0.122   0.087  0.00  0.00    +0.000 C 
ATOM      2  C   UNL     1       2.017   0.013  -1.457  0.00  0.00    +0.000 C 
ATOM      3  C   UNL     1       1.751   1.319  -2.186  0.00  0.00    +0.000 C 
ATOM      4  C   UNL     1       2.446   2.541  -1.569  0.00  0.00    +0.000 C 
ATOM      5  C   UNL     1       2.003   3.769  -2.383  0.00  0.00    +0.000 C 
ATOM      6  C   UNL     1       2.119   2.695  -0.055  0.00  0.00    +0.000 C 
ATOM      7  C   UNL     1       2.790   3.957   0.541  0.00  0.00    +0.000 C 
ATOM      8  C   UNL     1       2.743   4.082   2.078  0.00  0.00    +0.000 C 
ATOM      9  C   UNL     1       3.383   2.899   2.829  0.00  0.00    +0.000 C 
ATOM     10  C   UNL     1       4.088   3.341   4.109  0.00  0.00    +0.000 C 
ATOM     11  O   UNL     1       2.439   1.876   3.158  0.00  0.00    +0.000 OA
ATOM     12  O   UNL     1       1.602   1.590   1.982  0.00  0.00    +0.000 OA
ATOM     13  C   UNL     1       2.432   1.423   0.788  0.00  0.00    +0.000 C 
ATOM     14  C   UNL     1       3.938   1.332   1.206  0.00  0.00    +0.000 C 
ATOM     15  O   UNL     1       4.328   0.093   1.796  0.00  0.00    +0.000 OA
ATOM     16  C   UNL     1       3.915  -1.085   1.130  0.00  0.00    +0.000 C 
ATOM     17  C   UNL     1       2.396  -1.121   0.869  0.00  0.00    +0.000 C 
ATOM     18  C   UNL     1       1.953  -2.458   0.273  0.00  0.00    +0.000 C 
ATOM     19  O   UNL     1       4.424   2.370   2.042  0.00  0.00    +0.000 OA
ENDROOT
BRANCH  16  20
ATOM     20  O   UNL     1       4.693  -1.444  -0.028  0.00  0.00    +0.000 OA
ATOM     21  C   UNL     1       5.171  -0.347  -0.764  0.00  0.00    +0.000 C 
ENDBRANCH  16  20
TORSDOF 1
