REMARK  Name = Articaine
REMARK  11 active torsions:
REMARK  status: ('A' for Active; 'I' for Inactive)
REMARK    1  A    between atoms: C_1  and  C_2
REMARK    2  A    between atoms: C_2  and  C_3
REMARK    3  A    between atoms: C_3  and  N_4
REMARK    4  A    between atoms: N_4  and  C_5
REMARK    5  A    between atoms: C_5  and  C_6
REMARK    6  A    between atoms: C_5  and  C_7
REMARK    7  A    between atoms: N_9  and  C_10
REMARK    8  A    between atoms: C_11  and  C_16
REMARK    9  A    between atoms: C_14  and  C_15
REMARK   10  A    between atoms: C_16  and  O_18
REMARK   11  A    between atoms: O_18  and  C_19
REMARK                            x       y       z     vdW  Elec       q    Type
REMARK                         _______ _______ _______ _____ _____    ______ ____
ROOT
ATOM      1  C   UNL     1       6.460   1.461   2.367  0.00  0.00    +0.000 C 
ATOM      2  O   UNL     1       7.027   0.719   1.563  0.00  0.00    +0.000 OA
ATOM      3  N   UNL     1       7.129   2.247   3.306  0.00  0.00    +0.000 N 
ATOM      4  H   UNL     1       6.648   2.453   4.177  0.00  0.00    +0.000 HD
ENDROOT
BRANCH   3   5
ATOM      5  C   UNL     1       8.532   2.241   3.367  0.00  0.00    +0.000 A 
ATOM      6  C   UNL     1       9.248   2.063   4.553  0.00  0.00    +0.000 A 
ATOM      7  S   UNL     1      10.938   2.113   4.250  0.00  0.00    +0.000 S 
ATOM      8  C   UNL     1      10.716   2.398   2.580  0.00  0.00    +0.000 A 
ATOM      9  C   UNL     1       9.385   2.459   2.221  0.00  0.00    +0.000 A 
ATOM     10  C   UNL     1       8.909   2.782   0.836  0.00  0.00    +0.000 C 
BRANCH   6  11
ATOM     11  C   UNL     1       8.695   1.800   5.881  0.00  0.00    +0.000 C 
ATOM     12  O   UNL     1       7.483   1.771   6.110  0.00  0.00    +0.000 OA
BRANCH  11  13
ATOM     13  O   UNL     1       9.638   1.595   6.855  0.00  0.00    +0.000 OA
ATOM     14  C   UNL     1       9.093   1.333   8.160  0.00  0.00    +0.000 C 
ENDBRANCH  11  13
ENDBRANCH   6  11
ENDBRANCH   3   5
BRANCH   1  15
ATOM     15  C   UNL     1       4.913   1.541   2.407  0.00  0.00    +0.000 C 
ATOM     16  C   UNL     1       4.428   0.934   3.719  0.00  0.00    +0.000 C 
BRANCH  15  17
ATOM     17  N   UNL     1       4.373   0.784   1.252  0.00  0.00    +0.000 NA
ATOM     18  H   UNL     1       4.794   1.130   0.387  0.00  0.00    +0.000 HD
BRANCH  17  19
ATOM     19  C   UNL     1       2.924   0.773   1.181  0.00  0.00    +0.000 C 
BRANCH  19  21
ATOM     20  C   UNL     1       0.914  -0.065  -0.008  0.00  0.00    +0.000 C 
ATOM     21  C   UNL     1       2.435  -0.046  -0.007  0.00  0.00    +0.000 C 
ENDBRANCH  19  21
ENDBRANCH  17  19
ENDBRANCH  15  17
ENDBRANCH   1  15
TORSDOF 7
