REMARK  Name = Arzoxifene
REMARK  10 active torsions:
REMARK  status: ('A' for Active; 'I' for Inactive)
REMARK    1  A    between atoms: C_1  and  O_2
REMARK    2  A    between atoms: O_2  and  C_3
REMARK    3  A    between atoms: C_6  and  C_9
REMARK    4  A    between atoms: C_10  and  O_11
REMARK    5  A    between atoms: O_11  and  C_12
REMARK    6  A    between atoms: C_15  and  O_16
REMARK    7  A    between atoms: O_16  and  C_17
REMARK    8  A    between atoms: C_17  and  C_18
REMARK    9  A    between atoms: C_18  and  N_19
REMARK   10  A    between atoms: C_31  and  O_32
REMARK                            x       y       z     vdW  Elec       q    Type
REMARK                         _______ _______ _______ _____ _____    ______ ____
ROOT
ATOM      1  C   UNL     1       5.337  -4.198  -2.851  0.00  0.00    +0.000 A 
ATOM      2  C   UNL     1       4.726  -4.685  -4.007  0.00  0.00    +0.000 A 
ATOM      3  C   UNL     1       5.376  -5.925  -4.330  0.00  0.00    +0.000 A 
ATOM      4  C   UNL     1       6.411  -5.419  -5.120  0.00  0.00    +0.000 A 
ATOM      5  S   UNL     1       7.100  -4.416  -3.449  0.00  0.00    +0.000 S 
ATOM      6  C   UNL     1       7.079  -6.323  -6.029  0.00  0.00    +0.000 A 
ATOM      7  C   UNL     1       7.170  -7.668  -5.638  0.00  0.00    +0.000 A 
ATOM      8  C   UNL     1       6.656  -8.041  -4.412  0.00  0.00    +0.000 A 
ATOM      9  C   UNL     1       5.777  -7.165  -3.729  0.00  0.00    +0.000 A 
ENDROOT
BRANCH   1  13
ATOM     10  C   UNL     1       3.205  -1.352  -0.188  0.00  0.00    +0.000 A 
ATOM     11  C   UNL     1       4.499  -1.731   0.157  0.00  0.00    +0.000 A 
ATOM     12  C   UNL     1       5.292  -2.670  -0.624  0.00  0.00    +0.000 A 
ATOM     13  C   UNL     1       4.740  -3.327  -1.741  0.00  0.00    +0.000 A 
ATOM     14  C   UNL     1       3.357  -3.121  -1.822  0.00  0.00    +0.000 A 
ATOM     15  C   UNL     1       2.631  -2.096  -1.201  0.00  0.00    +0.000 A 
BRANCH  10  17
ATOM     16  C   UNL     1       1.125  -0.249   0.276  0.00  0.00    +0.000 C 
ATOM     17  O   UNL     1       2.557  -0.329   0.444  0.00  0.00    +0.000 OA
ENDBRANCH  10  17
ENDBRANCH   1  13
BRANCH   7  18
ATOM     18  O   UNL     1       7.692  -8.671  -6.411  0.00  0.00    +0.000 OA
ATOM     19  H   UNL     1       7.960  -8.360  -7.292  0.00  0.00    +0.000 HD
ENDBRANCH   7  18
BRANCH   2  20
ATOM     20  O   UNL     1       3.919  -3.990  -4.885  0.00  0.00    +0.000 OA
BRANCH  20  21
ATOM     21  C   UNL     1       3.362  -2.734  -4.679  0.00  0.00    +0.000 A 
ATOM     22  C   UNL     1       1.960  -2.676  -4.723  0.00  0.00    +0.000 A 
ATOM     23  C   UNL     1       1.267  -1.523  -4.318  0.00  0.00    +0.000 A 
ATOM     24  C   UNL     1       1.960  -0.424  -3.804  0.00  0.00    +0.000 A 
ATOM     25  C   UNL     1       3.361  -0.473  -3.772  0.00  0.00    +0.000 A 
ATOM     26  C   UNL     1       4.066  -1.601  -4.254  0.00  0.00    +0.000 A 
BRANCH  24  27
ATOM     27  O   UNL     1       1.162   0.531  -3.211  0.00  0.00    +0.000 OA
BRANCH  27  28
ATOM     28  C   UNL     1       1.847   1.498  -2.412  0.00  0.00    +0.000 C 
BRANCH  28  29
ATOM     29  C   UNL     1       0.880   2.519  -1.776  0.00  0.00    +0.000 C 
BRANCH  29  30
ATOM     30  N   UNL     1       1.510   3.592  -0.964  0.00  0.00    +0.000 NA
ATOM     31  C   UNL     1       2.981   3.554  -0.966  0.00  0.00    +0.000 C 
ATOM     32  C   UNL     1       3.611   4.659  -0.131  0.00  0.00    +0.000 C 
ATOM     33  C   UNL     1       3.118   6.020  -0.592  0.00  0.00    +0.000 C 
ATOM     34  C   UNL     1       1.595   6.052  -0.611  0.00  0.00    +0.000 C 
ATOM     35  C   UNL     1       1.022   4.898  -1.429  0.00  0.00    +0.000 C 
ENDBRANCH  29  30
ENDBRANCH  28  29
ENDBRANCH  27  28
ENDBRANCH  24  27
ENDBRANCH  20  21
ENDBRANCH   2  20
TORSDOF 9
