REMARK  Name = Asciminib
REMARK  7 active torsions:
REMARK  status: ('A' for Active; 'I' for Inactive)
REMARK    1  A    between atoms: O_1  and  C_2
REMARK    2  A    between atoms: N_5  and  C_7
REMARK    3  A    between atoms: C_8  and  C_27
REMARK    4  A    between atoms: C_10  and  C_13
REMARK    5  A    between atoms: N_15  and  C_16
REMARK    6  A    between atoms: C_19  and  O_20
REMARK    7  A    between atoms: O_20  and  C_21
REMARK                            x       y       z     vdW  Elec       q    Type
REMARK                         _______ _______ _______ _____ _____    ______ ____
ROOT
ATOM      1  C   UNL     1      -2.208   1.516  -0.926  0.00  0.00    +0.000 A 
ATOM      2  C   UNL     1      -1.855   2.529  -1.843  0.00  0.00    +0.000 A 
ATOM      3  C   UNL     1      -2.845   3.392  -2.364  0.00  0.00    +0.000 A 
ATOM      4  C   UNL     1      -4.170   3.249  -1.977  0.00  0.00    +0.000 A 
ATOM      5  C   UNL     1      -4.436   2.209  -1.088  0.00  0.00    +0.000 A 
ATOM      6  N   UNL     1      -3.504   1.341  -0.583  0.00  0.00    +0.000 NA
ENDROOT
BRANCH   2   7
ATOM      7  C   UNL     1      -0.485   2.727  -2.303  0.00  0.00    +0.000 A 
ATOM      8  C   UNL     1       0.347   3.819  -2.178  0.00  0.00    +0.000 A 
ATOM      9  C   UNL     1       1.570   3.410  -2.733  0.00  0.00    +0.000 A 
ATOM     10  N   UNL     1       1.518   2.171  -3.223  0.00  0.00    +0.000 NA
ATOM     11  N   UNL     1       0.281   1.752  -2.893  0.00  0.00    +0.000 N 
ATOM     12  H   UNL     1       0.025   0.790  -3.092  0.00  0.00    +0.000 HD
ENDBRANCH   2   7
BRANCH   1  16
ATOM     13  C   UNL     1       0.789  -0.014   0.539  0.00  0.00    +0.000 C 
ATOM     14  C   UNL     1      -0.172  -1.194   0.534  0.00  0.00    +0.000 C 
ATOM     15  C   UNL     1      -1.296  -0.745  -0.416  0.00  0.00    +0.000 C 
ATOM     16  N   UNL     1      -1.269   0.706  -0.341  0.00  0.00    +0.000 N 
ATOM     17  C   UNL     1      -0.166   1.190   0.489  0.00  0.00    +0.000 C 
BRANCH  13  18
ATOM     18  O   UNL     1       1.608  -0.051  -0.629  0.00  0.00    +0.000 OA
ATOM     19  H   UNL     1       2.248  -0.776  -0.536  0.00  0.00    +0.000 HD
ENDBRANCH  13  18
ENDBRANCH   1  16
BRANCH   4  20
ATOM     20  C   UNL     1      -5.293   4.122  -2.439  0.00  0.00    +0.000 C 
ATOM     21  O   UNL     1      -6.415   3.893  -1.976  0.00  0.00    +0.000 OA
ATOM     22  N   UNL     1      -5.041   5.102  -3.398  0.00  0.00    +0.000 N 
ATOM     23  H   UNL     1      -4.158   5.119  -3.889  0.00  0.00    +0.000 HD
BRANCH  22  24
ATOM     24  C   UNL     1      -6.028   6.003  -3.874  0.00  0.00    +0.000 A 
ATOM     25  C   UNL     1      -6.029   6.409  -5.211  0.00  0.00    +0.000 A 
ATOM     26  C   UNL     1      -6.979   7.341  -5.670  0.00  0.00    +0.000 A 
ATOM     27  C   UNL     1      -7.953   7.857  -4.806  0.00  0.00    +0.000 A 
ATOM     28  C   UNL     1      -7.920   7.476  -3.467  0.00  0.00    +0.000 A 
ATOM     29  C   UNL     1      -6.976   6.550  -3.011  0.00  0.00    +0.000 A 
BRANCH  27  30
ATOM     30  O   UNL     1      -8.877   8.694  -5.372  0.00  0.00    +0.000 OA
BRANCH  30  31
ATOM     31  C   UNL     1      -9.946   9.152  -4.542  0.00  0.00    +0.000 C 
ATOM     32  F   UNL     1     -10.600   8.100  -3.989  0.00  0.00    +0.000 F 
ATOM     33  F   UNL     1      -9.444   9.913  -3.537  0.00  0.00    +0.000 F 
ATOM     34 CL   UNL     1     -11.086  10.112  -5.490  0.00  0.00    +0.000 Cl
ENDBRANCH  30  31
ENDBRANCH  27  30
ENDBRANCH  22  24
ENDBRANCH   4  20
TORSDOF 7
