REMARK  Name = Ascorbic acid
REMARK  6 active torsions:
REMARK  status: ('A' for Active; 'I' for Inactive)
REMARK    1  A    between atoms: C_2  and  C_10
REMARK    2  A    between atoms: C_6  and  O_7
REMARK    3  A    between atoms: C_8  and  O_9
REMARK    4  A    between atoms: C_10  and  O_11
REMARK    5  A    between atoms: C_10  and  C_12
REMARK    6  A    between atoms: C_12  and  O_13
REMARK                            x       y       z     vdW  Elec       q    Type
REMARK                         _______ _______ _______ _____ _____    ______ ____
ROOT
ATOM      1  C   UNL     1       1.997   0.014  -0.048  0.00  0.00    +0.000 C 
ATOM      2  O   UNL     1       2.524  -1.142  -0.722  0.00  0.00    +0.000 OA
ATOM      3  C   UNL     1       3.210  -0.747  -1.828  0.00  0.00    +0.000 C 
ATOM      4  O   UNL     1       3.728  -1.470  -2.653  0.00  0.00    +0.000 OA
ATOM      5  C   UNL     1       3.239   0.725  -1.870  0.00  0.00    +0.000 C 
ATOM      6  C   UNL     1       2.543   1.152  -0.822  0.00  0.00    +0.000 C 
ENDROOT
BRANCH   5   7
ATOM      7  O   UNL     1       3.887   1.450  -2.823  0.00  0.00    +0.000 OA
ATOM      8  H   UNL     1       4.294   0.785  -3.420  0.00  0.00    +0.000 HD
ENDBRANCH   5   7
BRANCH   6   9
ATOM      9  O   UNL     1       2.301   2.432  -0.416  0.00  0.00    +0.000 OA
ATOM     10  H   UNL     1       2.668   3.052  -1.072  0.00  0.00    +0.000 HD
ENDBRANCH   6   9
BRANCH   1  11
ATOM     11  C   UNL     1       0.457  -0.018  -0.046  0.00  0.00    +0.000 C 
BRANCH  11  12
ATOM     12  O   UNL     1      -0.056   0.920   0.911  0.00  0.00    +0.000 OA
ATOM     13  H   UNL     1       0.224   0.606   1.792  0.00  0.00    +0.000 HD
ENDBRANCH  11  12
BRANCH  11  14
ATOM     14  C   UNL     1      -0.064  -1.413   0.310  0.00  0.00    +0.000 C 
BRANCH  14  15
ATOM     15  O   UNL     1       0.396  -1.783   1.611  0.00  0.00    +0.000 OA
ATOM     16  H   UNL     1       1.356  -1.935   1.555  0.00  0.00    +0.000 HD
ENDBRANCH  14  15
ENDBRANCH  11  14
ENDBRANCH   1  11
TORSDOF 6
