REMARK  Name = Asenapine
REMARK  1 active torsions:
REMARK  status: ('A' for Active; 'I' for Inactive)
REMARK    1  A    between atoms: C_1  and  N_2
REMARK                            x       y       z     vdW  Elec       q    Type
REMARK                         _______ _______ _______ _____ _____    ______ ____
ROOT
ATOM      1  C   UNL     1       1.130   0.049   0.085  0.00  0.00    +0.000 C 
ATOM      2  N   UNL     1       2.585   0.160  -0.097  0.00  0.00    +0.000 NA
ATOM      3  C   UNL     1       2.893  -0.616  -1.290  0.00  0.00    +0.000 C 
ATOM      4  C   UNL     1       4.394  -0.753  -1.263  0.00  0.00    +0.000 C 
ATOM      5  C   UNL     1       4.787  -0.916   0.206  0.00  0.00    +0.000 C 
ATOM      6  C   UNL     1       3.455  -0.461   0.940  0.00  0.00    +0.000 C 
ATOM      7  C   UNL     1       6.258  -0.495   0.408  0.00  0.00    +0.000 A 
ATOM      8  C   UNL     1       7.258  -0.600  -0.616  0.00  0.00    +0.000 A 
ATOM      9  O   UNL     1       7.085  -0.917  -1.962  0.00  0.00    +0.000 OA
ATOM     10  C   UNL     1       6.267  -1.965  -2.311  0.00  0.00    +0.000 A 
ATOM     11  C   UNL     1       6.784  -3.010  -3.092  0.00  0.00    +0.000 A 
ATOM     12  C   UNL     1       5.948  -4.066  -3.490  0.00  0.00    +0.000 A 
ATOM     13  C   UNL     1       4.615  -4.070  -3.133  0.00  0.00    +0.000 A 
ATOM     14 CL   UNL     1       3.559  -5.354  -3.574  0.00  0.00    +0.000 Cl
ATOM     15  C   UNL     1       4.094  -3.006  -2.410  0.00  0.00    +0.000 A 
ATOM     16  C   UNL     1       4.914  -1.931  -2.030  0.00  0.00    +0.000 A 
ATOM     17  C   UNL     1       8.620  -0.349  -0.338  0.00  0.00    +0.000 A 
ATOM     18  C   UNL     1       9.045  -0.090   0.957  0.00  0.00    +0.000 A 
ATOM     19  C   UNL     1       8.100  -0.032   1.976  0.00  0.00    +0.000 A 
ATOM     20  C   UNL     1       6.727  -0.209   1.704  0.00  0.00    +0.000 A 
ENDROOT
TORSDOF 0
