REMARK  Name = Asparagine
REMARK  5 active torsions:
REMARK  status: ('A' for Active; 'I' for Inactive)
REMARK    1  A    between atoms: N_1  and  CA_2
REMARK    2  A    between atoms: CA_2  and  CB_3
REMARK    3  A    between atoms: CA_2  and  C_7
REMARK    4  A    between atoms: CB_3  and  CG_4
REMARK    5  A    between atoms: C_7  and  O_8
REMARK                            x       y       z     vdW  Elec       q    Type
REMARK                         _______ _______ _______ _____ _____    ______ ____
ROOT
ATOM      1  CA  ASN A   1       2.325  -0.057   0.107  0.00  0.00    +0.000 C 
ENDROOT
BRANCH   1   2
ATOM      2  N   ASN A   1       0.831  -0.082   0.222  0.00  0.00    +0.000 NA
ATOM      3  H1  ASN A   1       0.449   0.207  -0.689  0.00  0.00    +0.000 HD
ATOM      4  H2  ASN A   1       0.539   0.707   0.808  0.00  0.00    +0.000 HD
ENDBRANCH   1   2
BRANCH   1   5
ATOM      5  C   ASN A   1       2.948  -0.474   1.446  0.00  0.00    +0.000 C 
ATOM      6  OXT ASN A   1       4.155  -0.527   1.657  0.00  0.00    +0.000 OA
BRANCH   5   7
ATOM      7  O   ASN A   1       2.027  -0.790   2.390  0.00  0.00    +0.000 OA
ATOM      8  H   ASN A   1       1.134  -0.778   1.976  0.00  0.00    +0.000 HD
ENDBRANCH   5   7
ENDBRANCH   1   5
BRANCH   1   9
ATOM      9  CB  ASN A   1       2.831   1.322  -0.313  0.00  0.00    +0.000 C 
BRANCH   9  10
ATOM     10  CG  ASN A   1       2.374   1.793  -1.683  0.00  0.00    +0.000 C 
ATOM     11  ND2 ASN A   1       1.567   0.973  -2.418  0.00  0.00    +0.000 N 
ATOM     12  OD1 ASN A   1       2.665   2.904  -2.117  0.00  0.00    +0.000 OA
ATOM     13 HD21 ASN A   1       1.497  -0.026  -2.275  0.00  0.00    +0.000 HD
ATOM     14 HD22 ASN A   1       1.307   1.306  -3.339  0.00  0.00    +0.000 HD
ENDBRANCH   9  10
ENDBRANCH   1   9
TORSDOF 5
