REMARK  Name = Aspartic acid
REMARK  6 active torsions:
REMARK  status: ('A' for Active; 'I' for Inactive)
REMARK    1  A    between atoms: N_1  and  CA_2
REMARK    2  A    between atoms: CA_2  and  CB_3
REMARK    3  A    between atoms: CA_2  and  C_7
REMARK    4  A    between atoms: CB_3  and  CG_4
REMARK    5  A    between atoms: CG_4  and  OD1_5
REMARK    6  A    between atoms: C_7  and  O_8
REMARK                            x       y       z     vdW  Elec       q    Type
REMARK                         _______ _______ _______ _____ _____    ______ ____
ROOT
ATOM      1  CA  ASP A   1       2.370   0.144   0.017  0.00  0.00    +0.000 C 
ENDROOT
BRANCH   1   2
ATOM      2  N   ASP A   1       0.879   0.245  -0.013  0.00  0.00    +0.000 NA
ATOM      3  H1  ASP A   1       0.458  -0.680   0.132  0.00  0.00    +0.000 HD
ATOM      4  H2  ASP A   1       0.584   0.442  -0.976  0.00  0.00    +0.000 HD
ENDBRANCH   1   2
BRANCH   1   5
ATOM      5  C   ASP A   1       2.990   1.530  -0.230  0.00  0.00    +0.000 C 
ATOM      6  OXT ASP A   1       4.197   1.740  -0.283  0.00  0.00    +0.000 OA
BRANCH   5   7
ATOM      7  O   ASP A   1       2.073   2.515  -0.388  0.00  0.00    +0.000 OA
ATOM      8  H   ASP A   1       1.175   2.159  -0.205  0.00  0.00    +0.000 HD
ENDBRANCH   5   7
ENDBRANCH   1   5
BRANCH   1   9
ATOM      9  CB  ASP A   1       2.886  -0.852  -1.015  0.00  0.00    +0.000 C 
BRANCH   9  10
ATOM     10  CG  ASP A   1       2.456  -2.289  -0.836  0.00  0.00    +0.000 C 
ATOM     11  OD2 ASP A   1       2.736  -3.153  -1.659  0.00  0.00    +0.000 OA
BRANCH  10  12
ATOM     12  OD1 ASP A   1       1.717  -2.591   0.249  0.00  0.00    +0.000 OA
ATOM     13  HD1 ASP A   1       1.622  -1.929   0.957  0.00  0.00    +0.000 HD
ENDBRANCH  10  12
ENDBRANCH   9  10
ENDBRANCH   1   9
TORSDOF 6
