REMARK  Name = Astemizole
REMARK  8 active torsions:
REMARK  status: ('A' for Active; 'I' for Inactive)
REMARK    1  A    between atoms: C_1  and  O_2
REMARK    2  A    between atoms: O_2  and  C_3
REMARK    3  A    between atoms: C_6  and  C_7
REMARK    4  A    between atoms: C_7  and  C_8
REMARK    5  A    between atoms: C_8  and  N_9
REMARK    6  A    between atoms: C_12  and  N_15
REMARK    7  A    between atoms: N_24  and  C_25
REMARK    8  A    between atoms: C_25  and  C_26
REMARK                            x       y       z     vdW  Elec       q    Type
REMARK                         _______ _______ _______ _____ _____    ______ ____
ROOT
ATOM      1  N   UNL     1       4.935   9.835  -2.411  0.00  0.00    +0.000 N 
ATOM      2  C   UNL     1       5.150   9.942  -3.742  0.00  0.00    +0.000 A 
ATOM      3  N   UNL     1       4.196  10.482  -4.479  0.00  0.00    +0.000 NA
ATOM      4  C   UNL     1       4.682  10.567  -5.732  0.00  0.00    +0.000 A 
ATOM      5  C   UNL     1       4.043  11.224  -6.799  0.00  0.00    +0.000 A 
ATOM      6  C   UNL     1       4.470  11.038  -8.101  0.00  0.00    +0.000 A 
ATOM      7  C   UNL     1       5.525  10.164  -8.328  0.00  0.00    +0.000 A 
ATOM      8  C   UNL     1       6.271   9.576  -7.244  0.00  0.00    +0.000 A 
ATOM      9  C   UNL     1       5.896   9.884  -5.894  0.00  0.00    +0.000 A 
ATOM     10  N   UNL     1       6.311   9.709  -4.541  0.00  0.00    +0.000 N 
ATOM     11  H   UNL     1       3.981  10.064  -2.143  0.00  0.00    +0.000 HD
ENDROOT
BRANCH   1  15
ATOM     12  N   UNL     1       5.255   7.183   0.126  0.00  0.00    +0.000 NA
ATOM     13  C   UNL     1       5.750   7.177  -1.225  0.00  0.00    +0.000 C 
ATOM     14  C   UNL     1       6.601   8.349  -1.460  0.00  0.00    +0.000 C 
ATOM     15  C   UNL     1       5.862   9.659  -1.297  0.00  0.00    +0.000 C 
ATOM     16  C   UNL     1       5.154   9.648   0.077  0.00  0.00    +0.000 C 
ATOM     17  C   UNL     1       4.373   8.350   0.312  0.00  0.00    +0.000 C 
BRANCH  12  18
ATOM     18  C   UNL     1       4.538   5.927   0.319  0.00  0.00    +0.000 C 
BRANCH  18  19
ATOM     19  C   UNL     1       5.187   4.716  -0.405  0.00  0.00    +0.000 C 
BRANCH  19  23
ATOM     20  C   UNL     1       2.954   1.104  -0.184  0.00  0.00    +0.000 A 
ATOM     21  C   UNL     1       4.117   1.161  -0.957  0.00  0.00    +0.000 A 
ATOM     22  C   UNL     1       4.882   2.318  -0.974  0.00  0.00    +0.000 A 
ATOM     23  C   UNL     1       4.449   3.435  -0.252  0.00  0.00    +0.000 A 
ATOM     24  C   UNL     1       3.288   3.370   0.514  0.00  0.00    +0.000 A 
ATOM     25  C   UNL     1       2.548   2.209   0.555  0.00  0.00    +0.000 A 
BRANCH  20  27
ATOM     26  C   UNL     1       0.905  -0.026  -0.030  0.00  0.00    +0.000 C 
ATOM     27  O   UNL     1       2.321  -0.104  -0.142  0.00  0.00    +0.000 OA
ENDBRANCH  20  27
ENDBRANCH  19  23
ENDBRANCH  18  19
ENDBRANCH  12  18
ENDBRANCH   1  15
BRANCH  10  28
ATOM     28  C   UNL     1       7.566  10.021  -3.832  0.00  0.00    +0.000 C 
BRANCH  28  29
ATOM     29  C   UNL     1       8.984   9.846  -4.233  0.00  0.00    +0.000 A 
ATOM     30  C   UNL     1       9.635   8.593  -4.229  0.00  0.00    +0.000 A 
ATOM     31  C   UNL     1      11.012   8.531  -4.430  0.00  0.00    +0.000 A 
ATOM     32  C   UNL     1      11.716   9.713  -4.630  0.00  0.00    +0.000 A 
ATOM     33  F   UNL     1      13.001   9.661  -4.995  0.00  0.00    +0.000 F 
ATOM     34  C   UNL     1      11.112  10.952  -4.464  0.00  0.00    +0.000 A 
ATOM     35  C   UNL     1       9.754  11.012  -4.213  0.00  0.00    +0.000 A 
ENDBRANCH  28  29
ENDBRANCH  10  28
TORSDOF 7
