REMARK  Name = Ataluren
REMARK  4 active torsions:
REMARK  status: ('A' for Active; 'I' for Inactive)
REMARK    1  A    between atoms: O_1  and  C_2
REMARK    2  A    between atoms: C_2  and  C_4
REMARK    3  A    between atoms: C_8  and  C_10
REMARK    4  A    between atoms: C_13  and  C_15
REMARK                            x       y       z     vdW  Elec       q    Type
REMARK                         _______ _______ _______ _____ _____    ______ ____
ROOT
ATOM      1  C   UNL     1       3.054   1.495   4.533  0.00  0.00    +0.000 A 
ATOM      2  N   UNL     1       2.836   2.575   5.296  0.00  0.00    +0.000 NA
ATOM      3  O   UNL     1       2.404   2.024   6.508  0.00  0.00    +0.000 OA
ATOM      4  C   UNL     1       2.425   0.665   6.347  0.00  0.00    +0.000 A 
ATOM      5  N   UNL     1       2.795   0.294   5.146  0.00  0.00    +0.000 NA
ENDROOT
BRANCH   4   6
ATOM      6  C   UNL     1       2.138  -0.117   7.529  0.00  0.00    +0.000 A 
ATOM      7  C   UNL     1       0.955   0.068   8.258  0.00  0.00    +0.000 A 
ATOM      8  C   UNL     1       0.782  -0.571   9.489  0.00  0.00    +0.000 A 
ATOM      9  C   UNL     1       1.750  -1.457   9.963  0.00  0.00    +0.000 A 
ATOM     10  C   UNL     1       2.900  -1.694   9.213  0.00  0.00    +0.000 A 
ATOM     11  C   UNL     1       3.085  -1.026   8.005  0.00  0.00    +0.000 A 
ATOM     12  F   UNL     1       4.217  -1.251   7.321  0.00  0.00    +0.000 F 
ENDBRANCH   4   6
BRANCH   1  17
ATOM     13  C   UNL     1       3.143   0.820   0.862  0.00  0.00    +0.000 A 
ATOM     14  C   UNL     1       4.357   1.423   0.503  0.00  0.00    +0.000 A 
ATOM     15  C   UNL     1       5.154   2.035   1.476  0.00  0.00    +0.000 A 
ATOM     16  C   UNL     1       4.707   2.114   2.796  0.00  0.00    +0.000 A 
ATOM     17  C   UNL     1       3.480   1.541   3.151  0.00  0.00    +0.000 A 
ATOM     18  C   UNL     1       2.700   0.891   2.184  0.00  0.00    +0.000 A 
BRANCH  13  19
ATOM     19  C   UNL     1       2.457  -0.060  -0.112  0.00  0.00    +0.000 C 
ATOM     20  O   UNL     1       3.083  -0.756  -0.903  0.00  0.00    +0.000 OA
BRANCH  19  21
ATOM     21  O   UNL     1       1.112  -0.057  -0.045  0.00  0.00    +0.000 OA
ATOM     22  H   UNL     1       0.708   0.597   0.554  0.00  0.00    +0.000 HD
ENDBRANCH  19  21
ENDBRANCH  13  19
ENDBRANCH   1  17
TORSDOF 4
