REMARK  Name = Atenolol
REMARK  11 active torsions:
REMARK  status: ('A' for Active; 'I' for Inactive)
REMARK    1  A    between atoms: C_1  and  C_2
REMARK    2  A    between atoms: C_2  and  C_3
REMARK    3  A    between atoms: C_2  and  N_4
REMARK    4  A    between atoms: N_4  and  C_5
REMARK    5  A    between atoms: C_5  and  C_6
REMARK    6  A    between atoms: C_6  and  O_7
REMARK    7  A    between atoms: C_6  and  C_8
REMARK    8  A    between atoms: C_8  and  O_9
REMARK    9  A    between atoms: O_9  and  C_10
REMARK   10  A    between atoms: C_13  and  C_14
REMARK   11  A    between atoms: C_14  and  C_15
REMARK                            x       y       z     vdW  Elec       q    Type
REMARK                         _______ _______ _______ _____ _____    ______ ____
ROOT
ATOM      1  C   UNL     1       8.317  -0.287  -4.436  0.00  0.00    +0.000 A 
ATOM      2  C   UNL     1       8.903   0.345  -5.533  0.00  0.00    +0.000 A 
ATOM      3  C   UNL     1      10.264   0.147  -5.826  0.00  0.00    +0.000 A 
ATOM      4  C   UNL     1      11.043  -0.701  -5.026  0.00  0.00    +0.000 A 
ATOM      5  C   UNL     1      10.354  -1.451  -4.080  0.00  0.00    +0.000 A 
ATOM      6  C   UNL     1       9.063  -1.170  -3.688  0.00  0.00    +0.000 A 
ENDROOT
BRANCH   1   7
ATOM      7  O   UNL     1       6.976  -0.147  -4.261  0.00  0.00    +0.000 OA
BRANCH   7   8
ATOM      8  C   UNL     1       6.547  -0.166  -2.899  0.00  0.00    +0.000 C 
BRANCH   8   9
ATOM      9  C   UNL     1       5.020  -0.182  -2.888  0.00  0.00    +0.000 C 
BRANCH   9  10
ATOM     10  O   UNL     1       4.490   0.913  -3.644  0.00  0.00    +0.000 OA
ATOM     11  H   UNL     1       4.915   1.722  -3.317  0.00  0.00    +0.000 HD
ENDBRANCH   9  10
BRANCH   9  12
ATOM     12  C   UNL     1       4.543  -0.075  -1.440  0.00  0.00    +0.000 C 
BRANCH  12  13
ATOM     13  N   UNL     1       3.082  -0.096  -1.376  0.00  0.00    +0.000 NA
ATOM     14  H   UNL     1       2.720   0.639  -1.991  0.00  0.00    +0.000 HD
BRANCH  13  16
ATOM     15  C   UNL     1       1.055   0.080  -0.045  0.00  0.00    +0.000 C 
ATOM     16  C   UNL     1       2.582   0.059  -0.011  0.00  0.00    +0.000 C 
ATOM     17  C   UNL     1       3.053  -1.096   0.876  0.00  0.00    +0.000 C 
ENDBRANCH  13  16
ENDBRANCH  12  13
ENDBRANCH   9  12
ENDBRANCH   8   9
ENDBRANCH   7   8
ENDBRANCH   1   7
BRANCH   4  18
ATOM     18  C   UNL     1      12.547  -0.804  -5.204  0.00  0.00    +0.000 C 
BRANCH  18  19
ATOM     19  C   UNL     1      13.421  -1.594  -4.204  0.00  0.00    +0.000 C 
ATOM     20  N   UNL     1      12.886  -2.203  -3.103  0.00  0.00    +0.000 N 
ATOM     21  O   UNL     1      14.627  -1.706  -4.372  0.00  0.00    +0.000 OA
ATOM     22  H   UNL     1      12.121  -1.786  -2.594  0.00  0.00    +0.000 HD
ATOM     23  H   UNL     1      13.518  -2.739  -2.525  0.00  0.00    +0.000 HD
ENDBRANCH  18  19
ENDBRANCH   4  18
TORSDOF 9
