REMARK  Name = Atogepant
REMARK  6 active torsions:
REMARK  status: ('A' for Active; 'I' for Inactive)
REMARK    1  A    between atoms: C_1  and  C_2
REMARK    2  A    between atoms: C_3  and  C_35
REMARK    3  A    between atoms: C_5  and  N_6
REMARK    4  A    between atoms: C_7  and  C_9
REMARK    5  A    between atoms: N_29  and  C_30
REMARK    6  A    between atoms: C_30  and  C_31
REMARK                            x       y       z     vdW  Elec       q    Type
REMARK                         _______ _______ _______ _____ _____    ______ ____
ROOT
ATOM      1  N   UNL     1       2.732  -1.187  -4.253  0.00  0.00    +0.000 N 
ATOM      2  C   UNL     1       3.511  -2.106  -4.921  0.00  0.00    +0.000 C 
ATOM      3  O   UNL     1       4.536  -2.586  -4.450  0.00  0.00    +0.000 OA
ATOM      4  H   UNL     1       1.774  -1.035  -4.544  0.00  0.00    +0.000 HD
ENDROOT
BRANCH   2   5
ATOM      5  C   UNL     1       3.062  -2.533  -6.257  0.00  0.00    +0.000 A 
ATOM      6  C   UNL     1       2.578  -1.632  -7.205  0.00  0.00    +0.000 A 
ATOM      7  N   UNL     1       2.218  -1.977  -8.472  0.00  0.00    +0.000 NA
ATOM      8  C   UNL     1       2.381  -3.276  -8.782  0.00  0.00    +0.000 A 
ATOM      9  C   UNL     1       2.057  -3.862 -10.127  0.00  0.00    +0.000 C 
ATOM     10  C   UNL     1       2.352  -5.362  -9.919  0.00  0.00    +0.000 C 
ATOM     11  C   UNL     1       2.927  -5.592  -8.508  0.00  0.00    +0.000 C 
ATOM     12  C   UNL     1       2.858  -4.235  -7.903  0.00  0.00    +0.000 A 
ATOM     13  C   UNL     1       3.214  -3.870  -6.619  0.00  0.00    +0.000 A 
ATOM     14  C   UNL     1       3.342  -5.874 -10.976  0.00  0.00    +0.000 C 
ATOM     15  O   UNL     1       4.489  -5.474 -11.159  0.00  0.00    +0.000 OA
ATOM     16  N   UNL     1       2.718  -6.883 -11.684  0.00  0.00    +0.000 N 
ATOM     17  C   UNL     1       1.430  -7.098 -11.231  0.00  0.00    +0.000 A 
ATOM     18  C   UNL     1       1.154  -6.230 -10.187  0.00  0.00    +0.000 A 
ATOM     19  C   UNL     1      -0.080  -6.267  -9.567  0.00  0.00    +0.000 A 
ATOM     20  C   UNL     1      -1.002  -7.191 -10.044  0.00  0.00    +0.000 A 
ATOM     21  C   UNL     1      -0.632  -8.022 -11.104  0.00  0.00    +0.000 A 
ATOM     22  N   UNL     1       0.580  -8.001 -11.717  0.00  0.00    +0.000 NA
ATOM     23  H   UNL     1       3.144  -7.399 -12.436  0.00  0.00    +0.000 HD
ENDBRANCH   2   5
BRANCH   1  28
ATOM     24  C   UNL     1       0.958  -0.078  -0.055  0.00  0.00    +0.000 C 
ATOM     25  C   UNL     1       2.496  -0.058  -0.153  0.00  0.00    +0.000 C 
ATOM     26  C   UNL     1       3.028   1.011  -1.151  0.00  0.00    +0.000 C 
ATOM     27  C   UNL     1       2.630   0.578  -2.575  0.00  0.00    +0.000 C 
ATOM     28  C   UNL     1       3.114  -0.823  -2.898  0.00  0.00    +0.000 C 
ATOM     29  C   UNL     1       2.629  -1.821  -1.824  0.00  0.00    +0.000 C 
ATOM     30  O   UNL     1       2.050  -2.878  -2.042  0.00  0.00    +0.000 OA
ATOM     31  N   UNL     1       2.976  -1.385  -0.549  0.00  0.00    +0.000 N 
BRANCH  26  32
ATOM     32  C   UNL     1       2.540   2.393  -0.764  0.00  0.00    +0.000 A 
ATOM     33  C   UNL     1       2.821   2.890   0.516  0.00  0.00    +0.000 A 
ATOM     34  F   UNL     1       3.740   2.284   1.283  0.00  0.00    +0.000 F 
ATOM     35  C   UNL     1       2.097   3.956   1.035  0.00  0.00    +0.000 A 
ATOM     36  F   UNL     1       2.291   4.353   2.299  0.00  0.00    +0.000 F 
ATOM     37  C   UNL     1       1.155   4.611   0.254  0.00  0.00    +0.000 A 
ATOM     38  C   UNL     1       1.058   4.294  -1.093  0.00  0.00    +0.000 A 
ATOM     39  C   UNL     1       1.699   3.163  -1.575  0.00  0.00    +0.000 A 
ATOM     40  F   UNL     1       1.407   2.801  -2.830  0.00  0.00    +0.000 F 
ENDBRANCH  26  32
BRANCH  31  41
ATOM     41  C   UNL     1       3.747  -2.263   0.357  0.00  0.00    +0.000 C 
BRANCH  41  42
ATOM     42  C   UNL     1       4.100  -1.701   1.734  0.00  0.00    +0.000 C 
ATOM     43  F   UNL     1       4.809  -0.552   1.617  0.00  0.00    +0.000 F 
ATOM     44  F   UNL     1       2.981  -1.428   2.445  0.00  0.00    +0.000 F 
ATOM     45  F   UNL     1       4.846  -2.559   2.458  0.00  0.00    +0.000 F 
ENDBRANCH  41  42
ENDBRANCH  31  41
ENDBRANCH   1  28
TORSDOF 5
