REMARK  Name = Atomoxetine
REMARK  8 active torsions:
REMARK  status: ('A' for Active; 'I' for Inactive)
REMARK    1  A    between atoms: C_1  and  N_2
REMARK    2  A    between atoms: N_2  and  C_3
REMARK    3  A    between atoms: C_3  and  C_4
REMARK    4  A    between atoms: C_4  and  C_5
REMARK    5  A    between atoms: C_5  and  O_6
REMARK    6  A    between atoms: C_5  and  C_14
REMARK    7  A    between atoms: O_6  and  C_7
REMARK    8  A    between atoms: C_12  and  C_13
REMARK                            x       y       z     vdW  Elec       q    Type
REMARK                         _______ _______ _______ _____ _____    ______ ____
ROOT
ATOM      1  C   UNL     1       4.905  -2.716   0.971  0.00  0.00    +0.000 C 
ENDROOT
BRANCH   1   2
ATOM      2  C   UNL     1       4.225  -3.833   0.175  0.00  0.00    +0.000 A 
ATOM      3  C   UNL     1       4.330  -5.165   0.588  0.00  0.00    +0.000 A 
ATOM      4  C   UNL     1       3.590  -6.159  -0.062  0.00  0.00    +0.000 A 
ATOM      5  C   UNL     1       2.701  -5.815  -1.081  0.00  0.00    +0.000 A 
ATOM      6  C   UNL     1       2.605  -4.504  -1.510  0.00  0.00    +0.000 A 
ATOM      7  C   UNL     1       3.428  -3.538  -0.944  0.00  0.00    +0.000 A 
ENDBRANCH   1   2
BRANCH   1   8
ATOM      8  C   UNL     1       6.428  -2.823   0.709  0.00  0.00    +0.000 C 
BRANCH   8   9
ATOM      9  C   UNL     1       7.157  -1.489   0.810  0.00  0.00    +0.000 C 
BRANCH   9  11
ATOM     10  C   UNL     1       9.252  -0.367   0.561  0.00  0.00    +0.000 C 
ATOM     11  N   UNL     1       8.582  -1.660   0.512  0.00  0.00    +0.000 NA
ATOM     12  H   UNL     1       9.008  -2.295   1.185  0.00  0.00    +0.000 HD
ENDBRANCH   9  11
ENDBRANCH   8   9
ENDBRANCH   1   8
BRANCH   1  13
ATOM     13  O   UNL     1       4.457  -1.374   0.674  0.00  0.00    +0.000 OA
BRANCH  13  14
ATOM     14  C   UNL     1       3.127  -1.029   0.690  0.00  0.00    +0.000 A 
ATOM     15  C   UNL     1       2.088  -1.869   1.110  0.00  0.00    +0.000 A 
ATOM     16  C   UNL     1       0.759  -1.552   0.825  0.00  0.00    +0.000 A 
ATOM     17  C   UNL     1       0.448  -0.337   0.231  0.00  0.00    +0.000 A 
ATOM     18  C   UNL     1       1.468   0.546  -0.119  0.00  0.00    +0.000 A 
ATOM     19  C   UNL     1       2.815   0.202   0.086  0.00  0.00    +0.000 A 
ATOM     20  C   UNL     1       3.899   1.117  -0.416  0.00  0.00    +0.000 C 
ENDBRANCH  13  14
ENDBRANCH   1  13
TORSDOF 6
