REMARK  Name = Atorvastatin
REMARK  17 active torsions:
REMARK  status: ('A' for Active; 'I' for Inactive)
REMARK    1  A    between atoms: C_1  and  C_2
REMARK    2  A    between atoms: C_2  and  C_3
REMARK    3  A    between atoms: C_2  and  C_4
REMARK    4  A    between atoms: C_5  and  C_6
REMARK    5  A    between atoms: N_8  and  C_9
REMARK    6  A    between atoms: C_15  and  C_36
REMARK    7  A    between atoms: C_16  and  C_29
REMARK    8  A    between atoms: N_17  and  C_18
REMARK    9  A    between atoms: C_18  and  C_19
REMARK   10  A    between atoms: C_19  and  C_20
REMARK   11  A    between atoms: C_20  and  O_21
REMARK   12  A    between atoms: C_20  and  C_22
REMARK   13  A    between atoms: C_22  and  C_23
REMARK   14  A    between atoms: C_23  and  O_24
REMARK   15  A    between atoms: C_23  and  C_25
REMARK   16  A    between atoms: C_25  and  C_26
REMARK   17  A    between atoms: C_26  and  O_27
REMARK                            x       y       z     vdW  Elec       q    Type
REMARK                         _______ _______ _______ _____ _____    ______ ____
ROOT
ATOM      1  C   UNL     1       2.894   1.415  -0.587  0.00  0.00    +0.000 A 
ATOM      2  C   UNL     1       2.584   2.802  -0.262  0.00  0.00    +0.000 A 
ATOM      3  C   UNL     1       3.230   3.648  -1.310  0.00  0.00    +0.000 A 
ATOM      4  C   UNL     1       3.931   2.803  -2.152  0.00  0.00    +0.000 A 
ATOM      5  N   UNL     1       3.794   1.491  -1.697  0.00  0.00    +0.000 N 
ENDROOT
BRANCH   4   6
ATOM      6  C   UNL     1       4.715   3.132  -3.368  0.00  0.00    +0.000 A 
ATOM      7  C   UNL     1       5.836   3.965  -3.302  0.00  0.00    +0.000 A 
ATOM      8  C   UNL     1       6.503   4.326  -4.475  0.00  0.00    +0.000 A 
ATOM      9  C   UNL     1       6.127   3.758  -5.688  0.00  0.00    +0.000 A 
ATOM     10  F   UNL     1       6.813   4.054  -6.799  0.00  0.00    +0.000 F 
ATOM     11  C   UNL     1       5.053   2.886  -5.768  0.00  0.00    +0.000 A 
ATOM     12  C   UNL     1       4.325   2.609  -4.616  0.00  0.00    +0.000 A 
ENDBRANCH   4   6
BRANCH   3  13
ATOM     13  C   UNL     1       3.193   5.114  -1.610  0.00  0.00    +0.000 A 
ATOM     14  C   UNL     1       3.678   6.070  -0.710  0.00  0.00    +0.000 A 
ATOM     15  C   UNL     1       3.570   7.449  -0.985  0.00  0.00    +0.000 A 
ATOM     16  C   UNL     1       3.083   7.900  -2.211  0.00  0.00    +0.000 A 
ATOM     17  C   UNL     1       2.690   6.968  -3.162  0.00  0.00    +0.000 A 
ATOM     18  C   UNL     1       2.739   5.594  -2.862  0.00  0.00    +0.000 A 
ENDBRANCH   3  13
BRANCH   2  19
ATOM     19  C   UNL     1       1.704   3.408   0.839  0.00  0.00    +0.000 C 
ATOM     20  O   UNL     1       1.456   4.618   0.821  0.00  0.00    +0.000 OA
ATOM     21  N   UNL     1       1.242   2.626   1.909  0.00  0.00    +0.000 N 
ATOM     22  H   UNL     1       1.620   1.701   2.023  0.00  0.00    +0.000 HD
BRANCH  21  23
ATOM     23  C   UNL     1       0.297   3.027   2.917  0.00  0.00    +0.000 A 
ATOM     24  C   UNL     1       0.324   2.401   4.176  0.00  0.00    +0.000 A 
ATOM     25  C   UNL     1      -0.634   2.698   5.166  0.00  0.00    +0.000 A 
ATOM     26  C   UNL     1      -1.622   3.648   4.924  0.00  0.00    +0.000 A 
ATOM     27  C   UNL     1      -1.669   4.271   3.680  0.00  0.00    +0.000 A 
ATOM     28  C   UNL     1      -0.718   3.966   2.688  0.00  0.00    +0.000 A 
ENDBRANCH  21  23
ENDBRANCH   2  19
BRANCH   1  30
ATOM     29  C   UNL     1       0.788   0.109   0.118  0.00  0.00    +0.000 C 
ATOM     30  C   UNL     1       2.318   0.112   0.166  0.00  0.00    +0.000 C 
ATOM     31  C   UNL     1       2.523  -1.361  -0.226  0.00  0.00    +0.000 C 
ENDBRANCH   1  30
BRANCH   5  32
ATOM     32  C   UNL     1       4.583   0.490  -2.459  0.00  0.00    +0.000 C 
BRANCH  32  33
ATOM     33  C   UNL     1       4.484  -0.865  -1.917  0.00  0.00    +0.000 C 
BRANCH  33  34
ATOM     34  C   UNL     1       5.057  -2.091  -2.552  0.00  0.00    +0.000 C 
BRANCH  34  35
ATOM     35  O   UNL     1       6.458  -1.935  -2.498  0.00  0.00    +0.000 OA
ATOM     36  H   UNL     1       6.709  -1.866  -1.562  0.00  0.00    +0.000 HD
ENDBRANCH  34  35
BRANCH  34  37
ATOM     37  C   UNL     1       4.593  -3.369  -1.790  0.00  0.00    +0.000 C 
BRANCH  37  38
ATOM     38  C   UNL     1       5.174  -4.607  -2.452  0.00  0.00    +0.000 C 
BRANCH  38  39
ATOM     39  O   UNL     1       6.598  -4.539  -2.477  0.00  0.00    +0.000 OA
ATOM     40  H   UNL     1       6.905  -4.293  -1.582  0.00  0.00    +0.000 HD
ENDBRANCH  38  39
BRANCH  38  41
ATOM     41  C   UNL     1       4.832  -5.912  -1.764  0.00  0.00    +0.000 C 
BRANCH  41  42
ATOM     42  C   UNL     1       5.462  -7.106  -2.448  0.00  0.00    +0.000 C 
ATOM     43  O   UNL     1       5.302  -8.254  -2.015  0.00  0.00    +0.000 OA
BRANCH  42  44
ATOM     44  O   UNL     1       6.208  -6.877  -3.545  0.00  0.00    +0.000 OA
ATOM     45  H   UNL     1       6.454  -5.931  -3.683  0.00  0.00    +0.000 HD
ENDBRANCH  42  44
ENDBRANCH  41  42
ENDBRANCH  38  41
ENDBRANCH  37  38
ENDBRANCH  34  37
ENDBRANCH  33  34
ENDBRANCH  32  33
ENDBRANCH   5  32
TORSDOF 15
