REMARK  Name = Atovaquone
REMARK  3 active torsions:
REMARK  status: ('A' for Active; 'I' for Inactive)
REMARK    1  A    between atoms: O_1  and  C_2
REMARK    2  A    between atoms: C_3  and  C_4
REMARK    3  A    between atoms: C_7  and  C_10
REMARK                            x       y       z     vdW  Elec       q    Type
REMARK                         _______ _______ _______ _____ _____    ______ ____
ROOT
ATOM      1  C   UNL     1      -4.348  -0.891   1.285  0.00  0.00    +0.000 C 
ATOM      2  C   UNL     1      -4.044  -1.763   0.304  0.00  0.00    +0.000 C 
ATOM      3  C   UNL     1      -5.064  -1.999  -0.787  0.00  0.00    +0.000 C 
ATOM      4  O   UNL     1      -4.879  -2.638  -1.812  0.00  0.00    +0.000 OA
ATOM      5  C   UNL     1      -6.378  -1.404  -0.704  0.00  0.00    +0.000 A 
ATOM      6  C   UNL     1      -7.311  -1.713  -1.709  0.00  0.00    +0.000 A 
ATOM      7  C   UNL     1      -8.528  -1.057  -1.734  0.00  0.00    +0.000 A 
ATOM      8  C   UNL     1      -8.809  -0.112  -0.751  0.00  0.00    +0.000 A 
ATOM      9  C   UNL     1      -7.884   0.163   0.263  0.00  0.00    +0.000 A 
ATOM     10  C   UNL     1      -6.660  -0.498   0.291  0.00  0.00    +0.000 A 
ATOM     11  C   UNL     1      -5.686  -0.222   1.356  0.00  0.00    +0.000 C 
ATOM     12  O   UNL     1      -5.977   0.527   2.274  0.00  0.00    +0.000 OA
ENDROOT
BRANCH   2  13
ATOM     13  C   UNL     1      -2.702  -2.488   0.231  0.00  0.00    +0.000 C 
ATOM     14  C   UNL     1      -2.306  -3.291   1.504  0.00  0.00    +0.000 C 
ATOM     15  C   UNL     1      -3.225  -4.489   1.731  0.00  0.00    +0.000 C 
ATOM     16  C   UNL     1      -3.176  -5.469   0.537  0.00  0.00    +0.000 C 
ATOM     17  C   UNL     1      -3.543  -4.699  -0.730  0.00  0.00    +0.000 C 
ATOM     18  C   UNL     1      -2.618  -3.458  -0.947  0.00  0.00    +0.000 C 
BRANCH  16  19
ATOM     19  C   UNL     1      -1.833  -6.157   0.380  0.00  0.00    +0.000 A 
ATOM     20  C   UNL     1      -1.288  -6.858   1.454  0.00  0.00    +0.000 A 
ATOM     21  C   UNL     1      -0.005  -7.391   1.351  0.00  0.00    +0.000 A 
ATOM     22  C   UNL     1       0.744  -7.209   0.187  0.00  0.00    +0.000 A 
ATOM     23 CL   UNL     1       2.334  -7.842   0.069  0.00  0.00    +0.000 Cl
ATOM     24  C   UNL     1       0.210  -6.540  -0.898  0.00  0.00    +0.000 A 
ATOM     25  C   UNL     1      -1.088  -6.077  -0.814  0.00  0.00    +0.000 A 
ENDBRANCH  16  19
ENDBRANCH   2  13
BRANCH   1  26
ATOM     26  O   UNL     1      -3.472  -0.527   2.297  0.00  0.00    +0.000 OA
ATOM     27  H   UNL     1      -2.577  -0.854   2.132  0.00  0.00    +0.000 HD
ENDBRANCH   1  26
TORSDOF 3
