REMARK  Name = Atropine
REMARK  7 active torsions:
REMARK  status: ('A' for Active; 'I' for Inactive)
REMARK    1  A    between atoms: C_1  and  N_2
REMARK    2  A    between atoms: C_8  and  O_10
REMARK    3  A    between atoms: O_10  and  C_11
REMARK    4  A    between atoms: C_11  and  C_13
REMARK    5  A    between atoms: C_13  and  C_14
REMARK    6  A    between atoms: C_13  and  C_16
REMARK    7  A    between atoms: C_14  and  O_15
REMARK                            x       y       z     vdW  Elec       q    Type
REMARK                         _______ _______ _______ _____ _____    ______ ____
ROOT
ATOM      1  C   UNL     1       3.288  -1.159  -1.108  0.00  0.00    +0.000 C 
ATOM      2  O   UNL     1       2.909  -1.929  -1.991  0.00  0.00    +0.000 OA
ENDROOT
BRANCH   1   3
ATOM      3  O   UNL     1       2.515  -0.846  -0.037  0.00  0.00    +0.000 OA
BRANCH   3  11
ATOM      4  C   UNL     1      -2.235  -0.412   0.017  0.00  0.00    +0.000 C 
ATOM      5  N   UNL     1      -1.087   0.475   0.013  0.00  0.00    +0.000 NA
ATOM      6  C   UNL     1      -0.215   0.349  -1.154  0.00  0.00    +0.000 C 
ATOM      7  C   UNL     1       0.848   1.400  -0.805  0.00  0.00    +0.000 C 
ATOM      8  C   UNL     1       0.862   1.434   0.733  0.00  0.00    +0.000 C 
ATOM      9  C   UNL     1      -0.163   0.368   1.149  0.00  0.00    +0.000 C 
ATOM     10  C   UNL     1       0.487  -1.028   1.269  0.00  0.00    +0.000 C 
ATOM     11  C   UNL     1       1.203  -1.462  -0.023  0.00  0.00    +0.000 C 
ATOM     12  C   UNL     1       0.367  -1.066  -1.260  0.00  0.00    +0.000 C 
ENDBRANCH   3  11
ENDBRANCH   1   3
BRANCH   1  13
ATOM     13  C   UNL     1       4.615  -0.404  -1.130  0.00  0.00    +0.000 C 
BRANCH  13  14
ATOM     14  C   UNL     1       5.417  -0.749  -2.387  0.00  0.00    +0.000 A 
ATOM     15  C   UNL     1       5.516  -2.089  -2.811  0.00  0.00    +0.000 A 
ATOM     16  C   UNL     1       6.259  -2.448  -3.925  0.00  0.00    +0.000 A 
ATOM     17  C   UNL     1       6.907  -1.463  -4.655  0.00  0.00    +0.000 A 
ATOM     18  C   UNL     1       6.837  -0.129  -4.247  0.00  0.00    +0.000 A 
ATOM     19  C   UNL     1       6.099   0.232  -3.115  0.00  0.00    +0.000 A 
ENDBRANCH  13  14
BRANCH  13  20
ATOM     20  C   UNL     1       5.463  -0.758   0.097  0.00  0.00    +0.000 C 
BRANCH  20  21
ATOM     21  O   UNL     1       4.882  -0.344   1.330  0.00  0.00    +0.000 OA
ATOM     22  H   UNL     1       4.674   0.603   1.274  0.00  0.00    +0.000 HD
ENDBRANCH  20  21
ENDBRANCH  13  20
ENDBRANCH   1  13
TORSDOF 6
