REMARK  Name = Avacopan
REMARK  9 active torsions:
REMARK  status: ('A' for Active; 'I' for Inactive)
REMARK    1  A    between atoms: C_1  and  C_2
REMARK    2  A    between atoms: C_5  and  N_6
REMARK    3  A    between atoms: C_7  and  C_9
REMARK    4  A    between atoms: C_14  and  C_15
REMARK    5  A    between atoms: C_18  and  N_19
REMARK    6  A    between atoms: N_19  and  C_20
REMARK    7  A    between atoms: C_27  and  C_29
REMARK    8  A    between atoms: C_35  and  C_36
REMARK    9  A    between atoms: C_38  and  C_39
REMARK                            x       y       z     vdW  Elec       q    Type
REMARK                         _______ _______ _______ _____ _____    ______ ____
ROOT
ATOM      1  C   UNL     1      -5.825   0.727  -0.194  0.00  0.00    +0.000 C 
ATOM      2  C   UNL     1      -6.150  -0.228  -1.496  0.00  0.00    +0.000 C 
ATOM      3  C   UNL     1      -6.646   0.780  -2.470  0.00  0.00    +0.000 C 
ATOM      4  C   UNL     1      -7.280   2.118  -2.601  0.00  0.00    +0.000 C 
ATOM      5  N   UNL     1      -6.794   2.989  -1.555  0.00  0.00    +0.000 N 
ATOM      6  C   UNL     1      -6.369   2.333  -0.258  0.00  0.00    +0.000 C 
ATOM      7  C   UNL     1      -7.336   4.289  -1.630  0.00  0.00    +0.000 C 
ATOM      8  O   UNL     1      -8.505   4.430  -2.084  0.00  0.00    +0.000 OA
ENDROOT
BRANCH   7   9
ATOM      9  C   UNL     1      -6.502   5.519  -1.359  0.00  0.00    +0.000 A 
ATOM     10  C   UNL     1      -7.087   6.784  -1.555  0.00  0.00    +0.000 A 
ATOM     11  F   UNL     1      -8.367   6.928  -1.939  0.00  0.00    +0.000 F 
ATOM     12  C   UNL     1      -6.354   7.968  -1.390  0.00  0.00    +0.000 A 
ATOM     13  C   UNL     1      -5.023   7.934  -0.996  0.00  0.00    +0.000 A 
ATOM     14  C   UNL     1      -4.425   6.716  -0.788  0.00  0.00    +0.000 A 
ATOM     15  C   UNL     1      -5.126   5.525  -1.009  0.00  0.00    +0.000 A 
ATOM     16  C   UNL     1      -4.280   4.342  -0.747  0.00  0.00    +0.000 C 
ENDBRANCH   7   9
BRANCH   6  17
ATOM     17  C   UNL     1      -7.174   2.975   0.864  0.00  0.00    +0.000 A 
ATOM     18  C   UNL     1      -8.419   2.409   1.120  0.00  0.00    +0.000 A 
ATOM     19  C   UNL     1      -9.119   2.721   2.286  0.00  0.00    +0.000 A 
ATOM     20  C   UNL     1      -8.651   3.683   3.189  0.00  0.00    +0.000 A 
ATOM     21  C   UNL     1      -7.448   4.321   2.864  0.00  0.00    +0.000 A 
ATOM     22  C   UNL     1      -6.707   3.980   1.739  0.00  0.00    +0.000 A 
BRANCH  20  23
ATOM     23  N   UNL     1      -9.219   3.765   4.456  0.00  0.00    +0.000 N 
ATOM     24  H   UNL     1     -10.094   3.264   4.591  0.00  0.00    +0.000 HD
BRANCH  23  25
ATOM     25  C   UNL     1      -8.854   4.715   5.499  0.00  0.00    +0.000 C 
ATOM     26  C   UNL     1      -7.461   4.517   6.113  0.00  0.00    +0.000 C 
ATOM     27  C   UNL     1      -7.094   5.894   6.651  0.00  0.00    +0.000 C 
ATOM     28  C   UNL     1      -7.895   6.913   5.842  0.00  0.00    +0.000 C 
ATOM     29  C   UNL     1      -8.874   6.144   4.976  0.00  0.00    +0.000 C 
ENDBRANCH  23  25
ENDBRANCH  20  23
ENDBRANCH   6  17
BRANCH   1  31
ATOM     30  N   UNL     1      -6.275   0.841   2.318  0.00  0.00    +0.000 N 
ATOM     31  C   UNL     1      -6.034   0.071   1.175  0.00  0.00    +0.000 C 
ATOM     32  O   UNL     1      -5.882  -1.177   1.197  0.00  0.00    +0.000 OA
ATOM     33  H   UNL     1      -6.206   1.846   2.301  0.00  0.00    +0.000 HD
BRANCH  30  38
ATOM     34  C   UNL     1      -8.632  -1.156   7.145  0.00  0.00    +0.000 C 
ATOM     35  C   UNL     1      -8.102  -0.600   5.868  0.00  0.00    +0.000 A 
ATOM     36  C   UNL     1      -8.105   0.764   5.630  0.00  0.00    +0.000 A 
ATOM     37  C   UNL     1      -7.400   1.244   4.517  0.00  0.00    +0.000 A 
ATOM     38  C   UNL     1      -6.882   0.408   3.521  0.00  0.00    +0.000 A 
ATOM     39  C   UNL     1      -6.978  -0.924   3.747  0.00  0.00    +0.000 A 
ATOM     40  C   UNL     1      -7.501  -1.435   4.923  0.00  0.00    +0.000 A 
BRANCH  40  41
ATOM     41  C   UNL     1      -7.255  -2.900   5.036  0.00  0.00    +0.000 C 
ATOM     42  F   UNL     1      -7.847  -3.580   4.017  0.00  0.00    +0.000 F 
ATOM     43  F   UNL     1      -5.921  -3.173   4.947  0.00  0.00    +0.000 F 
ATOM     44  F   UNL     1      -7.681  -3.469   6.185  0.00  0.00    +0.000 F 
ENDBRANCH  40  41
ENDBRANCH  30  38
ENDBRANCH   1  31
TORSDOF 7
