REMARK  Name = Avanafil
REMARK  10 active torsions:
REMARK  status: ('A' for Active; 'I' for Inactive)
REMARK    1  A    between atoms: C_1  and  O_2
REMARK    2  A    between atoms: O_2  and  C_3
REMARK    3  A    between atoms: C_7  and  C_8
REMARK    4  A    between atoms: C_8  and  N_9
REMARK    5  A    between atoms: N_9  and  C_10
REMARK    6  A    between atoms: C_11  and  C_23
REMARK    7  A    between atoms: C_20  and  C_21
REMARK    8  A    between atoms: C_21  and  O_22
REMARK    9  A    between atoms: N_25  and  C_26
REMARK   10  A    between atoms: C_26  and  C_27
REMARK                            x       y       z     vdW  Elec       q    Type
REMARK                         _______ _______ _______ _____ _____    ______ ____
ROOT
ATOM      1  C   UNL     1       7.499  -3.884  -4.429  0.00  0.00    +0.000 A 
ATOM      2  C   UNL     1       7.982  -3.271  -5.567  0.00  0.00    +0.000 A 
ATOM      3  C   UNL     1       8.810  -4.088  -6.315  0.00  0.00    +0.000 A 
ATOM      4  N   UNL     1       9.212  -5.349  -5.959  0.00  0.00    +0.000 NA
ATOM      5  C   UNL     1       8.723  -5.868  -4.824  0.00  0.00    +0.000 A 
ATOM      6  N   UNL     1       7.849  -5.163  -4.061  0.00  0.00    +0.000 NA
ATOM      7  N   UNL     1       9.127  -7.125  -4.438  0.00  0.00    +0.000 N 
ATOM      8  C   UNL     1      10.516  -7.547  -4.347  0.00  0.00    +0.000 C 
ATOM      9  C   UNL     1      10.484  -9.008  -4.794  0.00  0.00    +0.000 C 
ATOM     10  C   UNL     1       9.165  -9.511  -4.226  0.00  0.00    +0.000 C 
ATOM     11  C   UNL     1       8.232  -8.263  -4.214  0.00  0.00    +0.000 C 
ENDROOT
BRANCH   2  12
ATOM     12  C   UNL     1       7.717  -1.848  -6.000  0.00  0.00    +0.000 C 
ATOM     13  O   UNL     1       7.974  -1.518  -7.137  0.00  0.00    +0.000 OA
ATOM     14  N   UNL     1       7.169  -0.952  -5.079  0.00  0.00    +0.000 N 
ATOM     15  H   UNL     1       6.982  -1.272  -4.130  0.00  0.00    +0.000 HD
BRANCH  14  16
ATOM     16  C   UNL     1       6.562   0.341  -5.478  0.00  0.00    +0.000 C 
BRANCH  16  17
ATOM     17  C   UNL     1       5.729   1.048  -4.406  0.00  0.00    +0.000 A 
ATOM     18  N   UNL     1       5.156   0.278  -3.497  0.00  0.00    +0.000 NA
ATOM     19  C   UNL     1       4.492   0.919  -2.518  0.00  0.00    +0.000 A 
ATOM     20  C   UNL     1       4.218   2.233  -2.406  0.00  0.00    +0.000 A 
ATOM     21  C   UNL     1       4.899   2.946  -3.334  0.00  0.00    +0.000 A 
ATOM     22  N   UNL     1       5.645   2.398  -4.343  0.00  0.00    +0.000 NA
ENDBRANCH  16  17
ENDBRANCH  14  16
ENDBRANCH   2  12
BRANCH   1  23
ATOM     23  N   UNL     1       6.665  -3.188  -3.528  0.00  0.00    +0.000 N 
ATOM     24  H   UNL     1       6.664  -3.771  -2.695  0.00  0.00    +0.000 HD
BRANCH  23  25
ATOM     25  C   UNL     1       5.278  -2.952  -3.985  0.00  0.00    +0.000 C 
BRANCH  25  30
ATOM     26  C   UNL     1       2.822  -1.151  -0.864  0.00  0.00    +0.000 A 
ATOM     27  C   UNL     1       2.377  -1.204  -2.207  0.00  0.00    +0.000 A 
ATOM     28 CL   UNL     1       1.173  -0.150  -2.894  0.00  0.00    +0.000 Cl
ATOM     29  C   UNL     1       3.172  -1.847  -3.173  0.00  0.00    +0.000 A 
ATOM     30  C   UNL     1       4.410  -2.436  -2.847  0.00  0.00    +0.000 A 
ATOM     31  C   UNL     1       4.855  -2.338  -1.518  0.00  0.00    +0.000 A 
ATOM     32  C   UNL     1       4.067  -1.728  -0.535  0.00  0.00    +0.000 A 
BRANCH  26  34
ATOM     33  C   UNL     1       1.006  -0.080   0.206  0.00  0.00    +0.000 C 
ATOM     34  O   UNL     1       2.408  -0.238   0.086  0.00  0.00    +0.000 OA
ENDBRANCH  26  34
ENDBRANCH  25  30
ENDBRANCH  23  25
ENDBRANCH   1  23
BRANCH  11  35
ATOM     35  C   UNL     1       7.524  -8.167  -2.859  0.00  0.00    +0.000 C 
BRANCH  35  36
ATOM     36  O   UNL     1       6.708  -9.310  -2.611  0.00  0.00    +0.000 OA
ATOM     37  H   UNL     1       6.033  -9.339  -3.310  0.00  0.00    +0.000 HD
ENDBRANCH  35  36
ENDBRANCH  11  35
TORSDOF 9
