REMARK  Name = Avapritinib
REMARK  6 active torsions:
REMARK  status: ('A' for Active; 'I' for Inactive)
REMARK    1  A    between atoms: C_1  and  N_2
REMARK    2  A    between atoms: C_4  and  C_7
REMARK    3  A    between atoms: C_23  and  C_26
REMARK    4  A    between atoms: C_26  and  C_27
REMARK    5  A    between atoms: C_26  and  N_28
REMARK    6  A    between atoms: C_26  and  C_29
REMARK                            x       y       z     vdW  Elec       q    Type
REMARK                         _______ _______ _______ _____ _____    ______ ____
ROOT
ATOM      1  C   UNL     1       2.715  -1.524  -0.090  0.00  0.00    +0.000 A 
ATOM      2  C   UNL     1       3.766  -1.492   0.802  0.00  0.00    +0.000 A 
ATOM      3  N   UNL     1       4.714  -2.388   0.371  0.00  0.00    +0.000 N 
ATOM      4  N   UNL     1       5.874  -2.655   0.986  0.00  0.00    +0.000 NA
ATOM      5  C   UNL     1       6.581  -3.566   0.382  0.00  0.00    +0.000 A 
ATOM      6  N   UNL     1       6.259  -4.252  -0.765  0.00  0.00    +0.000 NA
ATOM      7  C   UNL     1       5.155  -3.959  -1.405  0.00  0.00    +0.000 A 
ATOM      8  N   UNL     1       4.870  -4.573  -2.614  0.00  0.00    +0.000 N 
ATOM      9  C   UNL     1       4.584  -3.809  -3.841  0.00  0.00    +0.000 C 
ATOM     10  C   UNL     1       5.472  -4.308  -5.014  0.00  0.00    +0.000 C 
ATOM     11  N   UNL     1       5.281  -5.745  -5.166  0.00  0.00    +0.000 N 
ATOM     12  C   UNL     1       5.544  -6.556  -3.986  0.00  0.00    +0.000 C 
ATOM     13  C   UNL     1       4.714  -6.033  -2.787  0.00  0.00    +0.000 C 
ATOM     14  C   UNL     1       4.925  -6.271  -6.372  0.00  0.00    +0.000 A 
ATOM     15  N   UNL     1       5.624  -5.891  -7.444  0.00  0.00    +0.000 NA
ATOM     16  C   UNL     1       5.225  -6.356  -8.649  0.00  0.00    +0.000 A 
ATOM     17  C   UNL     1       4.134  -7.174  -8.871  0.00  0.00    +0.000 A 
ATOM     18  C   UNL     1       3.468  -7.473  -7.698  0.00  0.00    +0.000 A 
ATOM     19  N   UNL     1       3.854  -7.075  -6.455  0.00  0.00    +0.000 NA
ATOM     20  C   UNL     1       4.303  -2.972  -0.792  0.00  0.00    +0.000 A 
ATOM     21  C   UNL     1       3.052  -2.465  -1.099  0.00  0.00    +0.000 A 
ENDROOT
BRANCH   1  25
ATOM     22  C   UNL     1      -2.059  -0.060  -0.059  0.00  0.00    +0.000 C 
ATOM     23  N   UNL     1      -0.616  -0.104  -0.002  0.00  0.00    +0.000 N 
ATOM     24  C   UNL     1       0.178  -1.218  -0.010  0.00  0.00    +0.000 A 
ATOM     25  C   UNL     1       1.476  -0.760  -0.037  0.00  0.00    +0.000 A 
ATOM     26  C   UNL     1       1.358   0.644  -0.014  0.00  0.00    +0.000 A 
ATOM     27  N   UNL     1       0.081   1.049   0.005  0.00  0.00    +0.000 NA
ENDBRANCH   1  25
BRANCH  17  28
ATOM     28  C   UNL     1       3.705  -7.692 -10.248  0.00  0.00    +0.000 C 
ATOM     29  C   UNL     1       3.606  -9.239 -10.251  0.00  0.00    +0.000 C 
BRANCH  28  30
ATOM     30  C   UNL     1       4.699  -7.289 -11.370  0.00  0.00    +0.000 A 
ATOM     31  C   UNL     1       6.041  -7.734 -11.316  0.00  0.00    +0.000 A 
ATOM     32  C   UNL     1       6.996  -7.255 -12.211  0.00  0.00    +0.000 A 
ATOM     33  C   UNL     1       6.610  -6.381 -13.216  0.00  0.00    +0.000 A 
ATOM     34  F   UNL     1       7.527  -5.917 -14.074  0.00  0.00    +0.000 F 
ATOM     35  C   UNL     1       5.291  -5.966 -13.334  0.00  0.00    +0.000 A 
ATOM     36  C   UNL     1       4.343  -6.405 -12.408  0.00  0.00    +0.000 A 
ENDBRANCH  28  30
BRANCH  28  37
ATOM     37  N   UNL     1       2.351  -7.184 -10.559  0.00  0.00    +0.000 NA
ATOM     38  H   UNL     1       1.673  -7.528  -9.883  0.00  0.00    +0.000 HD
ATOM     39  H   UNL     1       2.051  -7.568 -11.456  0.00  0.00    +0.000 HD
ENDBRANCH  28  37
ENDBRANCH  17  28
TORSDOF 4
