REMARK  Name = Avatrombopag
REMARK  7 active torsions:
REMARK  status: ('A' for Active; 'I' for Inactive)
REMARK    1  A    between atoms: O_1  and  C_2
REMARK    2  A    between atoms: C_2  and  C_4
REMARK    3  A    between atoms: N_7  and  C_10
REMARK    4  A    between atoms: C_14  and  C_17
REMARK    5  A    between atoms: C_22  and  C_23
REMARK    6  A    between atoms: C_29  and  N_31
REMARK    7  A    between atoms: N_34  and  C_37
REMARK                            x       y       z     vdW  Elec       q    Type
REMARK                         _______ _______ _______ _____ _____    ______ ____
ROOT
ATOM      1  C   UNL     1       5.265   8.657   3.152  0.00  0.00    +0.000 C 
ATOM      2  O   UNL     1       6.455   8.617   3.394  0.00  0.00    +0.000 OA
ATOM      3  N   UNL     1       4.446   9.771   3.384  0.00  0.00    +0.000 N 
ATOM      4  C   UNL     1       5.014  10.961   3.813  0.00  0.00    +0.000 A 
ATOM      5  N   UNL     1       6.099  11.529   3.357  0.00  0.00    +0.000 NA
ATOM      6  C   UNL     1       6.361  12.678   4.081  0.00  0.00    +0.000 A 
ATOM      7  C   UNL     1       5.458  12.997   5.092  0.00  0.00    +0.000 A 
ATOM      8  S   UNL     1       4.180  11.815   5.043  0.00  0.00    +0.000 S 
ATOM      9  H   UNL     1       3.445   9.710   3.440  0.00  0.00    +0.000 HD
ENDROOT
BRANCH   1  14
ATOM     10  C   UNL     1       3.586   4.896   1.687  0.00  0.00    +0.000 A 
ATOM     11  C   UNL     1       2.760   6.024   1.852  0.00  0.00    +0.000 A 
ATOM     12 CL   UNL     1       1.050   5.972   1.570  0.00  0.00    +0.000 Cl
ATOM     13  C   UNL     1       3.271   7.250   2.334  0.00  0.00    +0.000 A 
ATOM     14  C   UNL     1       4.615   7.381   2.654  0.00  0.00    +0.000 A 
ATOM     15  C   UNL     1       5.377   6.222   2.488  0.00  0.00    +0.000 A 
ATOM     16  N   UNL     1       4.895   5.005   2.039  0.00  0.00    +0.000 NA
BRANCH  10  20
ATOM     17  C   UNL     1       3.256   1.156  -0.251  0.00  0.00    +0.000 C 
ATOM     18  C   UNL     1       3.956   1.406   1.099  0.00  0.00    +0.000 C 
ATOM     19  C   UNL     1       3.236   2.464   1.938  0.00  0.00    +0.000 C 
ATOM     20  N   UNL     1       3.145   3.690   1.160  0.00  0.00    +0.000 N 
ATOM     21  C   UNL     1       2.329   3.582  -0.042  0.00  0.00    +0.000 C 
ATOM     22  C   UNL     1       2.918   2.491  -0.944  0.00  0.00    +0.000 C 
BRANCH  17  23
ATOM     23  C   UNL     1       2.351  -0.055  -0.037  0.00  0.00    +0.000 C 
ATOM     24  O   UNL     1       2.843  -1.155   0.206  0.00  0.00    +0.000 OA
BRANCH  23  25
ATOM     25  O   UNL     1       1.023   0.096  -0.023  0.00  0.00    +0.000 OA
ATOM     26  H   UNL     1       0.657   0.972  -0.209  0.00  0.00    +0.000 HD
ENDBRANCH  23  25
ENDBRANCH  17  23
ENDBRANCH  10  20
ENDBRANCH   1  14
BRANCH   6  27
ATOM     27  C   UNL     1       7.595  13.485   3.823  0.00  0.00    +0.000 A 
ATOM     28  C   UNL     1       8.547  13.750   4.784  0.00  0.00    +0.000 A 
ATOM     29  C   UNL     1       9.567  14.613   4.302  0.00  0.00    +0.000 A 
ATOM     30 CL   UNL     1      10.876  15.120   5.275  0.00  0.00    +0.000 Cl
ATOM     31  C   UNL     1       9.345  14.999   3.000  0.00  0.00    +0.000 A 
ATOM     32  S   UNL     1       7.945  14.254   2.343  0.00  0.00    +0.000 S 
ENDBRANCH   6  27
BRANCH   7  33
ATOM     33  N   UNL     1       5.456  14.079   5.937  0.00  0.00    +0.000 N 
ATOM     34  C   UNL     1       5.659  13.859   7.382  0.00  0.00    +0.000 C 
ATOM     35  C   UNL     1       6.748  14.786   7.998  0.00  0.00    +0.000 C 
ATOM     36  N   UNL     1       6.708  16.210   7.589  0.00  0.00    +0.000 NA
ATOM     37  C   UNL     1       6.738  16.251   6.112  0.00  0.00    +0.000 C 
ATOM     38  C   UNL     1       5.646  15.441   5.381  0.00  0.00    +0.000 C 
BRANCH  36  39
ATOM     39  C   UNL     1       5.610  16.986   8.218  0.00  0.00    +0.000 C 
ATOM     40  C   UNL     1       5.659  18.467   7.798  0.00  0.00    +0.000 C 
ATOM     41  C   UNL     1       4.442  19.248   8.286  0.00  0.00    +0.000 C 
ATOM     42  C   UNL     1       3.137  18.607   7.828  0.00  0.00    +0.000 C 
ATOM     43  C   UNL     1       3.015  17.221   8.410  0.00  0.00    +0.000 C 
ATOM     44  C   UNL     1       4.207  16.396   8.031  0.00  0.00    +0.000 C 
ENDBRANCH  36  39
ENDBRANCH   7  33
TORSDOF 7
