REMARK  Name = Avibactam
REMARK  4 active torsions:
REMARK  status: ('A' for Active; 'I' for Inactive)
REMARK    1  A    between atoms: C_2  and  C_4
REMARK    2  A    between atoms: N_12  and  O_13
REMARK    3  A    between atoms: O_13  and  S_14
REMARK    4  A    between atoms: S_14  and  O_15
REMARK                            x       y       z     vdW  Elec       q    Type
REMARK                         _______ _______ _______ _____ _____    ______ ____
ROOT
ATOM      1  C   UNL     1       2.914  -0.193   1.448  0.00  0.00    +0.000 C 
ATOM      2  C   UNL     1       4.215   0.661   1.316  0.00  0.00    +0.000 C 
ATOM      3  C   UNL     1       4.864   0.254   2.569  0.00  0.00    +0.000 C 
ATOM      4  C   UNL     1       5.273  -1.160   2.073  0.00  0.00    +0.000 C 
ATOM      5  C   UNL     1       4.347  -1.975   1.000  0.00  0.00    +0.000 C 
ATOM      6  N   UNL     1       3.219  -1.704   1.764  0.00  0.00    +0.000 N 
ATOM      7  C   UNL     1       3.837  -2.348   3.042  0.00  0.00    +0.000 C 
ATOM      8  O   UNL     1       3.208  -2.820   3.972  0.00  0.00    +0.000 OA
ATOM      9  N   UNL     1       5.312  -2.117   3.048  0.00  0.00    +0.000 N 
ENDROOT
BRANCH   1  11
ATOM     10  N   UNL     1       0.925   0.021   0.090  0.00  0.00    +0.000 N 
ATOM     11  C   UNL     1       2.274   0.053   0.080  0.00  0.00    +0.000 C 
ATOM     12  O   UNL     1       2.897   0.259  -0.959  0.00  0.00    +0.000 OA
ATOM     13  H   UNL     1       0.449   0.207  -0.780  0.00  0.00    +0.000 HD
ATOM     14  H   UNL     1       0.415  -0.232   0.923  0.00  0.00    +0.000 HD
ENDBRANCH   1  11
BRANCH   9  15
ATOM     15  O   UNL     1       6.295  -3.016   2.304  0.00  0.00    +0.000 OA
BRANCH  15  16
ATOM     16  S   UNL     1       7.936  -2.386   2.198  0.00  0.00    +0.000 S 
ATOM     17  O   UNL     1       8.301  -1.890   3.493  0.00  0.00    +0.000 OA
ATOM     18  O   UNL     1       8.791  -3.321   1.465  0.00  0.00    +0.000 OA
BRANCH  16  19
ATOM     19  O   UNL     1       7.923  -1.055   1.223  0.00  0.00    +0.000 OA
ATOM     20  H   UNL     1       7.779  -0.228   1.747  0.00  0.00    +0.000 HD
ENDBRANCH  16  19
ENDBRANCH  15  16
ENDBRANCH   9  15
TORSDOF 4
