REMARK  Name = Avobenzone
REMARK  10 active torsions:
REMARK  status: ('A' for Active; 'I' for Inactive)
REMARK    1  A    between atoms: C_1  and  O_2
REMARK    2  A    between atoms: O_2  and  C_3
REMARK    3  A    between atoms: C_6  and  C_9
REMARK    4  A    between atoms: C_9  and  C_11
REMARK    5  A    between atoms: C_11  and  C_12
REMARK    6  A    between atoms: C_12  and  C_14
REMARK    7  A    between atoms: C_17  and  C_20
REMARK    8  A    between atoms: C_20  and  C_21
REMARK    9  A    between atoms: C_20  and  C_22
REMARK   10  A    between atoms: C_20  and  C_23
REMARK                            x       y       z     vdW  Elec       q    Type
REMARK                         _______ _______ _______ _____ _____    ______ ____
ROOT
ATOM      1  C   UNL     1       5.881   3.101   6.468  0.00  0.00    +0.000 C 
ATOM      2  O   UNL     1       6.907   3.706   6.154  0.00  0.00    +0.000 OA
ENDROOT
BRANCH   1   3
ATOM      3  C   UNL     1       5.542   3.127   7.899  0.00  0.00    +0.000 A 
ATOM      4  C   UNL     1       5.807   4.295   8.618  0.00  0.00    +0.000 A 
ATOM      5  C   UNL     1       5.697   4.296  10.005  0.00  0.00    +0.000 A 
ATOM      6  C   UNL     1       5.241   3.157  10.689  0.00  0.00    +0.000 A 
ATOM      7  C   UNL     1       4.986   1.994   9.939  0.00  0.00    +0.000 A 
ATOM      8  C   UNL     1       5.130   1.973   8.555  0.00  0.00    +0.000 A 
BRANCH   6   9
ATOM      9  C   UNL     1       4.975   3.224  12.198  0.00  0.00    +0.000 C 
ATOM     10  C   UNL     1       6.268   3.557  12.964  0.00  0.00    +0.000 C 
ATOM     11  C   UNL     1       3.927   4.325  12.468  0.00  0.00    +0.000 C 
ATOM     12  C   UNL     1       4.414   1.898  12.749  0.00  0.00    +0.000 C 
ENDBRANCH   6   9
ENDBRANCH   1   3
BRANCH   1  13
ATOM     13  C   UNL     1       4.971   2.360   5.510  0.00  0.00    +0.000 C 
BRANCH  13  14
ATOM     14  C   UNL     1       5.445   2.365   4.070  0.00  0.00    +0.000 C 
ATOM     15  O   UNL     1       6.501   2.878   3.698  0.00  0.00    +0.000 OA
BRANCH  14  19
ATOM     16  C   UNL     1       3.026   0.745   0.916  0.00  0.00    +0.000 A 
ATOM     17  C   UNL     1       4.240   1.374   0.643  0.00  0.00    +0.000 A 
ATOM     18  C   UNL     1       5.039   1.836   1.687  0.00  0.00    +0.000 A 
ATOM     19  C   UNL     1       4.600   1.743   3.016  0.00  0.00    +0.000 A 
ATOM     20  C   UNL     1       3.383   1.117   3.290  0.00  0.00    +0.000 A 
ATOM     21  C   UNL     1       2.603   0.619   2.241  0.00  0.00    +0.000 A 
BRANCH  16  23
ATOM     22  C   UNL     1       0.972   0.102  -0.079  0.00  0.00    +0.000 C 
ATOM     23  O   UNL     1       2.388   0.204  -0.164  0.00  0.00    +0.000 OA
ENDBRANCH  16  23
ENDBRANCH  14  19
ENDBRANCH  13  14
ENDBRANCH   1  13
TORSDOF 6
