REMARK  Name = Axitinib
REMARK  6 active torsions:
REMARK  status: ('A' for Active; 'I' for Inactive)
REMARK    1  A    between atoms: C_1  and  N_2
REMARK    2  A    between atoms: C_3  and  C_5
REMARK    3  A    between atoms: C_6  and  S_7
REMARK    4  A    between atoms: S_7  and  C_8
REMARK    5  A    between atoms: C_15  and  C_16
REMARK    6  A    between atoms: C_17  and  C_18
REMARK                            x       y       z     vdW  Elec       q    Type
REMARK                         _______ _______ _______ _____ _____    ______ ____
ROOT
ATOM      1  C   UNL     1       3.050  -1.839  -3.080  0.00  0.00    +0.000 A 
ATOM      2  C   UNL     1       1.907  -2.646  -3.264  0.00  0.00    +0.000 A 
ATOM      3  C   UNL     1       0.562  -2.119  -3.292  0.00  0.00    +0.000 A 
ATOM      4  C   UNL     1       0.422  -0.736  -2.999  0.00  0.00    +0.000 A 
ATOM      5  C   UNL     1       1.611   0.007  -3.186  0.00  0.00    +0.000 A 
ATOM      6  N   UNL     1       1.201   1.313  -3.140  0.00  0.00    +0.000 N 
ATOM      7  N   UNL     1       0.445   1.292  -2.071  0.00  0.00    +0.000 NA
ATOM      8  C   UNL     1      -0.433   0.339  -2.515  0.00  0.00    +0.000 A 
ATOM      9  C   UNL     1       2.897  -0.470  -3.078  0.00  0.00    +0.000 A 
ATOM     10  H   UNL     1       0.761   1.832  -3.892  0.00  0.00    +0.000 HD
ENDROOT
BRANCH   8  11
ATOM     11  C   UNL     1      -1.699   0.938  -2.303  0.00  0.00    +0.000 C 
ATOM     12  C   UNL     1      -3.003   0.991  -2.429  0.00  0.00    +0.000 C 
BRANCH  12  13
ATOM     13  C   UNL     1      -3.490   2.401  -2.190  0.00  0.00    +0.000 A 
ATOM     14  C   UNL     1      -2.828   3.524  -2.763  0.00  0.00    +0.000 A 
ATOM     15  C   UNL     1      -3.181   4.818  -2.387  0.00  0.00    +0.000 A 
ATOM     16  C   UNL     1      -4.197   4.972  -1.464  0.00  0.00    +0.000 A 
ATOM     17  C   UNL     1      -4.788   3.826  -0.943  0.00  0.00    +0.000 A 
ATOM     18  N   UNL     1      -4.461   2.551  -1.279  0.00  0.00    +0.000 NA
ENDBRANCH  12  13
ENDBRANCH   8  11
BRANCH   1  19
ATOM     19  S   UNL     1       4.684  -2.516  -2.872  0.00  0.00    +0.000 S 
BRANCH  19  21
ATOM     20  C   UNL     1       4.711  -1.156  -0.306  0.00  0.00    +0.000 A 
ATOM     21  C   UNL     1       5.384  -1.789  -1.371  0.00  0.00    +0.000 A 
ATOM     22  C   UNL     1       6.790  -1.905  -1.269  0.00  0.00    +0.000 A 
ATOM     23  C   UNL     1       7.501  -1.353  -0.197  0.00  0.00    +0.000 A 
ATOM     24  C   UNL     1       6.822  -0.690   0.816  0.00  0.00    +0.000 A 
ATOM     25  C   UNL     1       5.435  -0.591   0.762  0.00  0.00    +0.000 A 
BRANCH  20  28
ATOM     26  C   UNL     1       1.178  -0.056   0.390  0.00  0.00    +0.000 C 
ATOM     27  N   UNL     1       2.616  -0.063   0.307  0.00  0.00    +0.000 N 
ATOM     28  C   UNL     1       3.247  -1.224  -0.101  0.00  0.00    +0.000 C 
ATOM     29  O   UNL     1       2.665  -2.299  -0.235  0.00  0.00    +0.000 OA
ATOM     30  H   UNL     1       3.092   0.828   0.245  0.00  0.00    +0.000 HD
ENDBRANCH  20  28
ENDBRANCH  19  21
ENDBRANCH   1  19
TORSDOF 5
