REMARK  Name = Azacitidine
REMARK  5 active torsions:
REMARK  status: ('A' for Active; 'I' for Inactive)
REMARK    1  A    between atoms: N_6  and  C1*_9
REMARK    2  A    between atoms: C4*_11  and  C5*_12
REMARK    3  A    between atoms: C5*_12  and  O5*_13
REMARK    4  A    between atoms: C3*_14  and  O3*_15
REMARK    5  A    between atoms: C2*_16  and  O2*_17
REMARK                            x       y       z     vdW  Elec       q    Type
REMARK                         _______ _______ _______ _____ _____    ______ ____
ROOT
ATOM      1  C1* UNL     1       6.663   0.112   0.121  0.00  0.00    +0.000 C 
ATOM      2  O4* UNL     1       7.208  -0.534  -1.041  0.00  0.00    +0.000 OA
ATOM      3  C4* UNL     1       8.354  -1.317  -0.650  0.00  0.00    +0.000 C 
ATOM      4  C3* UNL     1       8.608  -1.066   0.841  0.00  0.00    +0.000 C 
ATOM      5  C2* UNL     1       7.255  -0.590   1.351  0.00  0.00    +0.000 C 
ENDROOT
BRANCH   1  11
ATOM      6  N   UNL     1       1.210   0.005   0.077  0.00  0.00    +0.000 N 
ATOM      7  C   UNL     1       2.557   0.049   0.075  0.00  0.00    +0.000 A 
ATOM      8  N   UNL     1       3.147   1.194   0.074  0.00  0.00    +0.000 NA
ATOM      9  C   UNL     1       4.508   1.255   0.077  0.00  0.00    +0.000 A 
ATOM     10  O   UNL     1       5.084   2.344   0.098  0.00  0.00    +0.000 OA
ATOM     11  N   UNL     1       5.213   0.079   0.059  0.00  0.00    +0.000 N 
ATOM     12  C   UNL     1       4.505  -1.075   0.061  0.00  0.00    +0.000 A 
ATOM     13  N   UNL     1       3.222  -1.132   0.072  0.00  0.00    +0.000 NA
ATOM     14  H   UNL     1       0.693   0.872   0.081  0.00  0.00    +0.000 HD
ATOM     15  H   UNL     1       0.724  -0.877   0.080  0.00  0.00    +0.000 HD
ENDBRANCH   1  11
BRANCH   4  16
ATOM     16  O3* UNL     1       9.602  -0.050   1.036  0.00  0.00    +0.000 OA
ATOM     17  H3* UNL     1       9.361   0.752   0.544  0.00  0.00    +0.000 HD
ENDBRANCH   4  16
BRANCH   5  18
ATOM     18  O2* UNL     1       7.343   0.263   2.486  0.00  0.00    +0.000 OA
ATOM     19  H2* UNL     1       8.025   0.939   2.311  0.00  0.00    +0.000 HD
ENDBRANCH   5  18
BRANCH   3  20
ATOM     20  C5* UNL     1       8.059  -2.783  -0.970  0.00  0.00    +0.000 C 
BRANCH  20  21
ATOM     21  O5* UNL     1       9.156  -3.618  -0.638  0.00  0.00    +0.000 OA
ATOM     22  H5* UNL     1       9.925  -3.333  -1.163  0.00  0.00    +0.000 HD
ENDBRANCH  20  21
ENDBRANCH   3  20
TORSDOF 5
