REMARK  Name = Azathioprine
REMARK  4 active torsions:
REMARK  status: ('A' for Active; 'I' for Inactive)
REMARK    1  A    between atoms: C_1  and  N_2
REMARK    2  A    between atoms: C_5  and  N_17
REMARK    3  A    between atoms: C_6  and  S_7
REMARK    4  A    between atoms: S_7  and  C_8
REMARK                            x       y       z     vdW  Elec       q    Type
REMARK                         _______ _______ _______ _____ _____    ______ ____
ROOT
ATOM      1  S   UNL     1       0.604  -2.896  -0.006  0.00  0.00    +0.000 S 
ENDROOT
BRANCH   1   2
ATOM      2  C   UNL     1       2.353  -2.899   0.044  0.00  0.00    +0.000 A 
ATOM      3  N   UNL     1       3.025  -2.405   1.104  0.00  0.00    +0.000 NA
ATOM      4  C   UNL     1       4.373  -2.391   1.061  0.00  0.00    +0.000 A 
ATOM      5  N   UNL     1       5.165  -2.865   0.096  0.00  0.00    +0.000 NA
ATOM      6  C   UNL     1       4.479  -3.452  -0.899  0.00  0.00    +0.000 A 
ATOM      7  C   UNL     1       3.099  -3.481  -0.960  0.00  0.00    +0.000 A 
ATOM      8  N   UNL     1       2.818  -4.161  -2.115  0.00  0.00    +0.000 N 
ATOM      9  C   UNL     1       4.012  -4.534  -2.670  0.00  0.00    +0.000 A 
ATOM     10  N   UNL     1       5.033  -4.092  -1.971  0.00  0.00    +0.000 NA
ATOM     11  H   UNL     1       1.898  -4.388  -2.470  0.00  0.00    +0.000 HD
ENDBRANCH   1   2
BRANCH   1  17
ATOM     12  C   UNL     1       2.173   0.135  -0.042  0.00  0.00    +0.000 C 
ATOM     13  N   UNL     1       0.749  -0.073  -0.012  0.00  0.00    +0.000 N 
ATOM     14  C   UNL     1      -0.133   0.981   0.007  0.00  0.00    +0.000 A 
ATOM     15  N   UNL     1      -1.379   0.577   0.003  0.00  0.00    +0.000 NA
ATOM     16  C   UNL     1      -1.303  -0.806   0.006  0.00  0.00    +0.000 A 
ATOM     17  C   UNL     1       0.020  -1.246   0.004  0.00  0.00    +0.000 A 
BRANCH  16  18
ATOM     18  N   UNL     1      -2.531  -1.584  -0.008  0.00  0.00    +0.000 N 
ATOM     19  O   UNL     1      -2.429  -2.822  -0.019  0.00  0.00    +0.000 OA
ATOM     20  O   UNL     1      -3.602  -0.968  -0.025  0.00  0.00    +0.000 OA
ENDBRANCH  16  18
ENDBRANCH   1  17
TORSDOF 3
