REMARK  Name = Azatadine
REMARK  1 active torsions:
REMARK  status: ('A' for Active; 'I' for Inactive)
REMARK    1  A    between atoms: C_1  and  N_2
REMARK                            x       y       z     vdW  Elec       q    Type
REMARK                         _______ _______ _______ _____ _____    ______ ____
ROOT
ATOM      1  C   UNL     1       1.006  -0.038   0.148  0.00  0.00    +0.000 C 
ATOM      2  N   UNL     1       2.468  -0.060   0.057  0.00  0.00    +0.000 NA
ATOM      3  C   UNL     1       2.954  -1.411  -0.301  0.00  0.00    +0.000 C 
ATOM      4  C   UNL     1       2.543  -1.846  -1.715  0.00  0.00    +0.000 C 
ATOM      5  C   UNL     1       3.103  -0.858  -2.730  0.00  0.00    +0.000 C 
ATOM      6  C   UNL     1       2.598   0.550  -2.401  0.00  0.00    +0.000 C 
ATOM      7  C   UNL     1       2.955   0.915  -0.944  0.00  0.00    +0.000 C 
ATOM      8  C   UNL     1       3.942  -1.190  -3.744  0.00  0.00    +0.000 C 
ATOM      9  C   UNL     1       4.355  -0.136  -4.704  0.00  0.00    +0.000 A 
ATOM     10  C   UNL     1       5.218   0.901  -4.328  0.00  0.00    +0.000 A 
ATOM     11  C   UNL     1       5.609   1.860  -5.263  0.00  0.00    +0.000 A 
ATOM     12  C   UNL     1       5.168   1.770  -6.582  0.00  0.00    +0.000 A 
ATOM     13  C   UNL     1       4.324   0.731  -6.969  0.00  0.00    +0.000 A 
ATOM     14  C   UNL     1       3.900  -0.216  -6.030  0.00  0.00    +0.000 A 
ATOM     15  C   UNL     1       3.019  -1.364  -6.447  0.00  0.00    +0.000 C 
ATOM     16  C   UNL     1       3.832  -2.653  -6.512  0.00  0.00    +0.000 C 
ATOM     17  C   UNL     1       4.324  -3.249  -5.212  0.00  0.00    +0.000 A 
ATOM     18  C   UNL     1       4.384  -2.608  -3.966  0.00  0.00    +0.000 A 
ATOM     19  N   UNL     1       4.887  -3.229  -2.862  0.00  0.00    +0.000 NA
ATOM     20  C   UNL     1       5.291  -4.511  -2.975  0.00  0.00    +0.000 A 
ATOM     21  C   UNL     1       5.272  -5.218  -4.156  0.00  0.00    +0.000 A 
ATOM     22  C   UNL     1       4.796  -4.571  -5.287  0.00  0.00    +0.000 A 
ENDROOT
TORSDOF 0
