REMARK  Name = Azelaic acid
REMARK  10 active torsions:
REMARK  status: ('A' for Active; 'I' for Inactive)
REMARK    1  A    between atoms: O_1  and  C_2
REMARK    2  A    between atoms: C_2  and  C_4
REMARK    3  A    between atoms: C_4  and  C_5
REMARK    4  A    between atoms: C_5  and  C_6
REMARK    5  A    between atoms: C_6  and  C_7
REMARK    6  A    between atoms: C_7  and  C_8
REMARK    7  A    between atoms: C_8  and  C_9
REMARK    8  A    between atoms: C_9  and  C_10
REMARK    9  A    between atoms: C_10  and  C_11
REMARK   10  A    between atoms: C_11  and  O_12
REMARK                            x       y       z     vdW  Elec       q    Type
REMARK                         _______ _______ _______ _____ _____    ______ ____
ROOT
ATOM      1  C   UNL     1       6.857   2.099   0.469  0.00  0.00    +0.000 C 
ENDROOT
BRANCH   1   2
ATOM      2  C   UNL     1       5.358   2.360   0.535  0.00  0.00    +0.000 C 
BRANCH   2   3
ATOM      3  C   UNL     1       4.586   1.089   0.213  0.00  0.00    +0.000 C 
BRANCH   3   4
ATOM      4  C   UNL     1       3.073   1.301   0.267  0.00  0.00    +0.000 C 
BRANCH   4   5
ATOM      5  C   UNL     1       2.363   0.008  -0.061  0.00  0.00    +0.000 C 
ATOM      6  O   UNL     1       2.928  -1.045  -0.328  0.00  0.00    +0.000 OA
BRANCH   5   7
ATOM      7  O   UNL     1       1.017   0.102  -0.037  0.00  0.00    +0.000 OA
ATOM      8  H   UNL     1       0.662   0.981   0.186  0.00  0.00    +0.000 HD
ENDBRANCH   5   7
ENDBRANCH   4   5
ENDBRANCH   3   4
ENDBRANCH   2   3
ENDBRANCH   1   2
BRANCH   1   9
ATOM      9  C   UNL     1       7.635   3.369   0.790  0.00  0.00    +0.000 C 
BRANCH   9  10
ATOM     10  C   UNL     1       9.128   3.086   0.719  0.00  0.00    +0.000 C 
BRANCH  10  11
ATOM     11  C   UNL     1       9.954   4.323   1.032  0.00  0.00    +0.000 C 
BRANCH  11  12
ATOM     12  C   UNL     1      11.453   4.128   0.982  0.00  0.00    +0.000 C 
ATOM     13  O   UNL     1      12.229   5.046   1.215  0.00  0.00    +0.000 OA
BRANCH  12  14
ATOM     14  O   UNL     1      11.907   2.898   0.671  0.00  0.00    +0.000 OA
ATOM     15  H   UNL     1      11.250   2.202   0.495  0.00  0.00    +0.000 HD
ENDBRANCH  12  14
ENDBRANCH  11  12
ENDBRANCH  10  11
ENDBRANCH   9  10
ENDBRANCH   1   9
TORSDOF 10
