REMARK  Name = Azelastine
REMARK  4 active torsions:
REMARK  status: ('A' for Active; 'I' for Inactive)
REMARK    1  A    between atoms: C_1  and  N_2
REMARK    2  A    between atoms: C_6  and  N_9
REMARK    3  A    between atoms: C_11  and  C_12
REMARK    4  A    between atoms: C_12  and  C_13
REMARK                            x       y       z     vdW  Elec       q    Type
REMARK                         _______ _______ _______ _____ _____    ______ ____
ROOT
ATOM      1  N   UNL     1       6.794   0.849  -0.690  0.00  0.00    +0.000 N 
ATOM      2  N   UNL     1       6.885   0.230   0.529  0.00  0.00    +0.000 NA
ATOM      3  C   UNL     1       8.007   0.171   1.169  0.00  0.00    +0.000 A 
ATOM      4  C   UNL     1       9.228   0.777   0.627  0.00  0.00    +0.000 A 
ATOM      5  C   UNL     1      10.465   0.632   1.247  0.00  0.00    +0.000 A 
ATOM      6  C   UNL     1      11.609   1.005   0.551  0.00  0.00    +0.000 A 
ATOM      7  C   UNL     1      11.503   1.747  -0.626  0.00  0.00    +0.000 A 
ATOM      8  C   UNL     1      10.256   2.004  -1.180  0.00  0.00    +0.000 A 
ATOM      9  C   UNL     1       9.128   1.435  -0.596  0.00  0.00    +0.000 A 
ATOM     10  C   UNL     1       7.852   1.473  -1.313  0.00  0.00    +0.000 A 
ATOM     11  O   UNL     1       7.791   2.016  -2.424  0.00  0.00    +0.000 OA
ENDROOT
BRANCH   1  17
ATOM     12  C   UNL     1       1.062   0.010  -0.020  0.00  0.00    +0.000 C 
ATOM     13  N   UNL     1       2.520   0.016  -0.070  0.00  0.00    +0.000 NA
ATOM     14  C   UNL     1       2.989  -1.285  -0.563  0.00  0.00    +0.000 C 
ATOM     15  C   UNL     1       4.503  -1.417  -0.605  0.00  0.00    +0.000 C 
ATOM     16  C   UNL     1       5.144  -0.654  -1.746  0.00  0.00    +0.000 C 
ATOM     17  C   UNL     1       5.482   0.789  -1.348  0.00  0.00    +0.000 C 
ATOM     18  C   UNL     1       4.446   1.500  -0.470  0.00  0.00    +0.000 C 
ATOM     19  C   UNL     1       3.010   1.162  -0.847  0.00  0.00    +0.000 C 
ENDBRANCH   1  17
BRANCH   3  20
ATOM     20  C   UNL     1       8.085  -0.592   2.499  0.00  0.00    +0.000 C 
BRANCH  20  21
ATOM     21  C   UNL     1       6.782  -1.235   2.914  0.00  0.00    +0.000 A 
ATOM     22  C   UNL     1       6.188  -2.204   2.096  0.00  0.00    +0.000 A 
ATOM     23  C   UNL     1       4.857  -2.572   2.303  0.00  0.00    +0.000 A 
ATOM     24  C   UNL     1       4.157  -2.066   3.388  0.00  0.00    +0.000 A 
ATOM     25 CL   UNL     1       2.479  -2.403   3.551  0.00  0.00    +0.000 Cl
ATOM     26  C   UNL     1       4.804  -1.257   4.315  0.00  0.00    +0.000 A 
ATOM     27  C   UNL     1       6.099  -0.802   4.055  0.00  0.00    +0.000 A 
ENDBRANCH  20  21
ENDBRANCH   3  20
TORSDOF 3
