REMARK  Name = Azilsartan medoxomil
REMARK  12 active torsions:
REMARK  status: ('A' for Active; 'I' for Inactive)
REMARK    1  A    between atoms: C_1  and  C_2
REMARK    2  A    between atoms: C_2  and  O_3
REMARK    3  A    between atoms: O_3  and  C_4
REMARK    4  A    between atoms: N_8  and  C_9
REMARK    5  A    between atoms: C_9  and  C_10
REMARK    6  A    between atoms: C_13  and  C_16
REMARK    7  A    between atoms: C_21  and  C_22
REMARK    8  A    between atoms: C_28  and  C_32
REMARK    9  A    between atoms: C_32  and  O_34
REMARK   10  A    between atoms: O_34  and  C_35
REMARK   11  A    between atoms: C_35  and  C_36
REMARK   12  A    between atoms: C_37  and  C_38
REMARK                            x       y       z     vdW  Elec       q    Type
REMARK                         _______ _______ _______ _____ _____    ______ ____
ROOT
ATOM      1  C   UNL     1       4.407  -0.390  -1.381  0.00  0.00    +0.000 A 
ATOM      2  N   UNL     1       5.328  -0.929  -0.624  0.00  0.00    +0.000 NA
ATOM      3  C   UNL     1       6.514  -0.732  -1.294  0.00  0.00    +0.000 A 
ATOM      4  C   UNL     1       6.352  -0.006  -2.486  0.00  0.00    +0.000 A 
ATOM      5  N   UNL     1       4.967   0.200  -2.507  0.00  0.00    +0.000 N 
ATOM      6  C   UNL     1       7.467   0.337  -3.332  0.00  0.00    +0.000 A 
ATOM      7  C   UNL     1       8.725  -0.125  -2.890  0.00  0.00    +0.000 A 
ATOM      8  C   UNL     1       8.883  -0.865  -1.712  0.00  0.00    +0.000 A 
ATOM      9  C   UNL     1       7.787  -1.173  -0.906  0.00  0.00    +0.000 A 
ENDROOT
BRANCH   6  10
ATOM     10  C   UNL     1       7.372   1.137  -4.620  0.00  0.00    +0.000 C 
ATOM     11  O   UNL     1       6.318   1.542  -5.082  0.00  0.00    +0.000 OA
BRANCH  10  12
ATOM     12  O   UNL     1       8.566   1.400  -5.245  0.00  0.00    +0.000 OA
BRANCH  12  13
ATOM     13  C   UNL     1       8.417   2.192  -6.464  0.00  0.00    +0.000 C 
BRANCH  13  14
ATOM     14  C   UNL     1       9.746   2.458  -7.125  0.00  0.00    +0.000 A 
ATOM     15  C   UNL     1      10.376   3.562  -7.504  0.00  0.00    +0.000 A 
ATOM     16  C   UNL     1      10.048   5.020  -7.412  0.00  0.00    +0.000 C 
ATOM     17  O   UNL     1      11.586   3.257  -8.120  0.00  0.00    +0.000 OA
ATOM     18  C   UNL     1      11.599   1.874  -8.077  0.00  0.00    +0.000 A 
ATOM     19  O   UNL     1      12.516   1.194  -8.520  0.00  0.00    +0.000 OA
ATOM     20  O   UNL     1      10.474   1.330  -7.488  0.00  0.00    +0.000 OA
ENDBRANCH  13  14
ENDBRANCH  12  13
ENDBRANCH  10  12
ENDBRANCH   6  10
BRANCH   1  21
ATOM     21  O   UNL     1       3.089  -0.497  -1.146  0.00  0.00    +0.000 OA
BRANCH  21  23
ATOM     22  C   UNL     1       1.128  -0.267   0.323  0.00  0.00    +0.000 C 
ATOM     23  C   UNL     1       2.650  -0.129   0.174  0.00  0.00    +0.000 C 
ENDBRANCH  21  23
ENDBRANCH   1  21
BRANCH   5  24
ATOM     24  C   UNL     1       4.295   0.958  -3.559  0.00  0.00    +0.000 C 
BRANCH  24  25
ATOM     25  C   UNL     1       2.828   1.154  -3.403  0.00  0.00    +0.000 A 
ATOM     26  C   UNL     1       2.359   1.895  -2.326  0.00  0.00    +0.000 A 
ATOM     27  C   UNL     1       1.023   1.804  -2.003  0.00  0.00    +0.000 A 
ATOM     28  C   UNL     1       0.126   1.031  -2.769  0.00  0.00    +0.000 A 
ATOM     29  C   UNL     1       0.578   0.525  -3.987  0.00  0.00    +0.000 A 
ATOM     30  C   UNL     1       1.932   0.545  -4.284  0.00  0.00    +0.000 A 
BRANCH  28  31
ATOM     31  C   UNL     1      -1.251   0.758  -2.319  0.00  0.00    +0.000 A 
ATOM     32  C   UNL     1      -1.776  -0.557  -2.354  0.00  0.00    +0.000 A 
ATOM     33  C   UNL     1      -3.134  -0.794  -2.125  0.00  0.00    +0.000 A 
ATOM     34  C   UNL     1      -3.948   0.248  -1.693  0.00  0.00    +0.000 A 
ATOM     35  C   UNL     1      -3.399   1.508  -1.454  0.00  0.00    +0.000 A 
ATOM     36  C   UNL     1      -2.081   1.779  -1.830  0.00  0.00    +0.000 A 
BRANCH  36  37
ATOM     37  C   UNL     1      -1.585   3.154  -1.697  0.00  0.00    +0.000 A 
ATOM     38  N   UNL     1      -1.527   3.820  -0.593  0.00  0.00    +0.000 NA
ATOM     39  O   UNL     1      -0.889   5.053  -0.946  0.00  0.00    +0.000 OA
ATOM     40  C   UNL     1      -0.632   4.991  -2.297  0.00  0.00    +0.000 A 
ATOM     41  O   UNL     1      -0.084   5.851  -2.954  0.00  0.00    +0.000 OA
ATOM     42  N   UNL     1      -1.089   3.812  -2.756  0.00  0.00    +0.000 N 
ATOM     43  H   UNL     1      -0.935   3.487  -3.695  0.00  0.00    +0.000 HD
ENDBRANCH  36  37
ENDBRANCH  28  31
ENDBRANCH  24  25
ENDBRANCH   5  24
TORSDOF 10
