REMARK  Name = Azlocillin
REMARK  8 active torsions:
REMARK  status: ('A' for Active; 'I' for Inactive)
REMARK    1  A    between atoms: CA_2  and  N_3
REMARK    2  A    between atoms: CA_2  and  C_12
REMARK    3  A    between atoms: CA_2  and  C_29
REMARK    4  A    between atoms: N_14  and  CA_15
REMARK    5  A    between atoms: CA_19  and  C_20
REMARK    6  A    between atoms: C_20  and  O_21
REMARK    7  A    between atoms: C_23  and  C_24
REMARK    8  A    between atoms: C_23  and  C_25
REMARK                            x       y       z     vdW  Elec       q    Type
REMARK                         _______ _______ _______ _____ _____    ______ ____
ROOT
ATOM      1  CA  UNL     1       1.972   0.029   0.099  0.00  0.00    +0.000 C 
ENDROOT
BRANCH   1   2
ATOM      2  N   UNL     1       0.487  -0.020   0.202  0.00  0.00    +0.000 N 
ATOM      3  C   UNL     1      -0.286   0.674   1.120  0.00  0.00    +0.000 C 
ATOM      4  O   UNL     1       0.100   1.324   2.083  0.00  0.00    +0.000 OA
ATOM      5  N   UNL     1      -1.622   0.705   0.828  0.00  0.00    +0.000 N 
ATOM      6  C   UNL     1      -2.421   1.846   1.248  0.00  0.00    +0.000 C 
ATOM      7  C   UNL     1      -3.755   1.497   0.630  0.00  0.00    +0.000 C 
ATOM      8  N   UNL     1      -3.776   0.065   0.777  0.00  0.00    +0.000 N 
ATOM      9  C   UNL     1      -2.464  -0.420   0.824  0.00  0.00    +0.000 C 
ATOM     10  O   UNL     1      -2.157  -1.599   0.781  0.00  0.00    +0.000 OA
ATOM     11  H   UNL     1      -0.026  -0.497  -0.525  0.00  0.00    +0.000 HD
ATOM     12  H   UNL     1      -4.566  -0.555   0.663  0.00  0.00    +0.000 HD
ENDBRANCH   1   2
BRANCH   1  13
ATOM     13  C   UNL     1       2.609   0.450   1.414  0.00  0.00    +0.000 A 
ATOM     14  C   UNL     1       2.901  -0.478   2.418  0.00  0.00    +0.000 A 
ATOM     15  C   UNL     1       3.075  -0.025   3.728  0.00  0.00    +0.000 A 
ATOM     16  C   UNL     1       3.054   1.342   4.022  0.00  0.00    +0.000 A 
ATOM     17  C   UNL     1       2.843   2.273   3.016  0.00  0.00    +0.000 A 
ATOM     18  C   UNL     1       2.640   1.828   1.722  0.00  0.00    +0.000 A 
ENDBRANCH   1  13
BRANCH   1  19
ATOM     19  C   UNL     1       2.510   0.907  -1.085  0.00  0.00    +0.000 C 
ATOM     20  O   UNL     1       3.422   1.729  -0.967  0.00  0.00    +0.000 OA
ATOM     21  N   UNL     1       2.048   0.646  -2.359  0.00  0.00    +0.000 N 
ATOM     22  H   UNL     1       1.493  -0.179  -2.550  0.00  0.00    +0.000 HD
BRANCH  21  23
ATOM     23  CA  UNL     1       2.599   1.494  -3.472  0.00  0.00    +0.000 C 
ATOM     24  C   UNL     1       2.158   2.995  -3.490  0.00  0.00    +0.000 C 
ATOM     25  O   UNL     1       2.027   3.896  -2.682  0.00  0.00    +0.000 OA
ATOM     26  N   UNL     1       1.698   2.896  -4.780  0.00  0.00    +0.000 N 
ATOM     27  CA  UNL     1       0.371   3.432  -5.145  0.00  0.00    +0.000 C 
ATOM     28  C   UNL     1      -0.393   2.267  -5.816  0.00  0.00    +0.000 C 
ATOM     29  C   UNL     1      -1.902   2.345  -5.582  0.00  0.00    +0.000 C 
ATOM     30  C   UNL     1      -0.046   2.019  -7.295  0.00  0.00    +0.000 C 
ATOM     31  S   UNL     1       0.211   0.750  -4.904  0.00  0.00    +0.000 S 
ATOM     32  C   UNL     1       1.900   1.438  -4.834  0.00  0.00    +0.000 C 
BRANCH  27  33
ATOM     33  C   UNL     1       0.514   4.787  -5.880  0.00  0.00    +0.000 C 
ATOM     34  OXT UNL     1       1.162   5.722  -5.425  0.00  0.00    +0.000 OA
BRANCH  33  35
ATOM     35  O   UNL     1      -0.114   4.966  -7.059  0.00  0.00    +0.000 OA
ATOM     36  H   UNL     1      -0.799   4.352  -7.360  0.00  0.00    +0.000 HD
ENDBRANCH  33  35
ENDBRANCH  27  33
ENDBRANCH  21  23
ENDBRANCH   1  19
TORSDOF 6
