REMARK  Name = Aztreonam
REMARK  12 active torsions:
REMARK  status: ('A' for Active; 'I' for Inactive)
REMARK    1  A    between atoms: C_1  and  C_2
REMARK    2  A    between atoms: C_3  and  N_4
REMARK    3  A    between atoms: C_5  and  C_7
REMARK    4  A    between atoms: C_7  and  C_16
REMARK    5  A    between atoms: N_8  and  O_9
REMARK    6  A    between atoms: O_9  and  C_10
REMARK    7  A    between atoms: C_10  and  C_11
REMARK    8  A    between atoms: C_10  and  C_12
REMARK    9  A    between atoms: C_10  and  C_13
REMARK   10  A    between atoms: C_13  and  O_15
REMARK   11  A    between atoms: C_19  and  N_20
REMARK   12  A    between atoms: N_24  and  S_25
REMARK                            x       y       z     vdW  Elec       q    Type
REMARK                         _______ _______ _______ _____ _____    ______ ____
ROOT
ATOM      1  C   UNL     1       1.358  -1.889   4.219  0.00  0.00    +0.000 C 
ATOM      2  N   UNL     1       1.067  -3.166   4.153  0.00  0.00    +0.000 NA
ENDROOT
BRANCH   1   3
ATOM      3  C   UNL     1       0.939  -1.137   5.448  0.00  0.00    +0.000 A 
ATOM      4  C   UNL     1       0.348   0.120   5.383  0.00  0.00    +0.000 A 
ATOM      5  S   UNL     1       0.025   0.744   6.942  0.00  0.00    +0.000 S 
ATOM      6  C   UNL     1       0.703  -0.657   7.614  0.00  0.00    +0.000 A 
ATOM      7  N   UNL     1       1.112  -1.589   6.788  0.00  0.00    +0.000 NA
BRANCH   6   8
ATOM      8  N   UNL     1       0.780  -0.800   9.020  0.00  0.00    +0.000 NA
ATOM      9  H   UNL     1       0.137  -0.161   9.498  0.00  0.00    +0.000 HD
ATOM     10  H   UNL     1       0.662  -1.774   9.308  0.00  0.00    +0.000 HD
ATOM     11  H   UNL     1       1.722  -0.547   9.340  0.00  0.00    +0.000 HD
ENDBRANCH   6   8
ENDBRANCH   1   3
BRANCH   1  13
ATOM     12  N   UNL     1       2.388  -1.683   1.898  0.00  0.00    +0.000 N 
ATOM     13  C   UNL     1       2.069  -1.081   3.098  0.00  0.00    +0.000 C 
ATOM     14  O   UNL     1       2.332   0.090   3.325  0.00  0.00    +0.000 OA
ATOM     15  H   UNL     1       2.187  -2.679   1.822  0.00  0.00    +0.000 HD
BRANCH  12  18
ATOM     16  C   UNL     1       2.820   0.050  -1.516  0.00  0.00    +0.000 C 
ATOM     17  C   UNL     1       2.493   0.066  -0.023  0.00  0.00    +0.000 C 
ATOM     18  C   UNL     1       3.208  -1.045   0.811  0.00  0.00    +0.000 C 
ATOM     19  C   UNL     1       4.183   0.154   1.216  0.00  0.00    +0.000 C 
ATOM     20  O   UNL     1       5.269   0.300   1.738  0.00  0.00    +0.000 OA
ATOM     21  N   UNL     1       3.286   1.078   0.705  0.00  0.00    +0.000 N 
BRANCH  21  22
ATOM     22  S   UNL     1       2.981   2.627   1.229  0.00  0.00    +0.000 S 
ATOM     23  O   UNL     1       2.794   2.572   2.674  0.00  0.00    +0.000 OA
ATOM     24  O   UNL     1       4.154   3.380   0.805  0.00  0.00    +0.000 OA
ATOM     25  O   UNL     1       1.756   2.963   0.505  0.00  0.00    +0.000 OA
ENDBRANCH  21  22
ENDBRANCH  12  18
ENDBRANCH   1  13
BRANCH   2  26
ATOM     26  O   UNL     1       1.447  -3.743   2.920  0.00  0.00    +0.000 OA
BRANCH  26  27
ATOM     27  C   UNL     1       1.118  -5.145   2.784  0.00  0.00    +0.000 C 
ATOM     28  C   UNL     1       1.824  -5.948   3.866  0.00  0.00    +0.000 C 
ATOM     29  C   UNL     1      -0.394  -5.334   2.813  0.00  0.00    +0.000 C 
BRANCH  27  30
ATOM     30  C   UNL     1       1.661  -5.548   1.393  0.00  0.00    +0.000 C 
ATOM     31  O   UNL     1       2.224  -4.758   0.640  0.00  0.00    +0.000 OA
BRANCH  30  32
ATOM     32  O   UNL     1       1.479  -6.840   1.029  0.00  0.00    +0.000 OA
ATOM     33  H   UNL     1       1.024  -7.440   1.650  0.00  0.00    +0.000 HD
ENDBRANCH  30  32
ENDBRANCH  27  30
ENDBRANCH  26  27
ENDBRANCH   2  26
TORSDOF 9
