REMARK  Name = Bacampicillin
REMARK  15 active torsions:
REMARK  status: ('A' for Active; 'I' for Inactive)
REMARK    1  A    between atoms: C_4  and  C_5
REMARK    2  A    between atoms: C_4  and  C_6
REMARK    3  A    between atoms: C_7  and  C_23
REMARK    4  A    between atoms: C_11  and  N_12
REMARK    5  A    between atoms: C_13  and  C_15
REMARK    6  A    between atoms: C_15  and  N_16
REMARK    7  A    between atoms: C_15  and  C_17
REMARK    8  A    between atoms: C_23  and  O_25
REMARK    9  A    between atoms: O_25  and  C_26
REMARK   10  A    between atoms: C_26  and  C_27
REMARK   11  A    between atoms: C_26  and  O_28
REMARK   12  A    between atoms: O_28  and  C_29
REMARK   13  A    between atoms: C_29  and  O_31
REMARK   14  A    between atoms: O_31  and  C_32
REMARK   15  A    between atoms: C_32  and  C_33
REMARK                            x       y       z     vdW  Elec       q    Type
REMARK                         _______ _______ _______ _____ _____    ______ ____
ROOT
ATOM      1  C   UNL     1       3.079   1.409  -7.350  0.00  0.00    +0.000 C 
ATOM      2  S   UNL     1       4.318   0.095  -7.095  0.00  0.00    +0.000 S 
ATOM      3  C   UNL     1       3.091  -1.199  -7.641  0.00  0.00    +0.000 C 
ATOM      4  C   UNL     1       3.569  -2.529  -7.055  0.00  0.00    +0.000 C 
ATOM      5  C   UNL     1       3.164  -1.238  -9.181  0.00  0.00    +0.000 C 
ATOM      6  C   UNL     1       1.721  -0.703  -7.054  0.00  0.00    +0.000 C 
ATOM      7  N   UNL     1       1.772   0.766  -7.091  0.00  0.00    +0.000 N 
ATOM      8  C   UNL     1       1.556   1.480  -5.934  0.00  0.00    +0.000 C 
ATOM      9  O   UNL     1       0.764   1.286  -5.049  0.00  0.00    +0.000 OA
ATOM     10  C   UNL     1       2.808   2.375  -6.191  0.00  0.00    +0.000 C 
ENDROOT
BRANCH  10  11
ATOM     11  N   UNL     1       3.825   2.457  -5.106  0.00  0.00    +0.000 N 
ATOM     12  C   UNL     1       3.572   3.280  -4.031  0.00  0.00    +0.000 C 
ATOM     13  O   UNL     1       2.512   3.907  -3.964  0.00  0.00    +0.000 OA
ATOM     14  H   UNL     1       4.644   1.858  -5.106  0.00  0.00    +0.000 HD
BRANCH  12  15
ATOM     15  C   UNL     1       4.695   3.398  -2.966  0.00  0.00    +0.000 C 
BRANCH  15  16
ATOM     16  C   UNL     1       5.299   4.796  -2.903  0.00  0.00    +0.000 A 
ATOM     17  C   UNL     1       6.607   4.982  -2.429  0.00  0.00    +0.000 A 
ATOM     18  C   UNL     1       7.100   6.272  -2.205  0.00  0.00    +0.000 A 
ATOM     19  C   UNL     1       6.333   7.389  -2.537  0.00  0.00    +0.000 A 
ATOM     20  C   UNL     1       5.051   7.221  -3.039  0.00  0.00    +0.000 A 
ATOM     21  C   UNL     1       4.537   5.939  -3.201  0.00  0.00    +0.000 A 
ENDBRANCH  15  16
BRANCH  15  22
ATOM     22  N   UNL     1       4.119   3.039  -1.655  0.00  0.00    +0.000 NA
ATOM     23  H   UNL     1       3.376   3.717  -1.463  0.00  0.00    +0.000 HD
ATOM     24  H   UNL     1       4.816   3.186  -0.929  0.00  0.00    +0.000 HD
ENDBRANCH  15  22
ENDBRANCH  12  15
ENDBRANCH  10  11
BRANCH   6  25
ATOM     25  C   UNL     1       0.491  -1.281  -7.798  0.00  0.00    +0.000 C 
ATOM     26  O   UNL     1       0.608  -2.015  -8.772  0.00  0.00    +0.000 OA
BRANCH  25  27
ATOM     27  O   UNL     1      -0.737  -0.975  -7.285  0.00  0.00    +0.000 OA
BRANCH  27  28
ATOM     28  C   UNL     1      -1.875  -1.552  -8.027  0.00  0.00    +0.000 C 
ATOM     29  C   UNL     1      -1.806  -3.092  -8.009  0.00  0.00    +0.000 C 
BRANCH  28  30
ATOM     30  O   UNL     1      -3.137  -1.121  -7.433  0.00  0.00    +0.000 OA
BRANCH  30  31
ATOM     31  C   UNL     1      -4.286  -1.496  -8.075  0.00  0.00    +0.000 C 
ATOM     32  O   UNL     1      -4.344  -2.137  -9.115  0.00  0.00    +0.000 OA
BRANCH  31  33
ATOM     33  O   UNL     1      -5.379  -1.066  -7.373  0.00  0.00    +0.000 OA
BRANCH  33  34
ATOM     34  C   UNL     1      -6.647  -1.465  -7.937  0.00  0.00    +0.000 C 
ATOM     35  C   UNL     1      -7.799  -0.891  -7.122  0.00  0.00    +0.000 C 
ENDBRANCH  33  34
ENDBRANCH  31  33
ENDBRANCH  30  31
ENDBRANCH  28  30
ENDBRANCH  27  28
ENDBRANCH  25  27
ENDBRANCH   6  25
TORSDOF 11
