REMARK  Name = Baclofen
REMARK  6 active torsions:
REMARK  status: ('A' for Active; 'I' for Inactive)
REMARK    1  A    between atoms: N_1  and  C_2
REMARK    2  A    between atoms: C_2  and  C_3
REMARK    3  A    between atoms: C_3  and  C_4
REMARK    4  A    between atoms: C_3  and  C_8
REMARK    5  A    between atoms: C_4  and  C_5
REMARK    6  A    between atoms: C_5  and  O_6
REMARK                            x       y       z     vdW  Elec       q    Type
REMARK                         _______ _______ _______ _____ _____    ______ ____
ROOT
ATOM      1  C   UNL     1       2.872   1.138   0.766  0.00  0.00    +0.000 C 
ENDROOT
BRANCH   1   2
ATOM      2  C   UNL     1       4.408   1.152   0.787  0.00  0.00    +0.000 A 
ATOM      3  C   UNL     1       5.164  -0.011   0.546  0.00  0.00    +0.000 A 
ATOM      4  C   UNL     1       6.557   0.008   0.561  0.00  0.00    +0.000 A 
ATOM      5  C   UNL     1       7.224   1.193   0.833  0.00  0.00    +0.000 A 
ATOM      6 CL   UNL     1       8.943   1.202   0.876  0.00  0.00    +0.000 Cl
ATOM      7  C   UNL     1       6.506   2.362   1.074  0.00  0.00    +0.000 A 
ATOM      8  C   UNL     1       5.104   2.344   1.052  0.00  0.00    +0.000 A 
ENDBRANCH   1   2
BRANCH   1   9
ATOM      9  C   UNL     1       2.347  -0.066  -0.060  0.00  0.00    +0.000 C 
BRANCH   9  10
ATOM     10  N   UNL     1       0.900  -0.059  -0.265  0.00  0.00    +0.000 NA
ATOM     11  H   UNL     1       0.616  -1.026  -0.478  0.00  0.00    +0.000 HD
ATOM     12  H   UNL     1       0.659   0.449  -1.121  0.00  0.00    +0.000 HD
ENDBRANCH   9  10
ENDBRANCH   1   9
BRANCH   1  13
ATOM     13  C   UNL     1       2.319   1.141   2.210  0.00  0.00    +0.000 C 
BRANCH  13  14
ATOM     14  C   UNL     1       0.821   1.259   2.442  0.00  0.00    +0.000 C 
ATOM     15  O   UNL     1       0.312   1.075   3.544  0.00  0.00    +0.000 OA
BRANCH  14  16
ATOM     16  O   UNL     1       0.086   1.699   1.408  0.00  0.00    +0.000 OA
ATOM     17  H   UNL     1       0.465   1.342   0.574  0.00  0.00    +0.000 HD
ENDBRANCH  14  16
ENDBRANCH  13  14
ENDBRANCH   1  13
TORSDOF 6
