REMARK  Name = Baloxavir marboxil
REMARK  7 active torsions:
REMARK  status: ('A' for Active; 'I' for Inactive)
REMARK    1  A    between atoms: C_11  and  O_12
REMARK    2  A    between atoms: O_12  and  C_13
REMARK    3  A    between atoms: C_13  and  O_14
REMARK    4  A    between atoms: O_14  and  C_15
REMARK    5  A    between atoms: C_15  and  O_17
REMARK    6  A    between atoms: O_17  and  C_18
REMARK    7  A    between atoms: N_24  and  C_25
REMARK                            x       y       z     vdW  Elec       q    Type
REMARK                         _______ _______ _______ _____ _____    ______ ____
ROOT
ATOM      1  C   UNL     1       2.950   4.089  -2.178  0.00  0.00    +0.000 C 
ATOM      2  C   UNL     1       2.256   4.885  -1.115  0.00  0.00    +0.000 C 
ATOM      3  O   UNL     1       1.040   5.445  -0.664  0.00  0.00    +0.000 OA
ATOM      4  C   UNL     1       0.003   5.465  -1.583  0.00  0.00    +0.000 C 
ATOM      5  C   UNL     1       0.463   5.081  -2.975  0.00  0.00    +0.000 C 
ATOM      6  N   UNL     1       1.801   4.360  -3.235  0.00  0.00    +0.000 N 
ATOM      7  C   UNL     1       2.154   4.367  -4.546  0.00  0.00    +0.000 C 
ATOM      8  O   UNL     1       1.717   5.170  -5.366  0.00  0.00    +0.000 OA
ATOM      9  C   UNL     1       2.923   3.107  -4.781  0.00  0.00    +0.000 A 
ATOM     10  C   UNL     1       2.921   2.770  -6.120  0.00  0.00    +0.000 A 
ATOM     11  C   UNL     1       3.592   1.475  -6.395  0.00  0.00    +0.000 A 
ATOM     12  O   UNL     1       3.756   1.031  -7.525  0.00  0.00    +0.000 OA
ATOM     13  C   UNL     1       4.122   0.673  -5.293  0.00  0.00    +0.000 A 
ATOM     14  C   UNL     1       3.991   1.043  -4.037  0.00  0.00    +0.000 A 
ATOM     15  N   UNL     1       3.398   2.161  -3.617  0.00  0.00    +0.000 N 
ATOM     16  N   UNL     1       3.958   2.533  -2.118  0.00  0.00    +0.000 N 
ENDROOT
BRANCH  16  17
ATOM     17  C   UNL     1       4.421   1.175  -0.807  0.00  0.00    +0.000 C 
ATOM     18  C   UNL     1       5.876  -0.288  -0.234  0.00  0.00    +0.000 A 
ATOM     19  C   UNL     1       6.767  -1.768   0.127  0.00  0.00    +0.000 A 
ATOM     20  C   UNL     1       6.859  -3.366   0.949  0.00  0.00    +0.000 A 
ATOM     21  C   UNL     1       5.751  -3.813   1.519  0.00  0.00    +0.000 A 
ATOM     22  F   UNL     1       5.353  -5.089   1.719  0.00  0.00    +0.000 F 
ATOM     23  C   UNL     1       5.000  -2.691   1.560  0.00  0.00    +0.000 A 
ATOM     24  F   UNL     1       3.726  -2.910   1.894  0.00  0.00    +0.000 F 
ATOM     25  C   UNL     1       5.225  -1.107   0.909  0.00  0.00    +0.000 A 
ATOM     26  C   UNL     1       5.161  -0.383   2.255  0.00  0.00    +0.000 C 
ATOM     27  S   UNL     1       3.504   0.016   1.821  0.00  0.00    +0.000 S 
ATOM     28  C   UNL     1       4.063   1.627   1.659  0.00  0.00    +0.000 A 
ATOM     29  C   UNL     1       4.045   2.283   2.877  0.00  0.00    +0.000 A 
ATOM     30  C   UNL     1       3.143   3.269   3.153  0.00  0.00    +0.000 A 
ATOM     31  C   UNL     1       2.519   3.796   2.103  0.00  0.00    +0.000 A 
ATOM     32  C   UNL     1       3.036   3.324   0.861  0.00  0.00    +0.000 A 
ATOM     33  C   UNL     1       3.796   2.155   0.494  0.00  0.00    +0.000 A 
ENDBRANCH  16  17
BRANCH  10  34
ATOM     34  O   UNL     1       2.365   3.522  -7.192  0.00  0.00    +0.000 OA
BRANCH  34  35
ATOM     35  C   UNL     1       2.524   3.045  -8.573  0.00  0.00    +0.000 C 
BRANCH  35  36
ATOM     36  O   UNL     1       1.927   3.944  -9.553  0.00  0.00    +0.000 OA
BRANCH  36  37
ATOM     37  C   UNL     1       2.048   3.558 -10.864  0.00  0.00    +0.000 C 
ATOM     38  O   UNL     1       2.603   2.544 -11.260  0.00  0.00    +0.000 OA
BRANCH  37  39
ATOM     39  O   UNL     1       1.451   4.483 -11.680  0.00  0.00    +0.000 OA
ATOM     40  C   UNL     1       1.502   4.206 -13.094  0.00  0.00    +0.000 C 
ENDBRANCH  37  39
ENDBRANCH  36  37
ENDBRANCH  35  36
ENDBRANCH  34  35
ENDBRANCH  10  34
TORSDOF 6
