REMARK  Name = Balsalazide
REMARK  10 active torsions:
REMARK  status: ('A' for Active; 'I' for Inactive)
REMARK    1  A    between atoms: O_1  and  C_2
REMARK    2  A    between atoms: C_2  and  C_4
REMARK    3  A    between atoms: C_4  and  C_5
REMARK    4  A    between atoms: C_5  and  N_6
REMARK    5  A    between atoms: C_7  and  C_9
REMARK    6  A    between atoms: C_12  and  N_15
REMARK    7  A    between atoms: N_16  and  C_17
REMARK    8  A    between atoms: C_20  and  O_21
REMARK    9  A    between atoms: C_22  and  C_24
REMARK   10  A    between atoms: C_24  and  O_25
REMARK                            x       y       z     vdW  Elec       q    Type
REMARK                         _______ _______ _______ _____ _____    ______ ____
ROOT
ATOM      1  C   UNL     1       7.651   0.696   3.485  0.00  0.00    +0.000 A 
ATOM      2  C   UNL     1       8.830   1.453   3.507  0.00  0.00    +0.000 A 
ATOM      3  C   UNL     1       9.620   1.523   4.679  0.00  0.00    +0.000 A 
ATOM      4  C   UNL     1       9.235   0.898   5.879  0.00  0.00    +0.000 A 
ATOM      5  C   UNL     1       8.047   0.145   5.832  0.00  0.00    +0.000 A 
ATOM      6  C   UNL     1       7.266   0.041   4.656  0.00  0.00    +0.000 A 
ENDROOT
BRANCH   1   8
ATOM      7  N   UNL     1       5.534   0.421   2.232  0.00  0.00    +0.000 N 
ATOM      8  C   UNL     1       6.922   0.474   2.193  0.00  0.00    +0.000 C 
ATOM      9  O   UNL     1       7.569   0.333   1.160  0.00  0.00    +0.000 OA
ATOM     10  H   UNL     1       5.056   0.639   3.094  0.00  0.00    +0.000 HD
BRANCH   7  11
ATOM     11  C   UNL     1       4.760   0.185   1.009  0.00  0.00    +0.000 C 
BRANCH  11  12
ATOM     12  C   UNL     1       3.240   0.225   1.212  0.00  0.00    +0.000 C 
BRANCH  12  13
ATOM     13  C   UNL     1       2.530  -0.041  -0.099  0.00  0.00    +0.000 C 
ATOM     14  O   UNL     1       3.093  -0.259  -1.162  0.00  0.00    +0.000 OA
BRANCH  13  15
ATOM     15  O   UNL     1       1.180  -0.024  -0.013  0.00  0.00    +0.000 OA
ATOM     16  H   UNL     1       0.799   0.157   0.865  0.00  0.00    +0.000 HD
ENDBRANCH  13  15
ENDBRANCH  12  13
ENDBRANCH  11  12
ENDBRANCH   7  11
ENDBRANCH   1   8
BRANCH   4  17
ATOM     17  N   UNL     1      10.044   1.095   7.047  0.00  0.00    +0.000 NA
ATOM     18  N   UNL     1       9.608   0.529   8.078  0.00  0.00    +0.000 NA
BRANCH  18  19
ATOM     19  C   UNL     1      10.316   0.840   9.276  0.00  0.00    +0.000 A 
ATOM     20  C   UNL     1      10.493  -0.174  10.234  0.00  0.00    +0.000 A 
ATOM     21  C   UNL     1      11.022   0.091  11.511  0.00  0.00    +0.000 A 
ATOM     22  C   UNL     1      11.446   1.378  11.835  0.00  0.00    +0.000 A 
ATOM     23  C   UNL     1      11.282   2.418  10.913  0.00  0.00    +0.000 A 
ATOM     24  C   UNL     1      10.717   2.135   9.642  0.00  0.00    +0.000 A 
BRANCH  22  25
ATOM     25  O   UNL     1      12.021   1.622  13.058  0.00  0.00    +0.000 OA
ATOM     26  H   UNL     1      12.181   0.775  13.519  0.00  0.00    +0.000 HD
ENDBRANCH  22  25
BRANCH  23  27
ATOM     27  C   UNL     1      11.630   3.838  11.217  0.00  0.00    +0.000 C 
ATOM     28  O   UNL     1      11.445   4.736  10.402  0.00  0.00    +0.000 OA
BRANCH  27  29
ATOM     29  O   UNL     1      12.137   4.087  12.442  0.00  0.00    +0.000 OA
ATOM     30  H   UNL     1      12.231   3.278  12.993  0.00  0.00    +0.000 HD
ENDBRANCH  27  29
ENDBRANCH  23  27
ENDBRANCH  18  19
ENDBRANCH   4  17
TORSDOF 10
