REMARK  Name = Baricitinib
REMARK  7 active torsions:
REMARK  status: ('A' for Active; 'I' for Inactive)
REMARK    1  A    between atoms: C_1  and  C_2
REMARK    2  A    between atoms: C_2  and  S_3
REMARK    3  A    between atoms: S_3  and  N_6
REMARK    4  A    between atoms: C_8  and  C_9
REMARK    5  A    between atoms: C_8  and  N_13
REMARK    6  A    between atoms: C_9  and  C_10
REMARK    7  A    between atoms: C_15  and  C_18
REMARK                            x       y       z     vdW  Elec       q    Type
REMARK                         _______ _______ _______ _____ _____    ______ ____
ROOT
ATOM      1  N   UNL     1       7.908  -1.549   1.330  0.00  0.00    +0.000 N 
ATOM      2  C   UNL     1       8.063  -0.848   2.509  0.00  0.00    +0.000 A 
ATOM      3  C   UNL     1       9.327  -0.243   2.455  0.00  0.00    +0.000 A 
ATOM      4  C   UNL     1       9.975  -1.026   1.435  0.00  0.00    +0.000 A 
ATOM      5  N   UNL     1       9.120  -1.795   0.755  0.00  0.00    +0.000 NA
ENDROOT
BRANCH   3   6
ATOM      6  C   UNL     1       9.446   1.281   2.400  0.00  0.00    +0.000 A 
ATOM      7  C   UNL     1       8.775   2.183   3.287  0.00  0.00    +0.000 A 
ATOM      8  C   UNL     1       9.074   3.533   3.750  0.00  0.00    +0.000 A 
ATOM      9  C   UNL     1       7.883   4.191   4.030  0.00  0.00    +0.000 A 
ATOM     10  N   UNL     1       6.864   3.329   3.709  0.00  0.00    +0.000 N 
ATOM     11  C   UNL     1       7.415   2.311   2.991  0.00  0.00    +0.000 A 
ATOM     12  N   UNL     1       6.785   1.751   1.947  0.00  0.00    +0.000 NA
ATOM     13  C   UNL     1       7.700   1.465   0.999  0.00  0.00    +0.000 A 
ATOM     14  N   UNL     1       9.042   1.545   1.119  0.00  0.00    +0.000 NA
ATOM     15  H   UNL     1       5.887   3.567   3.625  0.00  0.00    +0.000 HD
ENDBRANCH   3   6
BRANCH   1  18
ATOM     16  N   UNL     1       4.835  -1.199   1.164  0.00  0.00    +0.000 NA
ATOM     17  C   UNL     1       5.551  -2.303   1.935  0.00  0.00    +0.000 C 
ATOM     18  C   UNL     1       6.719  -2.292   0.914  0.00  0.00    +0.000 C 
ATOM     19  C   UNL     1       5.644  -1.621  -0.031  0.00  0.00    +0.000 C 
BRANCH  16  20
ATOM     20  S   UNL     1       3.117  -1.132   1.264  0.00  0.00    +0.000 S 
ATOM     21  O   UNL     1       2.787  -0.530   2.528  0.00  0.00    +0.000 OA
ATOM     22  O   UNL     1       2.645  -2.471   0.928  0.00  0.00    +0.000 OA
BRANCH  20  24
ATOM     23  C   UNL     1       1.050   0.012  -0.099  0.00  0.00    +0.000 C 
ATOM     24  C   UNL     1       2.578  -0.027  -0.055  0.00  0.00    +0.000 C 
ENDBRANCH  20  24
ENDBRANCH  16  20
BRANCH  18  25
ATOM     25  C   UNL     1       7.317  -3.548   0.414  0.00  0.00    +0.000 C 
BRANCH  25  26
ATOM     26  C   UNL     1       6.295  -4.618   0.064  0.00  0.00    +0.000 C 
ATOM     27  N   UNL     1       5.447  -5.505  -0.225  0.00  0.00    +0.000 NA
ENDBRANCH  25  26
ENDBRANCH  18  25
ENDBRANCH   1  18
TORSDOF 6
