REMARK  Name = Barium sulfate
REMARK  0 active torsions:
REMARK  status: ('A' for Active; 'I' for Inactive)
REMARK                            x       y       z     vdW  Elec       q    Type
REMARK                         _______ _______ _______ _____ _____    ______ ____
ROOT
ATOM      1 BA   UNL     1       0.920  -0.054   0.025  0.00  0.00    +0.000 Ba
ENDROOT
TORSDOF 0
REMARK  Name = Barium sulfate
REMARK  0 active torsions:
REMARK  status: ('A' for Active; 'I' for Inactive)
REMARK                            x       y       z     vdW  Elec       q    Type
REMARK                         _______ _______ _______ _____ _____    ______ ____
ROOT
ATOM      1  O   UNL     1       1.082   0.054   0.021  0.00  0.00    +0.000 OA
ATOM      2  S   UNL     1       2.792   0.054   0.021  0.00  0.00    +0.000 S 
ATOM      3  O   UNL     1       3.362   1.429  -0.821  0.00  0.00    +0.000 OA
ATOM      4  O   UNL     1       3.302   0.092   1.464  0.00  0.00    +0.000 OA
ATOM      5  O   UNL     1       3.302  -1.214  -0.668  0.00  0.00    +0.000 OA
ENDROOT
TORSDOF 0
