REMARK  Name = Beclomethasone dipropionate
REMARK  14 active torsions:
REMARK  status: ('A' for Active; 'I' for Inactive)
REMARK    1  A    between atoms: C_4  and  C_5
REMARK    2  A    between atoms: C_6  and  O_7
REMARK    3  A    between atoms: C_6  and  C_12
REMARK    4  A    between atoms: O_7  and  C_8
REMARK    5  A    between atoms: C_8  and  C_10
REMARK    6  A    between atoms: C_10  and  C_11
REMARK    7  A    between atoms: C_12  and  C_14
REMARK    8  A    between atoms: C_14  and  O_15
REMARK    9  A    between atoms: O_15  and  C_16
REMARK   10  A    between atoms: C_16  and  C_18
REMARK   11  A    between atoms: C_18  and  C_19
REMARK   12  A    between atoms: C_20  and  C_21
REMARK   13  A    between atoms: C_23  and  O_24
REMARK   14  A    between atoms: C_37  and  C_38
REMARK                            x       y       z     vdW  Elec       q    Type
REMARK                         _______ _______ _______ _____ _____    ______ ____
ROOT
ATOM      1  C   UNL     1       1.963  -0.015   0.057  0.00  0.00    +0.000 C 
ATOM      2  C   UNL     1       2.470   1.417   0.000  0.00  0.00    +0.000 C 
ATOM      3  C   UNL     1       2.451   1.886   1.494  0.00  0.00    +0.000 C 
ATOM      4  C   UNL     1       3.608   2.862   1.717  0.00  0.00    +0.000 C 
ATOM      5  C   UNL     1       2.395   0.566   2.420  0.00  0.00    +0.000 C 
ATOM      6  C   UNL     1       2.651  -0.567   1.332  0.00  0.00    +0.000 C 
ATOM      7  C   UNL     1       4.200  -0.672   1.152  0.00  0.00    +0.000 C 
ATOM      8  C   UNL     1       2.015  -1.944   1.615  0.00  0.00    +0.000 C 
ATOM      9  C   UNL     1       2.160  -2.949   0.458  0.00  0.00    +0.000 C 
ATOM     10  C   UNL     1       1.708  -2.386  -0.925  0.00  0.00    +0.000 C 
ATOM     11 CL   UNL     1      -0.158  -2.335  -0.770  0.00  0.00    +0.000 Cl
ATOM     12  C   UNL     1       2.203  -0.914  -1.180  0.00  0.00    +0.000 C 
ATOM     13  C   UNL     1       1.570  -0.330  -2.465  0.00  0.00    +0.000 C 
ATOM     14  C   UNL     1       1.694  -1.245  -3.694  0.00  0.00    +0.000 C 
ATOM     15  C   UNL     1       1.370  -2.692  -3.393  0.00  0.00    +0.000 C 
ATOM     16  C   UNL     1       0.448  -3.369  -4.102  0.00  0.00    +0.000 C 
ATOM     17  C   UNL     1       0.049  -4.750  -3.746  0.00  0.00    +0.000 C 
ATOM     18  O   UNL     1      -0.854  -5.327  -4.345  0.00  0.00    +0.000 OA
ATOM     19  C   UNL     1       0.772  -5.411  -2.644  0.00  0.00    +0.000 C 
ATOM     20  C   UNL     1       1.687  -4.742  -1.933  0.00  0.00    +0.000 C 
ATOM     21  C   UNL     1       2.081  -3.293  -2.173  0.00  0.00    +0.000 C 
ATOM     22  C   UNL     1       3.592  -3.336  -2.525  0.00  0.00    +0.000 C 
ENDROOT
BRANCH   5  23
ATOM     23  C   UNL     1       3.467   0.396   3.532  0.00  0.00    +0.000 C 
ATOM     24  O   UNL     1       4.246   1.306   3.824  0.00  0.00    +0.000 OA
BRANCH  23  25
ATOM     25  C   UNL     1       3.506  -0.948   4.309  0.00  0.00    +0.000 C 
BRANCH  25  26
ATOM     26  O   UNL     1       4.237  -0.660   5.532  0.00  0.00    +0.000 OA
BRANCH  26  27
ATOM     27  C   UNL     1       3.938  -1.359   6.650  0.00  0.00    +0.000 C 
ATOM     28  O   UNL     1       3.035  -2.199   6.703  0.00  0.00    +0.000 OA
BRANCH  27  29
ATOM     29  C   UNL     1       4.850  -0.991   7.805  0.00  0.00    +0.000 C 
ATOM     30  C   UNL     1       4.704  -2.003   8.934  0.00  0.00    +0.000 C 
ENDBRANCH  27  29
ENDBRANCH  26  27
ENDBRANCH  25  26
ENDBRANCH  23  25
ENDBRANCH   5  23
BRANCH   9  31
ATOM     31  O   UNL     1       3.465  -3.519   0.499  0.00  0.00    +0.000 OA
ATOM     32  H   UNL     1       4.106  -2.941   0.065  0.00  0.00    +0.000 HD
ENDBRANCH   9  31
BRANCH   5  33
ATOM     33  O   UNL     1       1.027   0.474   2.969  0.00  0.00    +0.000 OA
BRANCH  33  34
ATOM     34  C   UNL     1       0.517   0.568   4.237  0.00  0.00    +0.000 C 
ATOM     35  O   UNL     1      -0.684   0.372   4.412  0.00  0.00    +0.000 OA
BRANCH  34  36
ATOM     36  C   UNL     1       1.427   0.815   5.426  0.00  0.00    +0.000 C 
ATOM     37  C   UNL     1       0.924   0.504   6.818  0.00  0.00    +0.000 C 
ENDBRANCH  34  36
ENDBRANCH  33  34
ENDBRANCH   5  33
TORSDOF 9
