REMARK  Name = Bedaquiline
REMARK  12 active torsions:
REMARK  status: ('A' for Active; 'I' for Inactive)
REMARK    1  A    between atoms: C_1  and  O_2
REMARK    2  A    between atoms: O_2  and  C_3
REMARK    3  A    between atoms: C_13  and  C_14
REMARK    4  A    between atoms: C_14  and  C_15
REMARK    5  A    between atoms: C_14  and  C_21
REMARK    6  A    between atoms: C_21  and  O_22
REMARK    7  A    between atoms: C_21  and  C_23
REMARK    8  A    between atoms: C_21  and  C_28
REMARK    9  A    between atoms: C_23  and  C_24
REMARK   10  A    between atoms: C_24  and  N_25
REMARK   11  A    between atoms: N_25  and  C_26
REMARK   12  A    between atoms: N_25  and  C_27
REMARK                            x       y       z     vdW  Elec       q    Type
REMARK                         _______ _______ _______ _____ _____    ______ ____
ROOT
ATOM      1  C   UNL     1       1.654   0.058   2.744  0.00  0.00    +0.000 C 
ENDROOT
BRANCH   1  12
ATOM      2  C   UNL     1       3.146   0.902   0.809  0.00  0.00    +0.000 A 
ATOM      3  N   UNL     1       4.240   1.587   0.369  0.00  0.00    +0.000 NA
ATOM      4  C   UNL     1       4.933   2.397   1.224  0.00  0.00    +0.000 A 
ATOM      5  C   UNL     1       4.628   2.489   2.564  0.00  0.00    +0.000 A 
ATOM      6  C   UNL     1       5.186   3.473   3.438  0.00  0.00    +0.000 A 
ATOM      7  C   UNL     1       6.111   4.372   2.949  0.00  0.00    +0.000 A 
ATOM      8 BR   UNL     1       6.710   5.840   3.978  0.00  0.00    +0.000 Br
ATOM      9  C   UNL     1       6.598   4.155   1.676  0.00  0.00    +0.000 A 
ATOM     10  C   UNL     1       6.018   3.171   0.846  0.00  0.00    +0.000 A 
ATOM     11  C   UNL     1       3.708   1.552   2.986  0.00  0.00    +0.000 A 
ATOM     12  C   UNL     1       2.825   0.853   2.152  0.00  0.00    +0.000 A 
BRANCH   2  14
ATOM     13  C   UNL     1       1.118   0.184  -0.234  0.00  0.00    +0.000 C 
ATOM     14  O   UNL     1       2.536   0.134  -0.149  0.00  0.00    +0.000 OA
ENDBRANCH   2  14
ENDBRANCH   1  12
BRANCH   1  15
ATOM     15  C   UNL     1       1.922  -1.379   2.430  0.00  0.00    +0.000 A 
ATOM     16  C   UNL     1       1.112  -2.189   1.625  0.00  0.00    +0.000 A 
ATOM     17  C   UNL     1       1.453  -3.514   1.450  0.00  0.00    +0.000 A 
ATOM     18  C   UNL     1       2.592  -4.021   2.077  0.00  0.00    +0.000 A 
ATOM     19  C   UNL     1       3.361  -3.222   2.922  0.00  0.00    +0.000 A 
ATOM     20  C   UNL     1       3.050  -1.900   3.064  0.00  0.00    +0.000 A 
ENDBRANCH   1  15
BRANCH   1  21
ATOM     21  C   UNL     1       1.263   0.202   4.263  0.00  0.00    +0.000 C 
BRANCH  21  22
ATOM     22  C   UNL     1       0.234  -0.996   4.763  0.00  0.00    +0.000 A 
ATOM     23  C   UNL     1      -1.004  -0.240   5.043  0.00  0.00    +0.000 A 
ATOM     24  C   UNL     1      -2.058  -0.848   5.633  0.00  0.00    +0.000 A 
ATOM     25  C   UNL     1      -1.977  -2.205   5.568  0.00  0.00    +0.000 A 
ATOM     26  C   UNL     1      -0.831  -3.010   5.122  0.00  0.00    +0.000 A 
ATOM     27  C   UNL     1       0.506  -2.674   4.975  0.00  0.00    +0.000 A 
ATOM     28  C   UNL     1       1.226  -4.354   5.060  0.00  0.00    +0.000 A 
ATOM     29  C   UNL     1       0.539  -5.519   4.660  0.00  0.00    +0.000 A 
ATOM     30  C   UNL     1      -0.233  -4.859   3.849  0.00  0.00    +0.000 A 
ATOM     31  C   UNL     1      -1.162  -4.234   4.661  0.00  0.00    +0.000 A 
ENDBRANCH  21  22
BRANCH  21  32
ATOM     32  O   UNL     1       2.218   0.024   5.292  0.00  0.00    +0.000 OA
ATOM     33  H   UNL     1       3.090   0.291   5.015  0.00  0.00    +0.000 HD
ENDBRANCH  21  32
BRANCH  21  34
ATOM     34  C   UNL     1       0.744   1.829   4.365  0.00  0.00    +0.000 C 
BRANCH  34  35
ATOM     35  C   UNL     1       1.719   2.975   3.981  0.00  0.00    +0.000 C 
BRANCH  35  36
ATOM     36  N   UNL     1       1.424   4.403   4.111  0.00  0.00    +0.000 NA
ATOM     37  C   UNL     1       1.245   4.640   5.536  0.00  0.00    +0.000 C 
ATOM     38  C   UNL     1       2.605   5.178   3.651  0.00  0.00    +0.000 C 
ENDBRANCH  35  36
ENDBRANCH  34  35
ENDBRANCH  21  34
ENDBRANCH   1  21
TORSDOF 9
