REMARK  Name = Belinostat
REMARK  6 active torsions:
REMARK  status: ('A' for Active; 'I' for Inactive)
REMARK    1  A    between atoms: O_1  and  N_2
REMARK    2  A    between atoms: C_3  and  C_5
REMARK    3  A    between atoms: C_6  and  C_7
REMARK    4  A    between atoms: C_11  and  S_13
REMARK    5  A    between atoms: S_13  and  N_16
REMARK    6  A    between atoms: N_16  and  C_17
REMARK                            x       y       z     vdW  Elec       q    Type
REMARK                         _______ _______ _______ _____ _____    ______ ____
ROOT
ATOM      1  C   UNL     1       6.799   2.224  -0.737  0.00  0.00    +0.000 A 
ATOM      2  C   UNL     1       7.528   3.326  -0.273  0.00  0.00    +0.000 A 
ATOM      3  C   UNL     1       8.917   3.384  -0.445  0.00  0.00    +0.000 A 
ATOM      4  C   UNL     1       9.596   2.317  -1.038  0.00  0.00    +0.000 A 
ATOM      5  C   UNL     1       8.874   1.212  -1.507  0.00  0.00    +0.000 A 
ATOM      6  C   UNL     1       7.486   1.172  -1.358  0.00  0.00    +0.000 A 
ENDROOT
BRANCH   5   7
ATOM      7  S   UNL     1       9.781  -0.086  -2.332  0.00  0.00    +0.000 S 
ATOM      8  O   UNL     1      10.333   0.508  -3.528  0.00  0.00    +0.000 OA
ATOM      9  O   UNL     1      10.628  -0.681  -1.316  0.00  0.00    +0.000 OA
BRANCH   7  10
ATOM     10  N   UNL     1       8.644  -1.237  -2.799  0.00  0.00    +0.000 N 
ATOM     11  H   UNL     1       7.654  -1.048  -2.744  0.00  0.00    +0.000 HD
BRANCH  10  12
ATOM     12  C   UNL     1       9.033  -2.367  -3.574  0.00  0.00    +0.000 A 
ATOM     13  C   UNL     1       8.259  -2.729  -4.682  0.00  0.00    +0.000 A 
ATOM     14  C   UNL     1       8.544  -3.906  -5.382  0.00  0.00    +0.000 A 
ATOM     15  C   UNL     1       9.634  -4.691  -5.011  0.00  0.00    +0.000 A 
ATOM     16  C   UNL     1      10.401  -4.333  -3.904  0.00  0.00    +0.000 A 
ATOM     17  C   UNL     1      10.090  -3.183  -3.178  0.00  0.00    +0.000 A 
ENDBRANCH  10  12
ENDBRANCH   7  10
ENDBRANCH   5   7
BRANCH   1  19
ATOM     18  C   UNL     1       4.594   1.128  -0.383  0.00  0.00    +0.000 C 
ATOM     19  C   UNL     1       5.327   2.215  -0.687  0.00  0.00    +0.000 C 
BRANCH  18  21
ATOM     20  N   UNL     1       2.504  -0.005  -0.081  0.00  0.00    +0.000 N 
ATOM     21  C   UNL     1       3.105   1.183  -0.424  0.00  0.00    +0.000 C 
ATOM     22  O   UNL     1       2.511   2.209  -0.749  0.00  0.00    +0.000 OA
ATOM     23  H   UNL     1       2.991  -0.851   0.192  0.00  0.00    +0.000 HD
BRANCH  20  24
ATOM     24  O   UNL     1       1.092  -0.011  -0.089  0.00  0.00    +0.000 OA
ATOM     25  H   UNL     1       0.844  -0.905   0.201  0.00  0.00    +0.000 HD
ENDBRANCH  20  24
ENDBRANCH  18  21
ENDBRANCH   1  19
TORSDOF 6
