REMARK  Name = Belumosudil
REMARK  8 active torsions:
REMARK  status: ('A' for Active; 'I' for Inactive)
REMARK    1  A    between atoms: C_1  and  C_2
REMARK    2  A    between atoms: C_2  and  C_3
REMARK    3  A    between atoms: C_2  and  N_4
REMARK    4  A    between atoms: C_5  and  C_7
REMARK    5  A    between atoms: C_7  and  O_8
REMARK    6  A    between atoms: O_8  and  C_9
REMARK    7  A    between atoms: C_13  and  C_15
REMARK    8  A    between atoms: N_24  and  C_25
REMARK                            x       y       z     vdW  Elec       q    Type
REMARK                         _______ _______ _______ _____ _____    ______ ____
ROOT
ATOM      1  C   UNL     1       6.895   7.546  -0.185  0.00  0.00    +0.000 A 
ATOM      2  N   UNL     1       5.744   8.085  -0.538  0.00  0.00    +0.000 NA
ATOM      3  C   UNL     1       5.270   8.965   0.333  0.00  0.00    +0.000 A 
ATOM      4  C   UNL     1       5.301   8.855   1.702  0.00  0.00    +0.000 A 
ATOM      5  C   UNL     1       4.455   9.799   2.437  0.00  0.00    +0.000 A 
ATOM      6  C   UNL     1       4.161  11.039   1.838  0.00  0.00    +0.000 A 
ATOM      7  C   UNL     1       4.614  11.268   0.548  0.00  0.00    +0.000 A 
ATOM      8  C   UNL     1       5.088  10.202  -0.195  0.00  0.00    +0.000 A 
ATOM      9  C   UNL     1       6.335   7.898   2.017  0.00  0.00    +0.000 A 
ATOM     10  N   UNL     1       5.867   6.675   2.581  0.00  0.00    +0.000 N 
ATOM     11  N   UNL     1       7.298   7.577   1.096  0.00  0.00    +0.000 NA
ATOM     12  H   UNL     1       6.221   6.174   1.742  0.00  0.00    +0.000 HD
ENDROOT
BRANCH  10  13
ATOM     13  C   UNL     1       6.338   5.662   3.463  0.00  0.00    +0.000 A 
ATOM     14  C   UNL     1       7.589   5.032   3.391  0.00  0.00    +0.000 A 
ATOM     15  C   UNL     1       7.791   3.774   3.997  0.00  0.00    +0.000 A 
ATOM     16  C   UNL     1       6.738   3.247   4.757  0.00  0.00    +0.000 A 
ATOM     17  N   UNL     1       6.623   2.107   5.508  0.00  0.00    +0.000 N 
ATOM     18  N   UNL     1       5.408   1.933   6.064  0.00  0.00    +0.000 NA
ATOM     19  C   UNL     1       4.724   3.002   5.650  0.00  0.00    +0.000 A 
ATOM     20  C   UNL     1       5.510   3.879   4.879  0.00  0.00    +0.000 A 
ATOM     21  C   UNL     1       5.307   5.097   4.229  0.00  0.00    +0.000 A 
ATOM     22  H   UNL     1       7.341   1.418   5.698  0.00  0.00    +0.000 HD
ENDBRANCH  10  13
BRANCH   1  27
ATOM     23  C   UNL     1       7.028   4.034  -1.501  0.00  0.00    +0.000 A 
ATOM     24  C   UNL     1       8.183   4.023  -2.277  0.00  0.00    +0.000 A 
ATOM     25  C   UNL     1       8.902   5.208  -2.467  0.00  0.00    +0.000 A 
ATOM     26  C   UNL     1       8.476   6.410  -1.868  0.00  0.00    +0.000 A 
ATOM     27  C   UNL     1       7.358   6.418  -1.017  0.00  0.00    +0.000 A 
ATOM     28  C   UNL     1       6.628   5.221  -0.897  0.00  0.00    +0.000 A 
BRANCH  23  29
ATOM     29  O   UNL     1       6.423   2.831  -1.278  0.00  0.00    +0.000 OA
BRANCH  29  30
ATOM     30  C   UNL     1       5.002   2.833  -1.114  0.00  0.00    +0.000 C 
BRANCH  30  32
ATOM     31  N   UNL     1       3.174   1.257  -0.559  0.00  0.00    +0.000 N 
ATOM     32  C   UNL     1       4.543   1.474  -0.582  0.00  0.00    +0.000 C 
ATOM     33  O   UNL     1       5.350   0.612  -0.188  0.00  0.00    +0.000 OA
ATOM     34  H   UNL     1       2.540   2.011  -0.799  0.00  0.00    +0.000 HD
BRANCH  31  36
ATOM     35  C   UNL     1       1.089  -0.004  -0.069  0.00  0.00    +0.000 C 
ATOM     36  C   UNL     1       2.619  -0.021  -0.108  0.00  0.00    +0.000 C 
ATOM     37  C   UNL     1       3.072  -1.165  -1.018  0.00  0.00    +0.000 C 
ENDBRANCH  31  36
ENDBRANCH  30  32
ENDBRANCH  29  30
ENDBRANCH  23  29
ENDBRANCH   1  27
TORSDOF 6
