REMARK  Name = Belzutifan
REMARK  6 active torsions:
REMARK  status: ('A' for Active; 'I' for Inactive)
REMARK    1  A    between atoms: C_1  and  S_2
REMARK    2  A    between atoms: S_2  and  C_5
REMARK    3  A    between atoms: C_8  and  O_9
REMARK    4  A    between atoms: O_9  and  C_10
REMARK    5  A    between atoms: C_12  and  C_17
REMARK    6  A    between atoms: C_21  and  O_22
REMARK                            x       y       z     vdW  Elec       q    Type
REMARK                         _______ _______ _______ _____ _____    ______ ____
ROOT
ATOM      1  C   UNL     1       3.316   1.483   0.517  0.00  0.00    +0.000 A 
ATOM      2  C   UNL     1       2.645   2.601  -0.022  0.00  0.00    +0.000 A 
ATOM      3  C   UNL     1       3.003   3.908   0.316  0.00  0.00    +0.000 A 
ATOM      4  C   UNL     1       4.034   4.149   1.211  0.00  0.00    +0.000 A 
ATOM      5  C   UNL     1       4.706   3.031   1.728  0.00  0.00    +0.000 A 
ATOM      6  C   UNL     1       4.371   1.694   1.413  0.00  0.00    +0.000 A 
ATOM      7  C   UNL     1       5.321   0.739   2.117  0.00  0.00    +0.000 C 
ATOM      8  C   UNL     1       6.262   1.667   2.948  0.00  0.00    +0.000 C 
ATOM      9  F   UNL     1       6.139   1.410   4.282  0.00  0.00    +0.000 F 
ATOM     10  C   UNL     1       5.860   3.118   2.670  0.00  0.00    +0.000 C 
ATOM     11  F   UNL     1       5.517   3.747   3.824  0.00  0.00    +0.000 F 
ENDROOT
BRANCH   1  13
ATOM     12  C   UNL     1       0.979  -0.046  -0.034  0.00  0.00    +0.000 C 
ATOM     13  S   UNL     1       2.761  -0.118  -0.051  0.00  0.00    +0.000 S 
ATOM     14  O   UNL     1       3.139  -1.115   0.924  0.00  0.00    +0.000 OA
ATOM     15  O   UNL     1       3.191  -0.224  -1.433  0.00  0.00    +0.000 OA
ENDBRANCH   1  13
BRANCH   7  16
ATOM     16  O   UNL     1       4.668  -0.190   2.970  0.00  0.00    +0.000 OA
ATOM     17  H   UNL     1       4.134   0.291   3.622  0.00  0.00    +0.000 HD
ENDBRANCH   7  16
BRANCH   4  18
ATOM     18  O   UNL     1       4.470   5.411   1.577  0.00  0.00    +0.000 OA
BRANCH  18  19
ATOM     19  C   UNL     1       3.747   6.525   1.191  0.00  0.00    +0.000 A 
ATOM     20  C   UNL     1       4.420   7.555   0.520  0.00  0.00    +0.000 A 
ATOM     21  C   UNL     1       3.721   8.700   0.095  0.00  0.00    +0.000 A 
ATOM     22  C   UNL     1       2.351   8.809   0.343  0.00  0.00    +0.000 A 
ATOM     23  C   UNL     1       1.702   7.794   1.035  0.00  0.00    +0.000 A 
ATOM     24  F   UNL     1       0.385   7.889   1.255  0.00  0.00    +0.000 F 
ATOM     25  C   UNL     1       2.390   6.672   1.488  0.00  0.00    +0.000 A 
BRANCH  21  26
ATOM     26  C   UNL     1       4.397   9.756  -0.597  0.00  0.00    +0.000 C 
ATOM     27  N   UNL     1       4.932  10.625  -1.159  0.00  0.00    +0.000 NA
ENDBRANCH  21  26
ENDBRANCH  18  19
ENDBRANCH   4  18
TORSDOF 5
