REMARK  Name = Bemotrizinol
REMARK  25 active torsions:
REMARK  status: ('A' for Active; 'I' for Inactive)
REMARK    1  A    between atoms: C_1  and  C_2
REMARK    2  A    between atoms: C_2  and  C_3
REMARK    3  A    between atoms: C_3  and  C_4
REMARK    4  A    between atoms: C_4  and  C_5
REMARK    5  A    between atoms: C_5  and  C_6
REMARK    6  A    between atoms: C_5  and  C_8
REMARK    7  A    between atoms: C_6  and  C_7
REMARK    8  A    between atoms: C_8  and  O_9
REMARK    9  A    between atoms: O_9  and  C_10
REMARK   10  A    between atoms: C_12  and  O_13
REMARK   11  A    between atoms: C_14  and  C_17
REMARK   12  A    between atoms: C_19  and  C_31
REMARK   13  A    between atoms: C_21  and  C_23
REMARK   14  A    between atoms: C_26  and  O_27
REMARK   15  A    between atoms: O_27  and  C_28
REMARK   16  A    between atoms: C_32  and  O_33
REMARK   17  A    between atoms: C_35  and  O_36
REMARK   18  A    between atoms: O_36  and  C_37
REMARK   19  A    between atoms: C_37  and  C_38
REMARK   20  A    between atoms: C_38  and  C_39
REMARK   21  A    between atoms: C_38  and  C_41
REMARK   22  A    between atoms: C_39  and  C_40
REMARK   23  A    between atoms: C_41  and  C_42
REMARK   24  A    between atoms: C_42  and  C_43
REMARK   25  A    between atoms: C_43  and  C_44
REMARK                            x       y       z     vdW  Elec       q    Type
REMARK                         _______ _______ _______ _____ _____    ______ ____
ROOT
ATOM      1  C   UNL     1       4.953   8.738   0.103  0.00  0.00    +0.000 A 
ATOM      2  N   UNL     1       5.295   9.078   1.344  0.00  0.00    +0.000 NA
ATOM      3  C   UNL     1       4.767  10.202   1.796  0.00  0.00    +0.000 A 
ATOM      4  N   UNL     1       3.960  11.004   1.101  0.00  0.00    +0.000 NA
ATOM      5  C   UNL     1       3.678  10.561  -0.126  0.00  0.00    +0.000 A 
ATOM      6  N   UNL     1       4.109   9.425  -0.670  0.00  0.00    +0.000 NA
ENDROOT
BRANCH   3   7
ATOM      7  C   UNL     1       5.081  10.545   3.177  0.00  0.00    +0.000 A 
ATOM      8  C   UNL     1       6.397  10.684   3.651  0.00  0.00    +0.000 A 
ATOM      9  C   UNL     1       6.654  10.883   5.010  0.00  0.00    +0.000 A 
ATOM     10  C   UNL     1       5.600  10.941   5.926  0.00  0.00    +0.000 A 
ATOM     11  C   UNL     1       4.290  10.865   5.465  0.00  0.00    +0.000 A 
ATOM     12  C   UNL     1       4.036  10.664   4.108  0.00  0.00    +0.000 A 
BRANCH   8  13
ATOM     13  O   UNL     1       7.499  10.629   2.836  0.00  0.00    +0.000 OA
ATOM     14  H   UNL     1       7.224  10.395   1.931  0.00  0.00    +0.000 HD
ENDBRANCH   8  13
BRANCH  10  15
ATOM     15  O   UNL     1       5.953  11.021   7.242  0.00  0.00    +0.000 OA
BRANCH  15  16
ATOM     16  C   UNL     1       4.917  11.305   8.185  0.00  0.00    +0.000 C 
BRANCH  16  17
ATOM     17  C   UNL     1       5.535  11.634   9.557  0.00  0.00    +0.000 C 
BRANCH  17  18
ATOM     18  C   UNL     1       6.373  12.933   9.521  0.00  0.00    +0.000 C 
ATOM     19  C   UNL     1       7.553  12.902   8.568  0.00  0.00    +0.000 C 
ENDBRANCH  17  18
BRANCH  17  20
ATOM     20  C   UNL     1       4.408  11.741  10.609  0.00  0.00    +0.000 C 
BRANCH  20  21
ATOM     21  C   UNL     1       4.947  11.981  12.019  0.00  0.00    +0.000 C 
BRANCH  21  22
ATOM     22  C   UNL     1       3.830  12.098  13.046  0.00  0.00    +0.000 C 
ATOM     23  C   UNL     1       4.418  12.365  14.422  0.00  0.00    +0.000 C 
ENDBRANCH  21  22
ENDBRANCH  20  21
ENDBRANCH  17  20
ENDBRANCH  16  17
ENDBRANCH  15  16
ENDBRANCH  10  15
ENDBRANCH   3   7
BRANCH   5  24
ATOM     24  C   UNL     1       2.728  11.359  -0.904  0.00  0.00    +0.000 A 
ATOM     25  C   UNL     1       1.520  10.789  -1.331  0.00  0.00    +0.000 A 
ATOM     26  C   UNL     1       0.565  11.547  -2.014  0.00  0.00    +0.000 A 
ATOM     27  C   UNL     1       0.807  12.890  -2.297  0.00  0.00    +0.000 A 
ATOM     28  C   UNL     1       2.021  13.461  -1.909  0.00  0.00    +0.000 A 
ATOM     29  C   UNL     1       2.972  12.705  -1.212  0.00  0.00    +0.000 A 
BRANCH  27  30
ATOM     30  O   UNL     1      -0.057  13.736  -2.936  0.00  0.00    +0.000 OA
ATOM     31  C   UNL     1      -1.319  13.190  -3.303  0.00  0.00    +0.000 C 
ENDBRANCH  27  30
ENDBRANCH   5  24
BRANCH   1  35
ATOM     32  C   UNL     1       6.779   5.097  -1.202  0.00  0.00    +0.000 A 
ATOM     33  C   UNL     1       6.909   6.241  -1.989  0.00  0.00    +0.000 A 
ATOM     34  C   UNL     1       6.357   7.452  -1.548  0.00  0.00    +0.000 A 
ATOM     35  C   UNL     1       5.574   7.516  -0.389  0.00  0.00    +0.000 A 
ATOM     36  C   UNL     1       5.525   6.366   0.408  0.00  0.00    +0.000 A 
ATOM     37  C   UNL     1       6.277   5.234   0.085  0.00  0.00    +0.000 A 
BRANCH  34  38
ATOM     38  O   UNL     1       6.601   8.605  -2.244  0.00  0.00    +0.000 OA
ATOM     39  H   UNL     1       7.250   8.419  -2.941  0.00  0.00    +0.000 HD
ENDBRANCH  34  38
BRANCH  32  40
ATOM     40  O   UNL     1       6.999   3.891  -1.818  0.00  0.00    +0.000 OA
BRANCH  40  41
ATOM     41  C   UNL     1       6.419   2.693  -1.248  0.00  0.00    +0.000 C 
BRANCH  41  42
ATOM     42  C   UNL     1       4.845   2.532  -1.315  0.00  0.00    +0.000 C 
BRANCH  42  43
ATOM     43  C   UNL     1       4.106   3.674  -0.583  0.00  0.00    +0.000 C 
ATOM     44  C   UNL     1       2.623   3.988  -0.548  0.00  0.00    +0.000 C 
ENDBRANCH  42  43
BRANCH  42  45
ATOM     45  C   UNL     1       4.465   1.160  -0.718  0.00  0.00    +0.000 C 
BRANCH  45  46
ATOM     46  C   UNL     1       2.959   1.004  -0.698  0.00  0.00    +0.000 C 
BRANCH  46  48
ATOM     47  C   UNL     1       0.889  -0.122  -0.046  0.00  0.00    +0.000 C 
ATOM     48  C   UNL     1       2.409  -0.252  -0.076  0.00  0.00    +0.000 C 
ENDBRANCH  46  48
ENDBRANCH  45  46
ENDBRANCH  42  45
ENDBRANCH  41  42
ENDBRANCH  40  41
ENDBRANCH  32  40
ENDBRANCH   1  35
TORSDOF 20
