REMARK  Name = Bempedoic acid
REMARK  21 active torsions:
REMARK  status: ('A' for Active; 'I' for Inactive)
REMARK    1  A    between atoms: C_1  and  C_2
REMARK    2  A    between atoms: C_2  and  C_3
REMARK    3  A    between atoms: C_2  and  C_4
REMARK    4  A    between atoms: C_2  and  C_22
REMARK    5  A    between atoms: C_4  and  C_5
REMARK    6  A    between atoms: C_5  and  C_6
REMARK    7  A    between atoms: C_6  and  C_7
REMARK    8  A    between atoms: C_7  and  C_8
REMARK    9  A    between atoms: C_8  and  C_9
REMARK   10  A    between atoms: C_9  and  O_10
REMARK   11  A    between atoms: C_9  and  C_11
REMARK   12  A    between atoms: C_11  and  C_12
REMARK   13  A    between atoms: C_12  and  C_13
REMARK   14  A    between atoms: C_13  and  C_14
REMARK   15  A    between atoms: C_14  and  C_15
REMARK   16  A    between atoms: C_15  and  C_16
REMARK   17  A    between atoms: C_16  and  C_17
REMARK   18  A    between atoms: C_16  and  C_18
REMARK   19  A    between atoms: C_16  and  C_19
REMARK   20  A    between atoms: C_19  and  O_20
REMARK   21  A    between atoms: C_22  and  O_23
REMARK                            x       y       z     vdW  Elec       q    Type
REMARK                         _______ _______ _______ _____ _____    ______ ____
ROOT
ATOM      1  C   UNL     1       2.438  -3.771  -6.460  0.00  0.00    +0.000 C 
ENDROOT
BRANCH   1   2
ATOM      2  O   UNL     1       1.012  -3.780  -6.456  0.00  0.00    +0.000 OA
ATOM      3  H   UNL     1       0.706  -2.987  -6.927  0.00  0.00    +0.000 HD
ENDBRANCH   1   2
BRANCH   1   4
ATOM      4  C   UNL     1       2.952  -3.788  -7.887  0.00  0.00    +0.000 C 
BRANCH   4   5
ATOM      5  C   UNL     1       2.459  -5.027  -8.600  0.00  0.00    +0.000 C 
BRANCH   5   6
ATOM      6  C   UNL     1       2.976  -5.024 -10.023  0.00  0.00    +0.000 C 
BRANCH   6   7
ATOM      7  C   UNL     1       2.464  -6.268 -10.707  0.00  0.00    +0.000 C 
BRANCH   7   8
ATOM      8  C   UNL     1       2.948  -6.327 -12.147  0.00  0.00    +0.000 C 
BRANCH   8   9
ATOM      9  C   UNL     1       2.460  -7.577 -12.902  0.00  0.00    +0.000 C 
ATOM     10  C   UNL     1       2.967  -8.846 -12.189  0.00  0.00    +0.000 C 
ATOM     11  C   UNL     1       0.919  -7.601 -12.929  0.00  0.00    +0.000 C 
BRANCH   9  12
ATOM     12  C   UNL     1       2.950  -7.636 -14.357  0.00  0.00    +0.000 C 
ATOM     13  O   UNL     1       2.661  -8.560 -15.112  0.00  0.00    +0.000 OA
BRANCH  12  14
ATOM     14  O   UNL     1       3.724  -6.624 -14.797  0.00  0.00    +0.000 OA
ATOM     15  H   UNL     1       3.941  -5.903 -14.181  0.00  0.00    +0.000 HD
ENDBRANCH  12  14
ENDBRANCH   9  12
ENDBRANCH   8   9
ENDBRANCH   7   8
ENDBRANCH   6   7
ENDBRANCH   5   6
ENDBRANCH   4   5
ENDBRANCH   1   4
BRANCH   1  16
ATOM     16  C   UNL     1       2.952  -2.526  -5.763  0.00  0.00    +0.000 C 
BRANCH  16  17
ATOM     17  C   UNL     1       2.461  -2.488  -4.333  0.00  0.00    +0.000 C 
BRANCH  17  18
ATOM     18  C   UNL     1       2.979  -1.233  -3.654  0.00  0.00    +0.000 C 
BRANCH  18  19
ATOM     19  C   UNL     1       2.467  -1.218  -2.233  0.00  0.00    +0.000 C 
BRANCH  19  20
ATOM     20  C   UNL     1       2.933   0.022  -1.474  0.00  0.00    +0.000 C 
BRANCH  20  22
ATOM     21  C   UNL     1       0.877   0.031  -0.011  0.00  0.00    +0.000 C 
ATOM     22  C   UNL     1       2.414   0.059  -0.015  0.00  0.00    +0.000 C 
ATOM     23  C   UNL     1       2.938  -1.171   0.750  0.00  0.00    +0.000 C 
BRANCH  22  24
ATOM     24  C   UNL     1       3.001   1.308   0.659  0.00  0.00    +0.000 C 
ATOM     25  O   UNL     1       4.209   1.503   0.759  0.00  0.00    +0.000 OA
BRANCH  24  26
ATOM     26  O   UNL     1       2.129   2.209   1.153  0.00  0.00    +0.000 OA
ATOM     27  H   UNL     1       1.178   2.025   1.059  0.00  0.00    +0.000 HD
ENDBRANCH  24  26
ENDBRANCH  22  24
ENDBRANCH  20  22
ENDBRANCH  19  20
ENDBRANCH  18  19
ENDBRANCH  17  18
ENDBRANCH  16  17
ENDBRANCH   1  16
TORSDOF 17
