REMARK  Name = Benazepril
REMARK  12 active torsions:
REMARK  status: ('A' for Active; 'I' for Inactive)
REMARK    1  A    between atoms: C_2  and  N_18
REMARK    2  A    between atoms: N_11  and  C_12
REMARK    3  A    between atoms: C_12  and  C_13
REMARK    4  A    between atoms: C_13  and  O_14
REMARK    5  A    between atoms: N_18  and  C_19
REMARK    6  A    between atoms: C_19  and  C_20
REMARK    7  A    between atoms: C_19  and  C_28
REMARK    8  A    between atoms: C_20  and  C_21
REMARK    9  A    between atoms: C_21  and  C_22
REMARK   10  A    between atoms: C_28  and  O_30
REMARK   11  A    between atoms: O_30  and  C_31
REMARK   12  A    between atoms: C_31  and  C_32
REMARK                            x       y       z     vdW  Elec       q    Type
REMARK                         _______ _______ _______ _____ _____    ______ ____
ROOT
ATOM      1  C   UNL     1       2.082  -0.111   0.031  0.00  0.00    +0.000 C 
ATOM      2  C   UNL     1       2.513  -1.573  -0.173  0.00  0.00    +0.000 C 
ATOM      3  C   UNL     1       4.006  -1.726   0.042  0.00  0.00    +0.000 C 
ATOM      4  C   UNL     1       4.796  -1.321  -1.168  0.00  0.00    +0.000 A 
ATOM      5  C   UNL     1       5.335  -2.346  -1.977  0.00  0.00    +0.000 A 
ATOM      6  C   UNL     1       6.105  -2.047  -3.089  0.00  0.00    +0.000 A 
ATOM      7  C   UNL     1       6.349  -0.710  -3.391  0.00  0.00    +0.000 A 
ATOM      8  C   UNL     1       5.797   0.332  -2.594  0.00  0.00    +0.000 A 
ATOM      9  C   UNL     1       4.993   0.039  -1.470  0.00  0.00    +0.000 A 
ATOM     10  N   UNL     1       4.247   1.027  -0.712  0.00  0.00    +0.000 N 
ATOM     11  C   UNL     1       2.873   1.020  -0.714  0.00  0.00    +0.000 C 
ATOM     12  O   UNL     1       2.305   2.044  -1.124  0.00  0.00    +0.000 OA
ENDROOT
BRANCH   1  13
ATOM     13  N   UNL     1       0.600   0.004  -0.091  0.00  0.00    +0.000 NA
ATOM     14  H   UNL     1       0.162  -0.907   0.066  0.00  0.00    +0.000 HD
BRANCH  13  15
ATOM     15  C   UNL     1      -0.010   0.619  -1.302  0.00  0.00    +0.000 C 
BRANCH  15  16
ATOM     16  C   UNL     1      -1.559   0.565  -1.209  0.00  0.00    +0.000 C 
ATOM     17  O   UNL     1      -2.202  -0.005  -0.314  0.00  0.00    +0.000 OA
BRANCH  16  18
ATOM     18  O   UNL     1      -2.129   1.232  -2.258  0.00  0.00    +0.000 OA
BRANCH  18  19
ATOM     19  C   UNL     1      -3.563   1.237  -2.268  0.00  0.00    +0.000 C 
ATOM     20  C   UNL     1      -4.064   1.965  -3.505  0.00  0.00    +0.000 C 
ENDBRANCH  18  19
ENDBRANCH  16  18
ENDBRANCH  15  16
BRANCH  15  21
ATOM     21  C   UNL     1       0.388  -0.049  -2.634  0.00  0.00    +0.000 C 
BRANCH  21  22
ATOM     22  C   UNL     1       1.850  -0.004  -3.021  0.00  0.00    +0.000 C 
BRANCH  22  23
ATOM     23  C   UNL     1       2.351  -0.837  -4.139  0.00  0.00    +0.000 A 
ATOM     24  C   UNL     1       1.891  -2.135  -4.331  0.00  0.00    +0.000 A 
ATOM     25  C   UNL     1       2.626  -3.000  -5.122  0.00  0.00    +0.000 A 
ATOM     26  C   UNL     1       3.780  -2.550  -5.763  0.00  0.00    +0.000 A 
ATOM     27  C   UNL     1       4.194  -1.229  -5.634  0.00  0.00    +0.000 A 
ATOM     28  C   UNL     1       3.504  -0.387  -4.784  0.00  0.00    +0.000 A 
ENDBRANCH  22  23
ENDBRANCH  21  22
ENDBRANCH  15  21
ENDBRANCH  13  15
ENDBRANCH   1  13
BRANCH  10  29
ATOM     29  C   UNL     1       4.855   2.237  -0.151  0.00  0.00    +0.000 C 
BRANCH  29  30
ATOM     30  C   UNL     1       4.069   3.297   0.715  0.00  0.00    +0.000 C 
ATOM     31  O   UNL     1       4.676   4.169   1.337  0.00  0.00    +0.000 OA
BRANCH  30  32
ATOM     32  O   UNL     1       2.725   3.279   0.816  0.00  0.00    +0.000 OA
ATOM     33  H   UNL     1       2.231   2.862   0.071  0.00  0.00    +0.000 HD
ENDBRANCH  30  32
ENDBRANCH  29  30
ENDBRANCH  10  29
TORSDOF 11
