REMARK  Name = Bendamustine
REMARK  11 active torsions:
REMARK  status: ('A' for Active; 'I' for Inactive)
REMARK    1  A    between atoms: C_1  and  N_2
REMARK    2  A    between atoms: C_3  and  C_4
REMARK    3  A    between atoms: C_4  and  C_5
REMARK    4  A    between atoms: C_5  and  C_6
REMARK    5  A    between atoms: C_6  and  C_7
REMARK    6  A    between atoms: C_7  and  O_8
REMARK    7  A    between atoms: C_13  and  N_17
REMARK    8  A    between atoms: N_17  and  C_18
REMARK    9  A    between atoms: N_17  and  C_21
REMARK   10  A    between atoms: C_18  and  C_19
REMARK   11  A    between atoms: C_21  and  C_22
REMARK                            x       y       z     vdW  Elec       q    Type
REMARK                         _______ _______ _______ _____ _____    ______ ____
ROOT
ATOM      1  C   UNL     1      -2.292   1.749  -0.029  0.00  0.00    +0.000 C 
ATOM      2  N   UNL     1      -1.576   0.506   0.005  0.00  0.00    +0.000 N 
ATOM      3  C   UNL     1      -1.961  -0.830   0.004  0.00  0.00    +0.000 A 
ATOM      4  N   UNL     1      -0.898  -1.602   0.000  0.00  0.00    +0.000 NA
ATOM      5  C   UNL     1       0.160  -0.751   0.001  0.00  0.00    +0.000 A 
ATOM      6  C   UNL     1       1.509  -1.056  -0.010  0.00  0.00    +0.000 A 
ATOM      7  C   UNL     1       2.546  -0.115  -0.000  0.00  0.00    +0.000 A 
ATOM      8  C   UNL     1       2.094   1.221   0.004  0.00  0.00    +0.000 A 
ATOM      9  C   UNL     1       0.731   1.593   0.010  0.00  0.00    +0.000 A 
ATOM     10  C   UNL     1      -0.205   0.561   0.010  0.00  0.00    +0.000 A 
ENDROOT
BRANCH   3  11
ATOM     11  C   UNL     1      -3.333  -1.436   0.003  0.00  0.00    +0.000 C 
BRANCH  11  12
ATOM     12  C   UNL     1      -4.387  -0.371   0.019  0.00  0.00    +0.000 C 
BRANCH  12  13
ATOM     13  C   UNL     1      -5.822  -0.794   0.022  0.00  0.00    +0.000 C 
BRANCH  13  14
ATOM     14  C   UNL     1      -6.781   0.381   0.036  0.00  0.00    +0.000 C 
ATOM     15  O   UNL     1      -8.000   0.208   0.036  0.00  0.00    +0.000 OA
BRANCH  14  16
ATOM     16  O   UNL     1      -6.282   1.631   0.049  0.00  0.00    +0.000 OA
ATOM     17  H   UNL     1      -5.321   1.767   0.051  0.00  0.00    +0.000 HD
ENDBRANCH  14  16
ENDBRANCH  13  14
ENDBRANCH  12  13
ENDBRANCH  11  12
ENDBRANCH   3  11
BRANCH   7  18
ATOM     18  N   UNL     1       3.904  -0.454   0.004  0.00  0.00    +0.000 N 
BRANCH  18  19
ATOM     19  C   UNL     1       4.464  -1.845   0.015  0.00  0.00    +0.000 C 
BRANCH  19  20
ATOM     20  C   UNL     1       3.502  -3.012   0.003  0.00  0.00    +0.000 C 
ATOM     21 CL   UNL     1       4.236  -4.618   0.012  0.00  0.00    +0.000 Cl
ENDBRANCH  19  20
ENDBRANCH  18  19
BRANCH  18  22
ATOM     22  C   UNL     1       4.908   0.657   0.024  0.00  0.00    +0.000 C 
BRANCH  22  23
ATOM     23  C   UNL     1       6.371   0.198   0.039  0.00  0.00    +0.000 C 
ATOM     24 CL   UNL     1       7.501   1.571   0.055  0.00  0.00    +0.000 Cl
ENDBRANCH  22  23
ENDBRANCH  18  22
ENDBRANCH   7  18
TORSDOF 10
