REMARK  Name = Bendazac
REMARK  6 active torsions:
REMARK  status: ('A' for Active; 'I' for Inactive)
REMARK    1  A    between atoms: O_1  and  C_2
REMARK    2  A    between atoms: C_2  and  C_4
REMARK    3  A    between atoms: C_4  and  O_5
REMARK    4  A    between atoms: O_5  and  C_6
REMARK    5  A    between atoms: N_8  and  C_9
REMARK    6  A    between atoms: C_9  and  C_10
REMARK                            x       y       z     vdW  Elec       q    Type
REMARK                         _______ _______ _______ _____ _____    ______ ____
ROOT
ATOM      1  C   UNL     1       5.471   2.111  -0.293  0.00  0.00    +0.000 A 
ATOM      2  N   UNL     1       6.562   1.974  -1.039  0.00  0.00    +0.000 NA
ATOM      3  N   UNL     1       7.191   3.175  -0.956  0.00  0.00    +0.000 N 
ATOM      4  C   UNL     1       6.533   4.061  -0.125  0.00  0.00    +0.000 A 
ATOM      5  C   UNL     1       6.820   5.376   0.267  0.00  0.00    +0.000 A 
ATOM      6  C   UNL     1       5.930   5.989   1.156  0.00  0.00    +0.000 A 
ATOM      7  C   UNL     1       4.817   5.313   1.645  0.00  0.00    +0.000 A 
ATOM      8  C   UNL     1       4.555   4.002   1.256  0.00  0.00    +0.000 A 
ATOM      9  C   UNL     1       5.407   3.372   0.336  0.00  0.00    +0.000 A 
ENDROOT
BRANCH   1  10
ATOM     10  O   UNL     1       4.689   1.013  -0.191  0.00  0.00    +0.000 OA
BRANCH  10  11
ATOM     11  C   UNL     1       3.284   1.252  -0.176  0.00  0.00    +0.000 C 
BRANCH  11  12
ATOM     12  C   UNL     1       2.537  -0.060   0.062  0.00  0.00    +0.000 C 
ATOM     13  O   UNL     1       3.070  -1.147   0.271  0.00  0.00    +0.000 OA
BRANCH  12  14
ATOM     14  O   UNL     1       1.184   0.050   0.070  0.00  0.00    +0.000 OA
ATOM     15  H   UNL     1       0.802   0.932  -0.088  0.00  0.00    +0.000 HD
ENDBRANCH  12  14
ENDBRANCH  11  12
ENDBRANCH  10  11
ENDBRANCH   1  10
BRANCH   3  16
ATOM     16  C   UNL     1       8.431   3.468  -1.703  0.00  0.00    +0.000 C 
BRANCH  16  17
ATOM     17  C   UNL     1       8.920   2.304  -2.532  0.00  0.00    +0.000 A 
ATOM     18  C   UNL     1       8.102   1.779  -3.543  0.00  0.00    +0.000 A 
ATOM     19  C   UNL     1       8.331   0.493  -4.018  0.00  0.00    +0.000 A 
ATOM     20  C   UNL     1       9.477  -0.196  -3.630  0.00  0.00    +0.000 A 
ATOM     21  C   UNL     1      10.407   0.413  -2.791  0.00  0.00    +0.000 A 
ATOM     22  C   UNL     1      10.110   1.642  -2.203  0.00  0.00    +0.000 A 
ENDBRANCH  16  17
ENDBRANCH   3  16
TORSDOF 6
