REMARK  Name = Bendroflumethiazide
REMARK  5 active torsions:
REMARK  status: ('A' for Active; 'I' for Inactive)
REMARK    1  A    between atoms: N_1  and  S_2
REMARK    2  A    between atoms: S_2  and  C_5
REMARK    3  A    between atoms: C_10  and  C_11
REMARK    4  A    between atoms: C_11  and  C_12
REMARK    5  A    between atoms: C_23  and  C_24
REMARK                            x       y       z     vdW  Elec       q    Type
REMARK                         _______ _______ _______ _____ _____    ______ ____
ROOT
ATOM      1  C   UNL     1       3.337  -1.145  -1.255  0.00  0.00    +0.000 A 
ATOM      2  C   UNL     1       2.865  -2.459  -1.136  0.00  0.00    +0.000 A 
ATOM      3  C   UNL     1       3.248  -3.433  -2.060  0.00  0.00    +0.000 A 
ATOM      4  C   UNL     1       4.145  -3.202  -3.094  0.00  0.00    +0.000 A 
ATOM      5  N   UNL     1       4.699  -4.194  -3.883  0.00  0.00    +0.000 N 
ATOM      6  C   UNL     1       4.348  -5.599  -3.793  0.00  0.00    +0.000 C 
ATOM      7  N   UNL     1       3.961  -5.897  -2.428  0.00  0.00    +0.000 NA
ATOM      8  S   UNL     1       2.637  -5.048  -1.860  0.00  0.00    +0.000 S 
ATOM      9  O   UNL     1       2.536  -5.346  -0.450  0.00  0.00    +0.000 OA
ATOM     10  O   UNL     1       1.493  -5.176  -2.732  0.00  0.00    +0.000 OA
ATOM     11  C   UNL     1       4.596  -1.888  -3.208  0.00  0.00    +0.000 A 
ATOM     12  C   UNL     1       4.208  -0.839  -2.310  0.00  0.00    +0.000 A 
ATOM     13  H   UNL     1       5.220  -3.927  -4.713  0.00  0.00    +0.000 HD
ATOM     14  H   UNL     1       4.735  -5.876  -1.769  0.00  0.00    +0.000 HD
ENDROOT
BRANCH  12  15
ATOM     15  C   UNL     1       4.820   0.500  -2.632  0.00  0.00    +0.000 C 
ATOM     16  F   UNL     1       6.179   0.409  -2.713  0.00  0.00    +0.000 F 
ATOM     17  F   UNL     1       4.411   0.929  -3.860  0.00  0.00    +0.000 F 
ATOM     18  F   UNL     1       4.598   1.523  -1.794  0.00  0.00    +0.000 F 
ENDBRANCH  12  15
BRANCH   1  19
ATOM     19  S   UNL     1       2.812  -0.060   0.064  0.00  0.00    +0.000 S 
ATOM     20  O   UNL     1       3.045   1.334  -0.219  0.00  0.00    +0.000 OA
ATOM     21  O   UNL     1       3.209  -0.663   1.308  0.00  0.00    +0.000 OA
BRANCH  19  22
ATOM     22  N   UNL     1       1.137  -0.180  -0.017  0.00  0.00    +0.000 NA
ATOM     23  H   UNL     1       0.752   0.623   0.490  0.00  0.00    +0.000 HD
ATOM     24  H   UNL     1       0.770  -1.060   0.336  0.00  0.00    +0.000 HD
ENDBRANCH  19  22
ENDBRANCH   1  19
BRANCH   6  25
ATOM     25  C   UNL     1       3.311  -6.039  -4.847  0.00  0.00    +0.000 C 
BRANCH  25  26
ATOM     26  C   UNL     1       2.950  -7.511  -4.758  0.00  0.00    +0.000 A 
ATOM     27  C   UNL     1       3.042  -8.328  -5.883  0.00  0.00    +0.000 A 
ATOM     28  C   UNL     1       2.589  -9.649  -5.822  0.00  0.00    +0.000 A 
ATOM     29  C   UNL     1       2.136 -10.199  -4.621  0.00  0.00    +0.000 A 
ATOM     30  C   UNL     1       2.071  -9.413  -3.488  0.00  0.00    +0.000 A 
ATOM     31  C   UNL     1       2.450  -8.084  -3.573  0.00  0.00    +0.000 A 
ENDBRANCH  25  26
ENDBRANCH   6  25
TORSDOF 5
