REMARK  Name = Benfotiamine
REMARK  14 active torsions:
REMARK  status: ('A' for Active; 'I' for Inactive)
REMARK    1  A    between atoms: C_1  and  C_2
REMARK    2  A    between atoms: C_2  and  N_3
REMARK    3  A    between atoms: N_3  and  C_4
REMARK    4  A    between atoms: C_4  and  C_5
REMARK    5  A    between atoms: C_8  and  C_9
REMARK    6  A    between atoms: C_15  and  C_16
REMARK    7  A    between atoms: C_15  and  S_23
REMARK    8  A    between atoms: C_16  and  C_17
REMARK    9  A    between atoms: C_17  and  O_18
REMARK   10  A    between atoms: O_18  and  P_19
REMARK   11  A    between atoms: P_19  and  O_20
REMARK   12  A    between atoms: P_19  and  O_21
REMARK   13  A    between atoms: S_23  and  C_24
REMARK   14  A    between atoms: C_24  and  C_26
REMARK                            x       y       z     vdW  Elec       q    Type
REMARK                         _______ _______ _______ _____ _____    ______ ____
ROOT
ATOM      1  C   UNL     1       1.122  -0.157  -0.269  0.00  0.00    +0.000 C 
ATOM      2  C   UNL     1       2.641  -0.137   0.044  0.00  0.00    +0.000 C 
ATOM      3  C   UNL     1       3.173   0.659   1.098  0.00  0.00    +0.000 C 
ENDROOT
BRANCH   2   4
ATOM      4  N   UNL     1       3.352  -0.978  -0.875  0.00  0.00    +0.000 N 
ATOM      5  C   UNL     1       2.762  -1.851  -1.809  0.00  0.00    +0.000 C 
ATOM      6  O   UNL     1       3.368  -2.583  -2.590  0.00  0.00    +0.000 OA
BRANCH   4   7
ATOM      7  C   UNL     1       4.785  -0.971  -1.104  0.00  0.00    +0.000 C 
BRANCH   7   8
ATOM      8  C   UNL     1       5.518   0.150  -0.518  0.00  0.00    +0.000 A 
ATOM      9  C   UNL     1       5.139   1.530  -0.855  0.00  0.00    +0.000 A 
ATOM     10  N   UNL     1       5.294   2.734  -0.190  0.00  0.00    +0.000 NA
ATOM     11  C   UNL     1       5.808   2.518   0.968  0.00  0.00    +0.000 A 
ATOM     12  C   UNL     1       6.100   3.795   2.099  0.00  0.00    +0.000 C 
ATOM     13  N   UNL     1       6.228   1.103   1.198  0.00  0.00    +0.000 NA
ATOM     14  C   UNL     1       6.227  -0.077   0.575  0.00  0.00    +0.000 A 
ATOM     15  N   UNL     1       6.536  -1.289   1.220  0.00  0.00    +0.000 N 
ATOM     16  H   UNL     1       6.814  -1.302   2.203  0.00  0.00    +0.000 HD
ATOM     17  H   UNL     1       6.312  -2.225   0.888  0.00  0.00    +0.000 HD
ENDBRANCH   7   8
ENDBRANCH   4   7
ENDBRANCH   2   4
BRANCH   3  18
ATOM     18  C   UNL     1       2.529   1.939   1.683  0.00  0.00    +0.000 C 
BRANCH  18  19
ATOM     19  C   UNL     1       1.087   1.823   1.471  0.00  0.00    +0.000 C 
BRANCH  19  20
ATOM     20  O   UNL     1       0.317   2.510   2.341  0.00  0.00    +0.000 OA
BRANCH  20  21
ATOM     21  P   UNL     1      -1.384   2.283   2.122  0.00  0.00    +0.000 P 
ATOM     22  O   UNL     1      -2.906   2.079   1.925  0.00  0.00    +0.000 OA
BRANCH  21  23
ATOM     23  O   UNL     1      -1.245   0.659   2.122  0.00  0.00    +0.000 OA
ATOM     24  H   UNL     1      -0.477   0.101   2.035  0.00  0.00    +0.000 HD
ENDBRANCH  21  23
BRANCH  21  25
ATOM     25  O   UNL     1      -1.449   2.402   3.754  0.00  0.00    +0.000 OA
ATOM     26  H   UNL     1      -0.713   2.927   4.107  0.00  0.00    +0.000 HD
ENDBRANCH  21  25
ENDBRANCH  20  21
ENDBRANCH  19  20
ENDBRANCH  18  19
ENDBRANCH   3  18
BRANCH   3  27
ATOM     27  S   UNL     1       4.261  -0.131   2.559  0.00  0.00    +0.000 S 
BRANCH  27  28
ATOM     28  C   UNL     1       5.479   1.373   3.235  0.00  0.00    +0.000 C 
ATOM     29  O   UNL     1       4.752   2.221   3.672  0.00  0.00    +0.000 OA
BRANCH  28  30
ATOM     30  C   UNL     1       7.354   1.605   2.961  0.00  0.00    +0.000 A 
ATOM     31  C   UNL     1       7.987   2.103   4.047  0.00  0.00    +0.000 A 
ATOM     32  C   UNL     1       9.273   2.726   3.876  0.00  0.00    +0.000 A 
ATOM     33  C   UNL     1      10.035   2.880   2.667  0.00  0.00    +0.000 A 
ATOM     34  C   UNL     1       9.499   2.553   1.472  0.00  0.00    +0.000 A 
ATOM     35  C   UNL     1       8.248   1.965   1.621  0.00  0.00    +0.000 A 
ENDBRANCH  28  30
ENDBRANCH  27  28
ENDBRANCH   3  27
TORSDOF 12
