REMARK  Name = Benoxaprofen
REMARK  5 active torsions:
REMARK  status: ('A' for Active; 'I' for Inactive)
REMARK    1  A    between atoms: C_1  and  C_2
REMARK    2  A    between atoms: C_2  and  C_3
REMARK    3  A    between atoms: C_2  and  C_6
REMARK    4  A    between atoms: C_3  and  O_4
REMARK    5  A    between atoms: C_11  and  C_13
REMARK                            x       y       z     vdW  Elec       q    Type
REMARK                         _______ _______ _______ _____ _____    ______ ____
ROOT
ATOM      1  C   UNL     1       2.921   0.808   1.234  0.00  0.00    +0.000 A 
ATOM      2  C   UNL     1       3.500   0.168   2.349  0.00  0.00    +0.000 A 
ATOM      3  C   UNL     1       3.791   0.942   3.482  0.00  0.00    +0.000 A 
ATOM      4  C   UNL     1       3.522   2.301   3.468  0.00  0.00    +0.000 A 
ATOM      5  O   UNL     1       3.859   2.808   4.692  0.00  0.00    +0.000 OA
ATOM      6  C   UNL     1       4.322   1.712   5.376  0.00  0.00    +0.000 A 
ATOM      7  N   UNL     1       4.325   0.586   4.689  0.00  0.00    +0.000 NA
ATOM      8  C   UNL     1       2.985   2.983   2.386  0.00  0.00    +0.000 A 
ATOM      9  C   UNL     1       2.658   2.194   1.281  0.00  0.00    +0.000 A 
ENDROOT
BRANCH   6  10
ATOM     10  C   UNL     1       4.790   1.931   6.735  0.00  0.00    +0.000 A 
ATOM     11  C   UNL     1       3.938   2.424   7.733  0.00  0.00    +0.000 A 
ATOM     12  C   UNL     1       4.397   2.556   9.049  0.00  0.00    +0.000 A 
ATOM     13  C   UNL     1       5.709   2.206   9.367  0.00  0.00    +0.000 A 
ATOM     14 CL   UNL     1       6.279   2.391  10.980  0.00  0.00    +0.000 Cl
ATOM     15  C   UNL     1       6.562   1.706   8.386  0.00  0.00    +0.000 A 
ATOM     16  C   UNL     1       6.100   1.564   7.075  0.00  0.00    +0.000 A 
ENDBRANCH   6  10
BRANCH   1  18
ATOM     17  C   UNL     1       0.968  -0.083   0.006  0.00  0.00    +0.000 C 
ATOM     18  C   UNL     1       2.500  -0.002   0.014  0.00  0.00    +0.000 C 
BRANCH  18  19
ATOM     19  C   UNL     1       2.993   0.505  -1.343  0.00  0.00    +0.000 C 
ATOM     20  O   UNL     1       2.648  -0.017  -2.402  0.00  0.00    +0.000 OA
BRANCH  19  21
ATOM     21  O   UNL     1       3.839   1.557  -1.358  0.00  0.00    +0.000 OA
ATOM     22  H   UNL     1       4.132   1.900  -0.494  0.00  0.00    +0.000 HD
ENDBRANCH  19  21
ENDBRANCH  18  19
ENDBRANCH   1  18
TORSDOF 4
