REMARK  Name = Benorilate
REMARK  8 active torsions:
REMARK  status: ('A' for Active; 'I' for Inactive)
REMARK    1  A    between atoms: C_1  and  C_2
REMARK    2  A    between atoms: N_4  and  C_5
REMARK    3  A    between atoms: C_8  and  O_9
REMARK    4  A    between atoms: O_9  and  C_10
REMARK    5  A    between atoms: C_10  and  C_12
REMARK    6  A    between atoms: C_17  and  O_18
REMARK    7  A    between atoms: O_18  and  C_19
REMARK    8  A    between atoms: C_19  and  C_20
REMARK                            x       y       z     vdW  Elec       q    Type
REMARK                         _______ _______ _______ _____ _____    ______ ____
ROOT
ATOM      1  O   UNL     1       8.691  -2.126  -0.038  0.00  0.00    +0.000 OA
ENDROOT
BRANCH   1   5
ATOM      2  C   UNL     1       4.590  -0.912  -0.678  0.00  0.00    +0.000 A 
ATOM      3  C   UNL     1       5.348  -1.279  -1.788  0.00  0.00    +0.000 A 
ATOM      4  C   UNL     1       6.671  -1.748  -1.587  0.00  0.00    +0.000 A 
ATOM      5  C   UNL     1       7.240  -1.808  -0.268  0.00  0.00    +0.000 A 
ATOM      6  C   UNL     1       6.525  -1.241   0.768  0.00  0.00    +0.000 A 
ATOM      7  C   UNL     1       5.214  -0.824   0.567  0.00  0.00    +0.000 A 
BRANCH   2  11
ATOM      8  C   UNL     1       1.012   0.037   0.017  0.00  0.00    +0.000 C 
ATOM      9  C   UNL     1       2.508   0.142   0.064  0.00  0.00    +0.000 C 
ATOM     10  O   UNL     1       3.036   0.991   0.780  0.00  0.00    +0.000 OA
ATOM     11  N   UNL     1       3.193  -0.729  -0.765  0.00  0.00    +0.000 N 
ATOM     12  H   UNL     1       2.689  -1.338  -1.400  0.00  0.00    +0.000 HD
ENDBRANCH   2  11
ENDBRANCH   1   5
BRANCH   1  13
ATOM     13  C   UNL     1       9.545  -1.501   0.949  0.00  0.00    +0.000 C 
ATOM     14  O   UNL     1       9.134  -0.971   1.982  0.00  0.00    +0.000 OA
BRANCH  13  15
ATOM     15  C   UNL     1      11.036  -1.246   0.588  0.00  0.00    +0.000 A 
ATOM     16  C   UNL     1      11.861  -1.709   1.632  0.00  0.00    +0.000 A 
ATOM     17  C   UNL     1      13.228  -1.405   1.693  0.00  0.00    +0.000 A 
ATOM     18  C   UNL     1      13.841  -0.669   0.683  0.00  0.00    +0.000 A 
ATOM     19  C   UNL     1      13.073  -0.137  -0.345  0.00  0.00    +0.000 A 
ATOM     20  C   UNL     1      11.682  -0.390  -0.394  0.00  0.00    +0.000 A 
BRANCH  20  21
ATOM     21  O   UNL     1      11.136   0.389  -1.542  0.00  0.00    +0.000 OA
BRANCH  21  22
ATOM     22  C   UNL     1       9.848   0.777  -2.018  0.00  0.00    +0.000 C 
ATOM     23  C   UNL     1       8.883   0.225  -1.101  0.00  0.00    +0.000 C 
ATOM     24  O   UNL     1       9.557   1.239  -3.086  0.00  0.00    +0.000 OA
ENDBRANCH  21  22
ENDBRANCH  20  21
ENDBRANCH  13  15
ENDBRANCH   1  13
TORSDOF 6
