REMARK  Name = Benperidol
REMARK  7 active torsions:
REMARK  status: ('A' for Active; 'I' for Inactive)
REMARK    1  A    between atoms: O_1  and  C_2
REMARK    2  A    between atoms: N_10  and  C_11
REMARK    3  A    between atoms: N_14  and  C_15
REMARK    4  A    between atoms: C_15  and  C_16
REMARK    5  A    between atoms: C_16  and  C_17
REMARK    6  A    between atoms: C_17  and  C_18
REMARK    7  A    between atoms: C_18  and  C_20
REMARK                            x       y       z     vdW  Elec       q    Type
REMARK                         _______ _______ _______ _____ _____    ______ ____
ROOT
ATOM      1  C   UNL     1       2.717  -2.546  -0.056  0.00  0.00    +0.000 C 
ATOM      2  C   UNL     1       2.645  -3.718   0.950  0.00  0.00    +0.000 C 
ATOM      3  C   UNL     1       2.766  -5.011   0.089  0.00  0.00    +0.000 C 
ATOM      4  N   UNL     1       1.688  -5.097  -0.919  0.00  0.00    +0.000 NA
ATOM      5  C   UNL     1       1.703  -3.928  -1.813  0.00  0.00    +0.000 C 
ATOM      6  C   UNL     1       1.562  -2.640  -1.037  0.00  0.00    +0.000 C 
ENDROOT
BRANCH   1  15
ATOM      7  C   UNL     1       2.306  -0.050   0.205  0.00  0.00    +0.000 A 
ATOM      8  N   UNL     1       3.007   1.054   0.115  0.00  0.00    +0.000 NA
ATOM      9  C   UNL     1       4.324   0.641   0.116  0.00  0.00    +0.000 A 
ATOM     10  C   UNL     1       5.524   1.376   0.047  0.00  0.00    +0.000 A 
ATOM     11  C   UNL     1       6.751   0.688   0.033  0.00  0.00    +0.000 A 
ATOM     12  C   UNL     1       6.790  -0.704   0.039  0.00  0.00    +0.000 A 
ATOM     13  C   UNL     1       5.614  -1.446   0.099  0.00  0.00    +0.000 A 
ATOM     14  C   UNL     1       4.401  -0.747   0.185  0.00  0.00    +0.000 A 
ATOM     15  N   UNL     1       3.084  -1.182   0.283  0.00  0.00    +0.000 N 
BRANCH   7  16
ATOM     16  O   UNL     1       0.987  -0.055   0.138  0.00  0.00    +0.000 OA
ATOM     17  H   UNL     1       0.763   0.888   0.031  0.00  0.00    +0.000 HD
ENDBRANCH   7  16
ENDBRANCH   1  15
BRANCH   4  18
ATOM     18  C   UNL     1       1.793  -6.336  -1.713  0.00  0.00    +0.000 C 
BRANCH  18  19
ATOM     19  C   UNL     1       0.611  -6.488  -2.679  0.00  0.00    +0.000 C 
BRANCH  19  20
ATOM     20  C   UNL     1       0.689  -7.764  -3.504  0.00  0.00    +0.000 C 
BRANCH  20  21
ATOM     21  C   UNL     1      -0.486  -7.844  -4.463  0.00  0.00    +0.000 C 
ATOM     22  O   UNL     1      -1.343  -6.959  -4.572  0.00  0.00    +0.000 OA
BRANCH  21  23
ATOM     23  C   UNL     1      -0.538  -8.992  -5.391  0.00  0.00    +0.000 A 
ATOM     24  C   UNL     1      -0.245 -10.290  -4.958  0.00  0.00    +0.000 A 
ATOM     25  C   UNL     1      -0.126 -11.313  -5.899  0.00  0.00    +0.000 A 
ATOM     26  C   UNL     1      -0.399 -11.051  -7.239  0.00  0.00    +0.000 A 
ATOM     27  F   UNL     1      -0.250 -12.027  -8.143  0.00  0.00    +0.000 F 
ATOM     28  C   UNL     1      -0.815  -9.791  -7.654  0.00  0.00    +0.000 A 
ATOM     29  C   UNL     1      -0.848  -8.746  -6.734  0.00  0.00    +0.000 A 
ENDBRANCH  21  23
ENDBRANCH  20  21
ENDBRANCH  19  20
ENDBRANCH  18  19
ENDBRANCH   4  18
TORSDOF 7
