REMARK  Name = Benserazide
REMARK  10 active torsions:
REMARK  status: ('A' for Active; 'I' for Inactive)
REMARK    1  A    between atoms: N_1  and  CA_2
REMARK    2  A    between atoms: CA_2  and  C_3
REMARK    3  A    between atoms: CA_2  and  C_5
REMARK    4  A    between atoms: C_3  and  O_4
REMARK    5  A    between atoms: N_7  and  N_8
REMARK    6  A    between atoms: N_8  and  C_9
REMARK    7  A    between atoms: C_9  and  C_10
REMARK    8  A    between atoms: C_11  and  O_12
REMARK    9  A    between atoms: C_13  and  O_14
REMARK   10  A    between atoms: C_15  and  O_16
REMARK                            x       y       z     vdW  Elec       q    Type
REMARK                         _______ _______ _______ _____ _____    ______ ____
ROOT
ATOM      1  N   UNL     1       4.812   0.071  -2.956  0.00  0.00    +0.000 NA
ATOM      2  H   UNL     1       4.394   0.843  -3.487  0.00  0.00    +0.000 HD
ENDROOT
BRANCH   1   5
ATOM      3  C   UNL     1       2.891   0.018  -1.487  0.00  0.00    +0.000 C 
ATOM      4  O   UNL     1       2.116   0.051  -2.447  0.00  0.00    +0.000 OA
ATOM      5  N   UNL     1       4.279   0.084  -1.643  0.00  0.00    +0.000 N 
ATOM      6  H   UNL     1       4.901  -0.023  -0.847  0.00  0.00    +0.000 HD
BRANCH   3   7
ATOM      7  CA  UNL     1       2.407  -0.051  -0.016  0.00  0.00    +0.000 C 
BRANCH   7   8
ATOM      8  N   UNL     1       0.927   0.017   0.055  0.00  0.00    +0.000 NA
ATOM      9  H1  UNL     1       0.629  -0.186   1.010  0.00  0.00    +0.000 HD
ATOM     10  H2  UNL     1       0.552  -0.752  -0.508  0.00  0.00    +0.000 HD
ENDBRANCH   7   8
BRANCH   7  11
ATOM     11  C   UNL     1       2.907  -1.325   0.681  0.00  0.00    +0.000 C 
BRANCH  11  12
ATOM     12  O   UNL     1       2.430  -1.394   2.028  0.00  0.00    +0.000 OA
ATOM     13  H   UNL     1       2.734  -0.601   2.502  0.00  0.00    +0.000 HD
ENDBRANCH  11  12
ENDBRANCH   7  11
ENDBRANCH   3   7
ENDBRANCH   1   5
BRANCH   1  14
ATOM     14  C   UNL     1       6.270   0.098  -3.009  0.00  0.00    +0.000 C 
BRANCH  14  15
ATOM     15  C   UNL     1       6.783   0.194  -4.429  0.00  0.00    +0.000 A 
ATOM     16  C   UNL     1       6.986   1.409  -5.104  0.00  0.00    +0.000 A 
ATOM     17  C   UNL     1       7.473   1.417  -6.416  0.00  0.00    +0.000 A 
ATOM     18  C   UNL     1       7.751   0.228  -7.076  0.00  0.00    +0.000 A 
ATOM     19  C   UNL     1       7.545  -0.985  -6.441  0.00  0.00    +0.000 A 
ATOM     20  C   UNL     1       7.063  -1.002  -5.128  0.00  0.00    +0.000 A 
BRANCH  16  21
ATOM     21  O   UNL     1       6.739   2.637  -4.547  0.00  0.00    +0.000 OA
ATOM     22  H   UNL     1       6.354   2.523  -3.663  0.00  0.00    +0.000 HD
ENDBRANCH  16  21
BRANCH  17  23
ATOM     23  O   UNL     1       7.690   2.597  -7.082  0.00  0.00    +0.000 OA
ATOM     24  H   UNL     1       7.427   3.293  -6.447  0.00  0.00    +0.000 HD
ENDBRANCH  17  23
BRANCH  18  25
ATOM     25  O   UNL     1       8.229   0.234  -8.354  0.00  0.00    +0.000 OA
ATOM     26  H   UNL     1       8.288   1.179  -8.596  0.00  0.00    +0.000 HD
ENDBRANCH  18  25
ENDBRANCH  14  15
ENDBRANCH   1  14
TORSDOF 10
