REMARK  Name = Benzoyl peroxide
REMARK  5 active torsions:
REMARK  status: ('A' for Active; 'I' for Inactive)
REMARK    1  A    between atoms: C_2  and  O_3
REMARK    2  A    between atoms: C_2  and  C_13
REMARK    3  A    between atoms: O_3  and  O_4
REMARK    4  A    between atoms: O_4  and  C_5
REMARK    5  A    between atoms: C_5  and  C_7
REMARK                            x       y       z     vdW  Elec       q    Type
REMARK                         _______ _______ _______ _____ _____    ______ ____
ROOT
ATOM      1  O   UNL     1       2.880   1.057   0.741  0.00  0.00    +0.000 OA
ENDROOT
BRANCH   1   3
ATOM      2  O   UNL     1       1.005   0.075  -0.076  0.00  0.00    +0.000 OA
ATOM      3  C   UNL     1       2.231   0.089   0.014  0.00  0.00    +0.000 C 
BRANCH   3   4
ATOM      4  C   UNL     1       2.995  -0.971  -0.693  0.00  0.00    +0.000 A 
ATOM      5  C   UNL     1       4.039  -1.640  -0.051  0.00  0.00    +0.000 A 
ATOM      6  C   UNL     1       4.808  -2.569  -0.748  0.00  0.00    +0.000 A 
ATOM      7  C   UNL     1       4.457  -2.937  -2.046  0.00  0.00    +0.000 A 
ATOM      8  C   UNL     1       3.357  -2.344  -2.666  0.00  0.00    +0.000 A 
ATOM      9  C   UNL     1       2.626  -1.358  -1.993  0.00  0.00    +0.000 A 
ENDBRANCH   3   4
ENDBRANCH   1   3
BRANCH   1  10
ATOM     10  O   UNL     1       4.343   1.013   0.579  0.00  0.00    +0.000 OA
BRANCH  10  11
ATOM     11  C   UNL     1       4.860   1.990   1.385  0.00  0.00    +0.000 C 
ATOM     12  O   UNL     1       4.227   2.793   2.064  0.00  0.00    +0.000 OA
BRANCH  11  13
ATOM     13  C   UNL     1       6.349   1.986   1.368  0.00  0.00    +0.000 A 
ATOM     14  C   UNL     1       7.067   2.303   2.535  0.00  0.00    +0.000 A 
ATOM     15  C   UNL     1       8.457   2.476   2.488  0.00  0.00    +0.000 A 
ATOM     16  C   UNL     1       9.145   2.274   1.293  0.00  0.00    +0.000 A 
ATOM     17  C   UNL     1       8.440   1.942   0.136  0.00  0.00    +0.000 A 
ATOM     18  C   UNL     1       7.047   1.805   0.169  0.00  0.00    +0.000 A 
ENDBRANCH  11  13
ENDBRANCH  10  11
ENDBRANCH   1  10
TORSDOF 5
