REMARK  Name = Benznidazole
REMARK  4 active torsions:
REMARK  status: ('A' for Active; 'I' for Inactive)
REMARK    1  A    between atoms: N_8  and  C_9
REMARK    2  A    between atoms: C_9  and  C_10
REMARK    3  A    between atoms: N_12  and  C_13
REMARK    4  A    between atoms: C_13  and  C_14
REMARK                            x       y       z     vdW  Elec       q    Type
REMARK                         _______ _______ _______ _____ _____    ______ ____
ROOT
ATOM      1  C   UNL     1       4.064   1.230  -1.834  0.00  0.00    +0.000 C 
ATOM      2  O   UNL     1       2.833   1.255  -1.818  0.00  0.00    +0.000 OA
ATOM      3  N   UNL     1       4.727   0.904  -2.987  0.00  0.00    +0.000 N 
ATOM      4  H   UNL     1       5.590   1.383  -3.225  0.00  0.00    +0.000 HD
ENDROOT
BRANCH   1   5
ATOM      5  C   UNL     1       4.872   1.594  -0.610  0.00  0.00    +0.000 C 
BRANCH   5  13
ATOM      6  O   UNL     1       1.135  -0.108   0.100  0.00  0.00    +0.000 OA
ATOM      7  N   UNL     1       2.360  -0.276   0.181  0.00  0.00    +0.000 N 
ATOM      8  O   UNL     1       3.021  -1.174  -0.366  0.00  0.00    +0.000 OA
ATOM      9  C   UNL     1       3.091   0.622   1.025  0.00  0.00    +0.000 A 
ATOM     10  N   UNL     1       2.790   0.732   2.305  0.00  0.00    +0.000 NA
ATOM     11  C   UNL     1       3.782   1.499   2.839  0.00  0.00    +0.000 A 
ATOM     12  C   UNL     1       4.683   1.879   1.870  0.00  0.00    +0.000 A 
ATOM     13  N   UNL     1       4.218   1.335   0.682  0.00  0.00    +0.000 N 
ENDBRANCH   5  13
ENDBRANCH   1   5
BRANCH   3  14
ATOM     14  C   UNL     1       3.934   0.351  -4.077  0.00  0.00    +0.000 C 
BRANCH  14  15
ATOM     15  C   UNL     1       4.604   0.560  -5.397  0.00  0.00    +0.000 A 
ATOM     16  C   UNL     1       5.148  -0.517  -6.105  0.00  0.00    +0.000 A 
ATOM     17  C   UNL     1       5.903  -0.280  -7.251  0.00  0.00    +0.000 A 
ATOM     18  C   UNL     1       6.047   1.019  -7.737  0.00  0.00    +0.000 A 
ATOM     19  C   UNL     1       5.454   2.089  -7.070  0.00  0.00    +0.000 A 
ATOM     20  C   UNL     1       4.734   1.861  -5.903  0.00  0.00    +0.000 A 
ENDBRANCH  14  15
ENDBRANCH   3  14
TORSDOF 4
