REMARK  Name = Benzethonium
REMARK  19 active torsions:
REMARK  status: ('A' for Active; 'I' for Inactive)
REMARK    1  A    between atoms: C_1  and  C_2
REMARK    2  A    between atoms: C_2  and  C_3
REMARK    3  A    between atoms: C_2  and  C_4
REMARK    4  A    between atoms: C_2  and  C_5
REMARK    5  A    between atoms: C_5  and  C_6
REMARK    6  A    between atoms: C_6  and  C_7
REMARK    7  A    between atoms: C_6  and  C_8
REMARK    8  A    between atoms: C_6  and  C_9
REMARK    9  A    between atoms: C_12  and  O_13
REMARK   10  A    between atoms: O_13  and  C_14
REMARK   11  A    between atoms: C_14  and  C_15
REMARK   12  A    between atoms: C_15  and  O_16
REMARK   13  A    between atoms: O_16  and  C_17
REMARK   14  A    between atoms: C_17  and  C_18
REMARK   15  A    between atoms: C_18  and  N_19
REMARK   16  A    between atoms: N_19  and  C_20
REMARK   17  A    between atoms: N_19  and  C_21
REMARK   18  A    between atoms: N_19  and  C_22
REMARK   19  A    between atoms: C_22  and  C_23
REMARK                            x       y       z     vdW  Elec       q    Type
REMARK                         _______ _______ _______ _____ _____    ______ ____
ROOT
ATOM      1  O   UNL     1       5.556  -4.543   5.470  0.00  0.00    +0.000 OA
ENDROOT
BRANCH   1   5
ATOM      2  C   UNL     1       4.936  -1.935   2.304  0.00  0.00    +0.000 A 
ATOM      3  C   UNL     1       4.844  -3.329   2.152  0.00  0.00    +0.000 A 
ATOM      4  C   UNL     1       5.023  -4.172   3.241  0.00  0.00    +0.000 A 
ATOM      5  C   UNL     1       5.361  -3.636   4.476  0.00  0.00    +0.000 A 
ATOM      6  C   UNL     1       5.487  -2.261   4.635  0.00  0.00    +0.000 A 
ATOM      7  C   UNL     1       5.273  -1.423   3.563  0.00  0.00    +0.000 A 
BRANCH   2   8
ATOM      8  C   UNL     1       4.621  -0.983   1.138  0.00  0.00    +0.000 C 
ATOM      9  C   UNL     1       5.279  -1.545  -0.134  0.00  0.00    +0.000 C 
ATOM     10  C   UNL     1       5.265   0.390   1.424  0.00  0.00    +0.000 C 
BRANCH   8  11
ATOM     11  C   UNL     1       3.051  -0.898   1.044  0.00  0.00    +0.000 C 
BRANCH  11  13
ATOM     12  C   UNL     1       0.842  -0.093   0.089  0.00  0.00    +0.000 C 
ATOM     13  C   UNL     1       2.377   0.011  -0.034  0.00  0.00    +0.000 C 
ATOM     14  C   UNL     1       2.721  -0.432  -1.461  0.00  0.00    +0.000 C 
ATOM     15  C   UNL     1       2.714   1.496   0.153  0.00  0.00    +0.000 C 
ENDBRANCH  11  13
ENDBRANCH   8  11
ENDBRANCH   2   8
ENDBRANCH   1   5
BRANCH   1  16
ATOM     16  C   UNL     1       6.017  -3.956   6.672  0.00  0.00    +0.000 C 
BRANCH  16  17
ATOM     17  C   UNL     1       6.281  -5.069   7.625  0.00  0.00    +0.000 C 
BRANCH  17  18
ATOM     18  O   UNL     1       6.658  -4.479   8.871  0.00  0.00    +0.000 OA
BRANCH  18  19
ATOM     19  C   UNL     1       6.907  -5.536   9.758  0.00  0.00    +0.000 C 
BRANCH  19  20
ATOM     20  C   UNL     1       7.377  -5.055  11.131  0.00  0.00    +0.000 C 
BRANCH  20  21
ATOM     21  N   UNL     1       7.691  -6.278  12.031  0.00  0.00    +0.000 N 
ATOM     22  C   UNL     1       6.393  -7.067  12.262  0.00  0.00    +0.000 C 
ATOM     23  C   UNL     1       8.772  -7.069  11.304  0.00  0.00    +0.000 C 
BRANCH  21  24
ATOM     24  C   UNL     1       8.213  -5.792  13.420  0.00  0.00    +0.000 C 
BRANCH  24  25
ATOM     25  C   UNL     1       8.396  -6.877  14.472  0.00  0.00    +0.000 A 
ATOM     26  C   UNL     1       8.775  -8.197  14.192  0.00  0.00    +0.000 A 
ATOM     27  C   UNL     1       8.552  -9.251  15.055  0.00  0.00    +0.000 A 
ATOM     28  C   UNL     1       8.210  -8.965  16.363  0.00  0.00    +0.000 A 
ATOM     29  C   UNL     1       8.040  -7.638  16.745  0.00  0.00    +0.000 A 
ATOM     30  C   UNL     1       8.093  -6.598  15.811  0.00  0.00    +0.000 A 
ENDBRANCH  24  25
ENDBRANCH  21  24
ENDBRANCH  20  21
ENDBRANCH  19  20
ENDBRANCH  18  19
ENDBRANCH  17  18
ENDBRANCH  16  17
ENDBRANCH   1  16
TORSDOF 12
