REMARK  Name = Benzylpenicillin
REMARK  7 active torsions:
REMARK  status: ('A' for Active; 'I' for Inactive)
REMARK    1  A    between atoms: C_4  and  C_5
REMARK    2  A    between atoms: C_4  and  C_6
REMARK    3  A    between atoms: CA_7  and  C_22
REMARK    4  A    between atoms: CA_11  and  N_12
REMARK    5  A    between atoms: C_13  and  C_15
REMARK    6  A    between atoms: C_15  and  C_16
REMARK    7  A    between atoms: C_22  and  O_23
REMARK                            x       y       z     vdW  Elec       q    Type
REMARK                         _______ _______ _______ _____ _____    ______ ____
ROOT
ATOM      1  C   UNL     1       2.014   0.054   0.014  0.00  0.00    +0.000 C 
ATOM      2  S   UNL     1       2.446  -1.205  -1.239  0.00  0.00    +0.000 S 
ATOM      3  C   UNL     1       2.793  -2.460   0.107  0.00  0.00    +0.000 C 
ATOM      4  C   UNL     1       3.734  -3.503  -0.503  0.00  0.00    +0.000 C 
ATOM      5  C   UNL     1       1.418  -3.050   0.473  0.00  0.00    +0.000 C 
ATOM      6  CA  UNL     1       3.478  -1.629   1.217  0.00  0.00    +0.000 C 
ATOM      7  N   UNL     1       2.855  -0.288   1.176  0.00  0.00    +0.000 N 
ATOM      8  C   UNL     1       3.623   0.845   1.054  0.00  0.00    +0.000 C 
ATOM      9  O   UNL     1       4.706   1.118   1.534  0.00  0.00    +0.000 OA
ATOM     10  CA  UNL     1       2.703   1.424  -0.060  0.00  0.00    +0.000 C 
ENDROOT
BRANCH  10  11
ATOM     11  N   UNL     1       3.351   1.808  -1.355  0.00  0.00    +0.000 N 
ATOM     12  C   UNL     1       3.931   3.055  -1.470  0.00  0.00    +0.000 C 
ATOM     13  O   UNL     1       3.893   3.849  -0.532  0.00  0.00    +0.000 OA
ATOM     14  H   UNL     1       3.365   1.162  -2.137  0.00  0.00    +0.000 HD
BRANCH  12  15
ATOM     15  C   UNL     1       4.563   3.371  -2.826  0.00  0.00    +0.000 C 
BRANCH  15  16
ATOM     16  C   UNL     1       5.173   4.757  -2.840  0.00  0.00    +0.000 A 
ATOM     17  C   UNL     1       6.476   4.960  -2.366  0.00  0.00    +0.000 A 
ATOM     18  C   UNL     1       6.947   6.254  -2.139  0.00  0.00    +0.000 A 
ATOM     19  C   UNL     1       6.160   7.355  -2.474  0.00  0.00    +0.000 A 
ATOM     20  C   UNL     1       4.878   7.163  -2.984  0.00  0.00    +0.000 A 
ATOM     21  C   UNL     1       4.382   5.871  -3.157  0.00  0.00    +0.000 A 
ENDBRANCH  15  16
ENDBRANCH  12  15
ENDBRANCH  10  11
BRANCH   6  22
ATOM     22  C   UNL     1       3.519  -2.181   2.664  0.00  0.00    +0.000 C 
ATOM     23  OXT UNL     1       3.967  -1.536   3.605  0.00  0.00    +0.000 OA
BRANCH  22  24
ATOM     24  O   UNL     1       3.074  -3.431   2.906  0.00  0.00    +0.000 OA
ATOM     25  H   UNL     1       2.911  -4.055   2.183  0.00  0.00    +0.000 HD
ENDBRANCH  22  24
ENDBRANCH   6  22
TORSDOF 5
