REMARK  Name = Benzthiazide
REMARK  6 active torsions:
REMARK  status: ('A' for Active; 'I' for Inactive)
REMARK    1  A    between atoms: N_1  and  S_2
REMARK    2  A    between atoms: S_2  and  C_5
REMARK    3  A    between atoms: C_13  and  C_14
REMARK    4  A    between atoms: C_14  and  S_15
REMARK    5  A    between atoms: S_15  and  C_16
REMARK    6  A    between atoms: C_16  and  C_17
REMARK                            x       y       z     vdW  Elec       q    Type
REMARK                         _______ _______ _______ _____ _____    ______ ____
ROOT
ATOM      1  C   UNL     1       3.277  -1.535  -0.266  0.00  0.00    +0.000 A 
ATOM      2  C   UNL     1       4.439  -1.720  -1.008  0.00  0.00    +0.000 A 
ATOM      3  C   UNL     1       4.863  -3.017  -1.308  0.00  0.00    +0.000 A 
ATOM      4  C   UNL     1       4.183  -4.163  -0.909  0.00  0.00    +0.000 A 
ATOM      5  C   UNL     1       3.018  -3.953  -0.161  0.00  0.00    +0.000 A 
ATOM      6  C   UNL     1       2.569  -2.656   0.173  0.00  0.00    +0.000 A 
ATOM      7 CL   UNL     1       1.161  -2.576   1.169  0.00  0.00    +0.000 Cl
ATOM      8  N   UNL     1       4.565  -5.495  -1.194  0.00  0.00    +0.000 NA
ATOM      9  C   UNL     1       5.643  -5.760  -1.860  0.00  0.00    +0.000 C 
ATOM     10  N   UNL     1       6.503  -4.767  -2.338  0.00  0.00    +0.000 N 
ATOM     11  S   UNL     1       6.308  -3.160  -2.246  0.00  0.00    +0.000 S 
ATOM     12  O   UNL     1       6.020  -2.675  -3.572  0.00  0.00    +0.000 OA
ATOM     13  O   UNL     1       7.404  -2.640  -1.454  0.00  0.00    +0.000 OA
ATOM     14  H   UNL     1       7.316  -5.059  -2.884  0.00  0.00    +0.000 HD
ENDROOT
BRANCH   1  15
ATOM     15  S   UNL     1       2.807   0.133   0.072  0.00  0.00    +0.000 S 
ATOM     16  O   UNL     1       3.242   0.958  -1.032  0.00  0.00    +0.000 OA
ATOM     17  O   UNL     1       3.182   0.423   1.435  0.00  0.00    +0.000 OA
BRANCH  15  18
ATOM     18  N   UNL     1       1.130   0.147   0.011  0.00  0.00    +0.000 NA
ATOM     19  H   UNL     1       0.787   1.095   0.177  0.00  0.00    +0.000 HD
ATOM     20  H   UNL     1       0.743  -0.496   0.707  0.00  0.00    +0.000 HD
ENDBRANCH  15  18
ENDBRANCH   1  15
BRANCH   9  21
ATOM     21  C   UNL     1       6.082  -7.210  -2.187  0.00  0.00    +0.000 C 
BRANCH  21  22
ATOM     22  S   UNL     1       7.615  -7.092  -3.166  0.00  0.00    +0.000 S 
BRANCH  22  23
ATOM     23  C   UNL     1       8.175  -8.781  -3.512  0.00  0.00    +0.000 C 
BRANCH  23  24
ATOM     24  C   UNL     1       9.466  -8.748  -4.331  0.00  0.00    +0.000 A 
ATOM     25  C   UNL     1      10.102  -7.546  -4.713  0.00  0.00    +0.000 A 
ATOM     26  C   UNL     1      11.145  -7.519  -5.630  0.00  0.00    +0.000 A 
ATOM     27  C   UNL     1      11.691  -8.712  -6.068  0.00  0.00    +0.000 A 
ATOM     28  C   UNL     1      11.191  -9.919  -5.580  0.00  0.00    +0.000 A 
ATOM     29  C   UNL     1      10.049  -9.944  -4.768  0.00  0.00    +0.000 A 
ENDBRANCH  23  24
ENDBRANCH  22  23
ENDBRANCH  21  22
ENDBRANCH   9  21
TORSDOF 6
