REMARK  Name = Benzoic acid
REMARK  2 active torsions:
REMARK  status: ('A' for Active; 'I' for Inactive)
REMARK    1  A    between atoms: O_1  and  C_2
REMARK    2  A    between atoms: C_2  and  C_4
REMARK                            x       y       z     vdW  Elec       q    Type
REMARK                         _______ _______ _______ _____ _____    ______ ____
ROOT
ATOM      1  C   UNL     1       2.996   1.044  -0.876  0.00  0.00    +0.000 A 
ATOM      2  C   UNL     1       4.109   0.725  -1.666  0.00  0.00    +0.000 A 
ATOM      3  C   UNL     1       4.795   1.738  -2.342  0.00  0.00    +0.000 A 
ATOM      4  C   UNL     1       4.337   3.055  -2.278  0.00  0.00    +0.000 A 
ATOM      5  C   UNL     1       3.226   3.371  -1.496  0.00  0.00    +0.000 A 
ATOM      6  C   UNL     1       2.563   2.371  -0.784  0.00  0.00    +0.000 A 
ENDROOT
BRANCH   1   7
ATOM      7  C   UNL     1       2.359  -0.001  -0.042  0.00  0.00    +0.000 C 
ATOM      8  O   UNL     1       3.004  -0.836   0.575  0.00  0.00    +0.000 OA
BRANCH   7   9
ATOM      9  O   UNL     1       1.011   0.059  -0.020  0.00  0.00    +0.000 OA
ATOM     10  H   UNL     1       0.610   0.703  -0.633  0.00  0.00    +0.000 HD
ENDBRANCH   7   9
ENDBRANCH   1   7
TORSDOF 2
