REMARK  Name = Benzoin
REMARK  4 active torsions:
REMARK  status: ('A' for Active; 'I' for Inactive)
REMARK    1  A    between atoms: O_1  and  C_2
REMARK    2  A    between atoms: C_2  and  C_3
REMARK    3  A    between atoms: C_2  and  C_11
REMARK    4  A    between atoms: C_3  and  C_5
REMARK                            x       y       z     vdW  Elec       q    Type
REMARK                         _______ _______ _______ _____ _____    ______ ____
ROOT
ATOM      1  C   UNL     1       2.452   0.049   0.089  0.00  0.00    +0.000 C 
ENDROOT
BRANCH   1   2
ATOM      2  C   UNL     1       2.983  -1.376  -0.026  0.00  0.00    +0.000 A 
ATOM      3  C   UNL     1       2.125  -2.468  -0.231  0.00  0.00    +0.000 A 
ATOM      4  C   UNL     1       2.599  -3.773  -0.116  0.00  0.00    +0.000 A 
ATOM      5  C   UNL     1       3.951  -4.007   0.121  0.00  0.00    +0.000 A 
ATOM      6  C   UNL     1       4.830  -2.936   0.248  0.00  0.00    +0.000 A 
ATOM      7  C   UNL     1       4.354  -1.631   0.155  0.00  0.00    +0.000 A 
ENDBRANCH   1   2
BRANCH   1   8
ATOM      8  O   UNL     1       1.030  -0.000   0.014  0.00  0.00    +0.000 OA
ATOM      9  H   UNL     1       0.723   0.844  -0.345  0.00  0.00    +0.000 HD
ENDBRANCH   1   8
BRANCH   1  10
ATOM     10  C   UNL     1       2.963   0.752   1.378  0.00  0.00    +0.000 C 
ATOM     11  O   UNL     1       3.731   0.239   2.204  0.00  0.00    +0.000 OA
BRANCH  10  12
ATOM     12  C   UNL     1       2.594   2.159   1.645  0.00  0.00    +0.000 A 
ATOM     13  C   UNL     1       3.569   3.005   2.192  0.00  0.00    +0.000 A 
ATOM     14  C   UNL     1       3.208   4.266   2.662  0.00  0.00    +0.000 A 
ATOM     15  C   UNL     1       1.898   4.718   2.509  0.00  0.00    +0.000 A 
ATOM     16  C   UNL     1       0.938   3.895   1.929  0.00  0.00    +0.000 A 
ATOM     17  C   UNL     1       1.278   2.607   1.529  0.00  0.00    +0.000 A 
ENDBRANCH  10  12
ENDBRANCH   1  10
TORSDOF 4
