REMARK  Name = Benzhydrocodone
REMARK  6 active torsions:
REMARK  status: ('A' for Active; 'I' for Inactive)
REMARK    1  A    between atoms: C_5  and  O_6
REMARK    2  A    between atoms: O_6  and  C_7
REMARK    3  A    between atoms: N_15  and  C_16
REMARK    4  A    between atoms: C_24  and  O_25
REMARK    5  A    between atoms: O_25  and  C_26
REMARK    6  A    between atoms: C_26  and  C_28
REMARK                            x       y       z     vdW  Elec       q    Type
REMARK                         _______ _______ _______ _____ _____    ______ ____
ROOT
ATOM      1  C   UNL     1       2.330  -0.241  -0.004  0.00  0.00    +0.000 C 
ATOM      2  O   UNL     1       2.791  -1.298   0.784  0.00  0.00    +0.000 OA
ATOM      3  C   UNL     1       3.622  -0.703   1.661  0.00  0.00    +0.000 A 
ATOM      4  C   UNL     1       4.164  -1.458   2.648  0.00  0.00    +0.000 A 
ATOM      5  C   UNL     1       4.779  -0.716   3.629  0.00  0.00    +0.000 A 
ATOM      6  C   UNL     1       4.657   0.777   3.651  0.00  0.00    +0.000 A 
ATOM      7  C   UNL     1       3.937   1.533   2.659  0.00  0.00    +0.000 A 
ATOM      8  C   UNL     1       3.551   0.702   1.670  0.00  0.00    +0.000 A 
ATOM      9  C   UNL     1       2.600   1.244   0.713  0.00  0.00    +0.000 C 
ATOM     10  C   UNL     1       3.218   2.278  -0.216  0.00  0.00    +0.000 C 
ATOM     11  C   UNL     1       2.384   3.067  -1.175  0.00  0.00    +0.000 C 
ATOM     12  N   UNL     1       1.835   4.080  -0.333  0.00  0.00    +0.000 NA
ATOM     13  C   UNL     1       0.733   4.591  -1.266  0.00  0.00    +0.000 C 
ATOM     14  C   UNL     1       1.780   3.515   1.178  0.00  0.00    +0.000 C 
ATOM     15  C   UNL     1       3.290   3.155   2.350  0.00  0.00    +0.000 C 
ATOM     16  C   UNL     1       1.405   2.070   1.526  0.00  0.00    +0.000 C 
ATOM     17  C   UNL     1      -0.069   1.598   1.425  0.00  0.00    +0.000 C 
ATOM     18  C   UNL     1       0.598   0.366   0.862  0.00  0.00    +0.000 C 
ATOM     19  C   UNL     1       1.114   0.436  -0.528  0.00  0.00    +0.000 C 
ENDROOT
BRANCH   4  20
ATOM     20  O   UNL     1       3.932  -2.809   2.710  0.00  0.00    +0.000 OA
ATOM     21  C   UNL     1       2.537  -3.047   3.007  0.00  0.00    +0.000 C 
ENDBRANCH   4  20
BRANCH  19  22
ATOM     22  O   UNL     1       2.235   0.598  -1.809  0.00  0.00    +0.000 OA
BRANCH  22  23
ATOM     23  C   UNL     1       3.467   0.865  -2.709  0.00  0.00    +0.000 C 
ATOM     24  O   UNL     1       3.405   0.422  -3.913  0.00  0.00    +0.000 OA
BRANCH  23  25
ATOM     25  C   UNL     1       4.836   1.752  -2.445  0.00  0.00    +0.000 A 
ATOM     26  C   UNL     1       4.907   3.113  -2.866  0.00  0.00    +0.000 A 
ATOM     27  C   UNL     1       5.304   4.118  -1.939  0.00  0.00    +0.000 A 
ATOM     28  C   UNL     1       5.903   3.762  -0.732  0.00  0.00    +0.000 A 
ATOM     29  C   UNL     1       6.142   2.402  -0.473  0.00  0.00    +0.000 A 
ATOM     30  C   UNL     1       5.668   1.389  -1.358  0.00  0.00    +0.000 A 
ENDBRANCH  23  25
ENDBRANCH  22  23
ENDBRANCH  19  22
TORSDOF 4
