REMARK  Name = Benzydamine
REMARK  9 active torsions:
REMARK  status: ('A' for Active; 'I' for Inactive)
REMARK    1  A    between atoms: C_1  and  N_2
REMARK    2  A    between atoms: N_2  and  C_3
REMARK    3  A    between atoms: N_2  and  C_4
REMARK    4  A    between atoms: C_4  and  C_5
REMARK    5  A    between atoms: C_5  and  C_6
REMARK    6  A    between atoms: C_6  and  O_7
REMARK    7  A    between atoms: O_7  and  C_8
REMARK    8  A    between atoms: N_10  and  C_11
REMARK    9  A    between atoms: C_11  and  C_12
REMARK                            x       y       z     vdW  Elec       q    Type
REMARK                         _______ _______ _______ _____ _____    ______ ____
ROOT
ATOM      1  C   UNL     1       7.068  -3.778   1.239  0.00  0.00    +0.000 A 
ATOM      2  N   UNL     1       8.130  -3.756   2.028  0.00  0.00    +0.000 NA
ATOM      3  N   UNL     1       8.464  -5.067   2.177  0.00  0.00    +0.000 N 
ATOM      4  C   UNL     1       7.656  -5.908   1.435  0.00  0.00    +0.000 A 
ATOM      5  C   UNL     1       7.640  -7.301   1.266  0.00  0.00    +0.000 A 
ATOM      6  C   UNL     1       6.676  -7.834   0.402  0.00  0.00    +0.000 A 
ATOM      7  C   UNL     1       5.781  -7.017  -0.280  0.00  0.00    +0.000 A 
ATOM      8  C   UNL     1       5.822  -5.638  -0.111  0.00  0.00    +0.000 A 
ATOM      9  C   UNL     1       6.748  -5.074   0.780  0.00  0.00    +0.000 A 
ENDROOT
BRANCH   1  10
ATOM     10  O   UNL     1       6.506  -2.579   0.947  0.00  0.00    +0.000 OA
BRANCH  10  11
ATOM     11  C   UNL     1       5.079  -2.611   0.911  0.00  0.00    +0.000 C 
BRANCH  11  12
ATOM     12  C   UNL     1       4.561  -1.269   0.416  0.00  0.00    +0.000 C 
BRANCH  12  13
ATOM     13  C   UNL     1       3.025  -1.226   0.404  0.00  0.00    +0.000 C 
BRANCH  13  15
ATOM     14  C   UNL     1       1.031   0.048  -0.078  0.00  0.00    +0.000 C 
ATOM     15  N   UNL     1       2.497   0.075  -0.046  0.00  0.00    +0.000 NA
ATOM     16  C   UNL     1       2.938   1.165   0.828  0.00  0.00    +0.000 C 
ENDBRANCH  13  15
ENDBRANCH  12  13
ENDBRANCH  11  12
ENDBRANCH  10  11
ENDBRANCH   1  10
BRANCH   3  17
ATOM     17  C   UNL     1       9.557  -5.508   3.065  0.00  0.00    +0.000 C 
BRANCH  17  18
ATOM     18  C   UNL     1      10.197  -4.399   3.866  0.00  0.00    +0.000 A 
ATOM     19  C   UNL     1       9.387  -3.589   4.675  0.00  0.00    +0.000 A 
ATOM     20  C   UNL     1       9.885  -2.413   5.223  0.00  0.00    +0.000 A 
ATOM     21  C   UNL     1      11.237  -2.114   5.101  0.00  0.00    +0.000 A 
ATOM     22  C   UNL     1      12.090  -2.995   4.436  0.00  0.00    +0.000 A 
ATOM     23  C   UNL     1      11.568  -4.116   3.784  0.00  0.00    +0.000 A 
ENDBRANCH  17  18
ENDBRANCH   3  17
TORSDOF 7
