REMARK  Name = Benzyl alcohol
REMARK  2 active torsions:
REMARK  status: ('A' for Active; 'I' for Inactive)
REMARK    1  A    between atoms: O_1  and  C_2
REMARK    2  A    between atoms: C_2  and  C_3
REMARK                            x       y       z     vdW  Elec       q    Type
REMARK                         _______ _______ _______ _____ _____    ______ ____
ROOT
ATOM      1  C   UNL     1       2.834  -1.352   0.292  0.00  0.00    +0.000 A 
ATOM      2  C   UNL     1       2.379  -2.485  -0.400  0.00  0.00    +0.000 A 
ATOM      3  C   UNL     1       2.687  -3.766   0.061  0.00  0.00    +0.000 A 
ATOM      4  C   UNL     1       3.500  -3.927   1.178  0.00  0.00    +0.000 A 
ATOM      5  C   UNL     1       4.009  -2.808   1.839  0.00  0.00    +0.000 A 
ATOM      6  C   UNL     1       3.675  -1.526   1.398  0.00  0.00    +0.000 A 
ENDROOT
BRANCH   1   7
ATOM      7  C   UNL     1       2.375   0.018  -0.121  0.00  0.00    +0.000 C 
BRANCH   7   8
ATOM      8  O   UNL     1       0.952   0.033  -0.125  0.00  0.00    +0.000 OA
ATOM      9  H   UNL     1       0.676   0.938  -0.338  0.00  0.00    +0.000 HD
ENDBRANCH   7   8
ENDBRANCH   1   7
TORSDOF 2
