REMARK  Name = Benziodarone
REMARK  5 active torsions:
REMARK  status: ('A' for Active; 'I' for Inactive)
REMARK    1  A    between atoms: C_1  and  C_2
REMARK    2  A    between atoms: C_2  and  C_3
REMARK    3  A    between atoms: C_4  and  C_5
REMARK    4  A    between atoms: C_5  and  C_7
REMARK    5  A    between atoms: C_11  and  O_12
REMARK                            x       y       z     vdW  Elec       q    Type
REMARK                         _______ _______ _______ _____ _____    ______ ____
ROOT
ATOM      1  C   UNL     1       2.649  -3.116  -0.652  0.00  0.00    +0.000 C 
ATOM      2  O   UNL     1       2.293  -2.923   0.512  0.00  0.00    +0.000 OA
ENDROOT
BRANCH   1   4
ATOM      3  C   UNL     1       3.052  -0.699  -1.216  0.00  0.00    +0.000 A 
ATOM      4  C   UNL     1       3.044  -2.045  -1.561  0.00  0.00    +0.000 A 
ATOM      5  C   UNL     1       3.404  -2.076  -2.946  0.00  0.00    +0.000 A 
ATOM      6  C   UNL     1       3.501  -3.068  -3.941  0.00  0.00    +0.000 A 
ATOM      7  C   UNL     1       3.915  -2.740  -5.228  0.00  0.00    +0.000 A 
ATOM      8  C   UNL     1       4.199  -1.420  -5.557  0.00  0.00    +0.000 A 
ATOM      9  C   UNL     1       4.090  -0.395  -4.604  0.00  0.00    +0.000 A 
ATOM     10  C   UNL     1       3.686  -0.764  -3.316  0.00  0.00    +0.000 A 
ATOM     11  O   UNL     1       3.475   0.074  -2.260  0.00  0.00    +0.000 OA
BRANCH   3  13
ATOM     12  C   UNL     1       1.075   0.021   0.073  0.00  0.00    +0.000 C 
ATOM     13  C   UNL     1       2.601   0.001   0.021  0.00  0.00    +0.000 C 
ENDBRANCH   3  13
ENDBRANCH   1   4
BRANCH   1  14
ATOM     14  C   UNL     1       2.620  -4.513  -1.119  0.00  0.00    +0.000 A 
ATOM     15  C   UNL     1       1.405  -5.206  -1.077  0.00  0.00    +0.000 A 
ATOM     16  C   UNL     1       1.351  -6.523  -1.537  0.00  0.00    +0.000 A 
ATOM     17  I   UNL     1      -0.475  -7.534  -1.448  0.00  0.00    +0.000 I 
ATOM     18  C   UNL     1       2.501  -7.144  -2.045  0.00  0.00    +0.000 A 
ATOM     19  C   UNL     1       3.715  -6.447  -2.065  0.00  0.00    +0.000 A 
ATOM     20  I   UNL     1       5.455  -7.286  -2.867  0.00  0.00    +0.000 I 
ATOM     21  C   UNL     1       3.785  -5.140  -1.575  0.00  0.00    +0.000 A 
BRANCH  18  22
ATOM     22  O   UNL     1       2.460  -8.425  -2.526  0.00  0.00    +0.000 OA
ATOM     23  H   UNL     1       1.559  -8.773  -2.404  0.00  0.00    +0.000 HD
ENDBRANCH  18  22
ENDBRANCH   1  14
TORSDOF 4
