REMARK  Name = Benzatropine
REMARK  5 active torsions:
REMARK  status: ('A' for Active; 'I' for Inactive)
REMARK    1  A    between atoms: C_8  and  O_11
REMARK    2  A    between atoms: O_11  and  C_12
REMARK    3  A    between atoms: C_12  and  C_13
REMARK    4  A    between atoms: C_12  and  C_19
REMARK    5  A    between atoms: N_25  and  C_26
REMARK                            x       y       z     vdW  Elec       q    Type
REMARK                         _______ _______ _______ _____ _____    ______ ____
ROOT
ATOM      1  C   UNL     1       3.603  -0.403  -3.314  0.00  0.00    +0.000 C 
ENDROOT
BRANCH   1   2
ATOM      2  C   UNL     1       2.021  -0.299  -3.374  0.00  0.00    +0.000 A 
ATOM      3  C   UNL     1       1.327   0.916  -3.156  0.00  0.00    +0.000 A 
ATOM      4  C   UNL     1       0.052   0.976  -2.595  0.00  0.00    +0.000 A 
ATOM      5  C   UNL     1      -0.644  -0.195  -2.369  0.00  0.00    +0.000 A 
ATOM      6  C   UNL     1      -0.066  -1.413  -2.736  0.00  0.00    +0.000 A 
ATOM      7  C   UNL     1       1.240  -1.476  -3.282  0.00  0.00    +0.000 A 
ENDBRANCH   1   2
BRANCH   1   8
ATOM      8  C   UNL     1       4.266   0.702  -4.137  0.00  0.00    +0.000 A 
ATOM      9  C   UNL     1       5.089   0.444  -5.241  0.00  0.00    +0.000 A 
ATOM     10  C   UNL     1       5.491   1.506  -6.057  0.00  0.00    +0.000 A 
ATOM     11  C   UNL     1       4.973   2.788  -5.880  0.00  0.00    +0.000 A 
ATOM     12  C   UNL     1       4.205   3.058  -4.754  0.00  0.00    +0.000 A 
ATOM     13  C   UNL     1       4.020   2.047  -3.836  0.00  0.00    +0.000 A 
ENDBRANCH   1   8
BRANCH   1  14
ATOM     14  O   UNL     1       4.223  -0.294  -1.991  0.00  0.00    +0.000 OA
BRANCH  14  20
ATOM     15  C   UNL     1       2.119  -0.005   0.317  0.00  0.00    +0.000 C 
ATOM     16  C   UNL     1       2.726   1.319  -0.152  0.00  0.00    +0.000 C 
ATOM     17  C   UNL     1       4.105   1.367   0.501  0.00  0.00    +0.000 C 
ATOM     18  C   UNL     1       4.196   0.030   1.250  0.00  0.00    +0.000 C 
ATOM     19  C   UNL     1       4.775  -1.073   0.309  0.00  0.00    +0.000 C 
ATOM     20  C   UNL     1       3.940  -1.285  -0.984  0.00  0.00    +0.000 C 
ATOM     21  C   UNL     1       2.497  -1.220  -0.531  0.00  0.00    +0.000 C 
ATOM     22  N   UNL     1       2.774  -0.147   1.605  0.00  0.00    +0.000 NA
ATOM     23  C   UNL     1       2.373  -1.358   2.296  0.00  0.00    +0.000 C 
ENDBRANCH  14  20
ENDBRANCH   1  14
TORSDOF 4
