REMARK  Name = Benzylparaben
REMARK  5 active torsions:
REMARK  status: ('A' for Active; 'I' for Inactive)
REMARK    1  A    between atoms: O_1  and  C_2
REMARK    2  A    between atoms: C_5  and  C_8
REMARK    3  A    between atoms: C_8  and  O_10
REMARK    4  A    between atoms: O_10  and  C_11
REMARK    5  A    between atoms: C_11  and  C_12
REMARK                            x       y       z     vdW  Elec       q    Type
REMARK                         _______ _______ _______ _____ _____    ______ ____
ROOT
ATOM      1  C   UNL     1      -3.443   0.138  -0.043  0.00  0.00    +0.000 C 
ATOM      2  O   UNL     1      -4.028   1.215  -0.056  0.00  0.00    +0.000 OA
ENDROOT
BRANCH   1   6
ATOM      3  C   UNL     1       0.864  -0.027   0.011  0.00  0.00    +0.000 A 
ATOM      4  C   UNL     1       0.204   1.195   0.012  0.00  0.00    +0.000 A 
ATOM      5  C   UNL     1      -1.198   1.220  -0.001  0.00  0.00    +0.000 A 
ATOM      6  C   UNL     1      -1.947   0.029  -0.013  0.00  0.00    +0.000 A 
ATOM      7  C   UNL     1      -1.261  -1.194  -0.001  0.00  0.00    +0.000 A 
ATOM      8  C   UNL     1       0.143  -1.218   0.011  0.00  0.00    +0.000 A 
BRANCH   3   9
ATOM      9  O   UNL     1       2.226  -0.100   0.007  0.00  0.00    +0.000 OA
ATOM     10  H   UNL     1       2.593   0.800  -0.018  0.00  0.00    +0.000 HD
ENDBRANCH   3   9
ENDBRANCH   1   6
BRANCH   1  11
ATOM     11  O   UNL     1      -4.047  -1.073  -0.064  0.00  0.00    +0.000 OA
BRANCH  11  12
ATOM     12  C   UNL     1      -5.494  -1.042  -0.108  0.00  0.00    +0.000 C 
BRANCH  12  13
ATOM     13  C   UNL     1      -6.056  -2.452  -0.091  0.00  0.00    +0.000 A 
ATOM     14  C   UNL     1      -7.404  -2.688   0.234  0.00  0.00    +0.000 A 
ATOM     15  C   UNL     1      -7.880  -3.996   0.384  0.00  0.00    +0.000 A 
ATOM     16  C   UNL     1      -7.046  -5.080   0.117  0.00  0.00    +0.000 A 
ATOM     17  C   UNL     1      -5.728  -4.858  -0.270  0.00  0.00    +0.000 A 
ATOM     18  C   UNL     1      -5.240  -3.556  -0.374  0.00  0.00    +0.000 A 
ENDBRANCH  12  13
ENDBRANCH  11  12
ENDBRANCH   1  11
TORSDOF 5
