REMARK  Name = Benzphetamine
REMARK  7 active torsions:
REMARK  status: ('A' for Active; 'I' for Inactive)
REMARK    1  A    between atoms: C_1  and  C_2
REMARK    2  A    between atoms: C_2  and  C_3
REMARK    3  A    between atoms: C_2  and  N_10
REMARK    4  A    between atoms: C_3  and  C_4
REMARK    5  A    between atoms: N_10  and  C_11
REMARK    6  A    between atoms: N_10  and  C_12
REMARK    7  A    between atoms: C_12  and  C_13
REMARK                            x       y       z     vdW  Elec       q    Type
REMARK                         _______ _______ _______ _____ _____    ______ ____
ROOT
ATOM      1  C   UNL     1       0.821  -0.008  -0.118  0.00  0.00    +0.000 C 
ATOM      2  C   UNL     1       2.375   0.037  -0.101  0.00  0.00    +0.000 C 
ENDROOT
BRANCH   2   3
ATOM      3  N   UNL     1       2.867   1.246  -0.811  0.00  0.00    +0.000 NA
ATOM      4  C   UNL     1       2.250   2.417  -0.173  0.00  0.00    +0.000 C 
BRANCH   3   5
ATOM      5  C   UNL     1       4.370   1.323  -0.816  0.00  0.00    +0.000 C 
BRANCH   5   6
ATOM      6  C   UNL     1       4.958   2.534  -1.523  0.00  0.00    +0.000 A 
ATOM      7  C   UNL     1       5.931   2.435  -2.530  0.00  0.00    +0.000 A 
ATOM      8  C   UNL     1       6.388   3.596  -3.164  0.00  0.00    +0.000 A 
ATOM      9  C   UNL     1       5.789   4.830  -2.914  0.00  0.00    +0.000 A 
ATOM     10  C   UNL     1       4.845   4.935  -1.905  0.00  0.00    +0.000 A 
ATOM     11  C   UNL     1       4.573   3.820  -1.144  0.00  0.00    +0.000 A 
ENDBRANCH   5   6
ENDBRANCH   3   5
ENDBRANCH   2   3
BRANCH   2  12
ATOM     12  C   UNL     1       2.896  -1.277  -0.713  0.00  0.00    +0.000 C 
BRANCH  12  13
ATOM     13  C   UNL     1       2.521  -2.516   0.066  0.00  0.00    +0.000 A 
ATOM     14  C   UNL     1       2.093  -2.471   1.404  0.00  0.00    +0.000 A 
ATOM     15  C   UNL     1       1.885  -3.633   2.127  0.00  0.00    +0.000 A 
ATOM     16  C   UNL     1       2.093  -4.861   1.514  0.00  0.00    +0.000 A 
ATOM     17  C   UNL     1       2.500  -4.924   0.181  0.00  0.00    +0.000 A 
ATOM     18  C   UNL     1       2.710  -3.756  -0.545  0.00  0.00    +0.000 A 
ENDBRANCH  12  13
ENDBRANCH   2  12
TORSDOF 5
