REMARK  Name = Benzonatate
REMARK  35 active torsions:
REMARK  status: ('A' for Active; 'I' for Inactive)
REMARK    1  A    between atoms: C_1  and  C_2
REMARK    2  A    between atoms: C_2  and  C_3
REMARK    3  A    between atoms: C_3  and  C_4
REMARK    4  A    between atoms: C_4  and  N_5
REMARK    5  A    between atoms: N_5  and  C_6
REMARK    6  A    between atoms: C_9  and  C_12
REMARK    7  A    between atoms: C_12  and  O_14
REMARK    8  A    between atoms: O_14  and  C_15
REMARK    9  A    between atoms: C_15  and  C_16
REMARK   10  A    between atoms: C_16  and  O_17
REMARK   11  A    between atoms: O_17  and  C_18
REMARK   12  A    between atoms: C_18  and  C_19
REMARK   13  A    between atoms: C_19  and  O_20
REMARK   14  A    between atoms: O_20  and  C_21
REMARK   15  A    between atoms: C_21  and  C_22
REMARK   16  A    between atoms: C_22  and  O_23
REMARK   17  A    between atoms: O_23  and  C_24
REMARK   18  A    between atoms: C_24  and  C_25
REMARK   19  A    between atoms: C_25  and  O_26
REMARK   20  A    between atoms: O_26  and  C_27
REMARK   21  A    between atoms: C_27  and  C_28
REMARK   22  A    between atoms: C_28  and  O_29
REMARK   23  A    between atoms: O_29  and  C_30
REMARK   24  A    between atoms: C_30  and  C_31
REMARK   25  A    between atoms: C_31  and  O_32
REMARK   26  A    between atoms: O_32  and  C_33
REMARK   27  A    between atoms: C_33  and  C_34
REMARK   28  A    between atoms: C_34  and  O_35
REMARK   29  A    between atoms: O_35  and  C_36
REMARK   30  A    between atoms: C_36  and  C_37
REMARK   31  A    between atoms: C_37  and  O_38
REMARK   32  A    between atoms: O_38  and  C_39
REMARK   33  A    between atoms: C_39  and  C_40
REMARK   34  A    between atoms: C_40  and  O_41
REMARK   35  A    between atoms: O_41  and  C_42
REMARK                            x       y       z     vdW  Elec       q    Type
REMARK                         _______ _______ _______ _____ _____    ______ ____
ROOT
ATOM      1  C   UNL     1      19.181  -3.260  -2.454  0.00  0.00    +0.000 C 
ENDROOT
BRANCH   1   2
ATOM      2  C   UNL     1      19.845  -4.456  -1.795  0.00  0.00    +0.000 C 
BRANCH   2   3
ATOM      3  O   UNL     1      21.249  -4.396  -2.027  0.00  0.00    +0.000 OA
BRANCH   3   4
ATOM      4  C   UNL     1      21.900  -5.508  -1.420  0.00  0.00    +0.000 C 
BRANCH   4   5
ATOM      5  C   UNL     1      23.390  -5.412  -1.685  0.00  0.00    +0.000 C 
BRANCH   5   6
ATOM      6  O   UNL     1      24.040  -6.524  -1.078  0.00  0.00    +0.000 OA
BRANCH   6   7
ATOM      7  C   UNL     1      25.444  -6.464  -1.309  0.00  0.00    +0.000 C 
BRANCH   7   8
ATOM      8  C   UNL     1      26.104  -7.659  -0.650  0.00  0.00    +0.000 C 
BRANCH   8   9
ATOM      9  O   UNL     1      27.507  -7.599  -0.882  0.00  0.00    +0.000 OA
BRANCH   9  10
ATOM     10  C   UNL     1      28.157  -8.710  -0.275  0.00  0.00    +0.000 C 
BRANCH  10  11
ATOM     11  C   UNL     1      29.647  -8.614  -0.540  0.00  0.00    +0.000 C 
BRANCH  11  12
ATOM     12  O   UNL     1      30.297  -9.726   0.067  0.00  0.00    +0.000 OA
BRANCH  12  13
ATOM     13  C   UNL     1      31.700  -9.665  -0.164  0.00  0.00    +0.000 C 
BRANCH  13  14
ATOM     14  C   UNL     1      32.360 -10.861   0.494  0.00  0.00    +0.000 C 
BRANCH  14  15
ATOM     15  O   UNL     1      33.763 -10.801   0.263  0.00  0.00    +0.000 OA
BRANCH  15  16
ATOM     16  C   UNL     1      34.414 -11.912   0.870  0.00  0.00    +0.000 C 
BRANCH  16  17
ATOM     17  C   UNL     1      35.904 -11.817   0.605  0.00  0.00    +0.000 C 
BRANCH  17  18
ATOM     18  O   UNL     1      36.556 -12.928   1.212  0.00  0.00    +0.000 OA
BRANCH  18  19
ATOM     19  C   UNL     1      37.960 -12.868   0.980  0.00  0.00    +0.000 C 
BRANCH  19  20
ATOM     20  C   UNL     1      38.624 -14.064   1.639  0.00  0.00    +0.000 C 
BRANCH  20  21
ATOM     21  O   UNL     1      40.030 -14.008   1.410  0.00  0.00    +0.000 OA
ATOM     22  C   UNL     1      40.680 -15.116   2.015  0.00  0.00    +0.000 C 
ENDBRANCH  20  21
ENDBRANCH  19  20
ENDBRANCH  18  19
ENDBRANCH  17  18
ENDBRANCH  16  17
ENDBRANCH  15  16
ENDBRANCH  14  15
ENDBRANCH  13  14
ENDBRANCH  12  13
ENDBRANCH  11  12
ENDBRANCH  10  11
ENDBRANCH   9  10
ENDBRANCH   8   9
ENDBRANCH   7   8
ENDBRANCH   6   7
ENDBRANCH   5   6
ENDBRANCH   4   5
ENDBRANCH   3   4
ENDBRANCH   2   3
ENDBRANCH   1   2
BRANCH   1  23
ATOM     23  O   UNL     1      17.775  -3.317  -2.225  0.00  0.00    +0.000 OA
BRANCH  23  24
ATOM     24  C   UNL     1      17.123  -2.203  -2.833  0.00  0.00    +0.000 C 
BRANCH  24  25
ATOM     25  C   UNL     1      15.626  -2.290  -2.572  0.00  0.00    +0.000 C 
BRANCH  25  26
ATOM     26  O   UNL     1      14.960  -1.178  -3.177  0.00  0.00    +0.000 OA
BRANCH  26  27
ATOM     27  C   UNL     1      13.549  -1.238  -2.947  0.00  0.00    +0.000 C 
BRANCH  27  28
ATOM     28  C   UNL     1      12.843  -0.049  -3.601  0.00  0.00    +0.000 C 
BRANCH  28  29
ATOM     29  O   UNL     1      11.418  -0.135  -3.370  0.00  0.00    +0.000 OA
BRANCH  29  30
ATOM     30  C   UNL     1      10.693   0.875  -3.924  0.00  0.00    +0.000 C 
ATOM     31  O   UNL     1      11.165   1.800  -4.576  0.00  0.00    +0.000 OA
BRANCH  30  35
ATOM     32  C   UNL     1       6.456   0.777  -2.955  0.00  0.00    +0.000 A 
ATOM     33  C   UNL     1       7.017   1.804  -3.720  0.00  0.00    +0.000 A 
ATOM     34  C   UNL     1       8.375   1.787  -4.080  0.00  0.00    +0.000 A 
ATOM     35  C   UNL     1       9.230   0.773  -3.621  0.00  0.00    +0.000 A 
ATOM     36  C   UNL     1       8.679  -0.256  -2.854  0.00  0.00    +0.000 A 
ATOM     37  C   UNL     1       7.311  -0.243  -2.521  0.00  0.00    +0.000 A 
BRANCH  32  38
ATOM     38  N   UNL     1       5.109   0.829  -2.641  0.00  0.00    +0.000 N 
ATOM     39  H   UNL     1       4.464   0.996  -3.407  0.00  0.00    +0.000 HD
BRANCH  38  40
ATOM     40  C   UNL     1       4.586   0.325  -1.384  0.00  0.00    +0.000 C 
BRANCH  40  41
ATOM     41  C   UNL     1       3.058   0.325  -1.387  0.00  0.00    +0.000 C 
BRANCH  41  43
ATOM     42  C   UNL     1       1.003  -0.100  -0.004  0.00  0.00    +0.000 C 
ATOM     43  C   UNL     1       2.521  -0.095  -0.018  0.00  0.00    +0.000 C 
ENDBRANCH  41  43
ENDBRANCH  40  41
ENDBRANCH  38  40
ENDBRANCH  32  38
ENDBRANCH  30  35
ENDBRANCH  29  30
ENDBRANCH  28  29
ENDBRANCH  27  28
ENDBRANCH  26  27
ENDBRANCH  25  26
ENDBRANCH  24  25
ENDBRANCH  23  24
ENDBRANCH   1  23
TORSDOF 33
