REMARK  Name = Benzocaine
REMARK  5 active torsions:
REMARK  status: ('A' for Active; 'I' for Inactive)
REMARK    1  A    between atoms: C_1  and  C_2
REMARK    2  A    between atoms: C_2  and  O_3
REMARK    3  A    between atoms: O_3  and  C_4
REMARK    4  A    between atoms: C_4  and  C_6
REMARK    5  A    between atoms: C_9  and  N_10
REMARK                            x       y       z     vdW  Elec       q    Type
REMARK                         _______ _______ _______ _____ _____    ______ ____
ROOT
ATOM      1  C   UNL     1       4.893  -1.926  -2.208  0.00  0.00    +0.000 A 
ATOM      2  C   UNL     1       4.384  -1.897  -3.510  0.00  0.00    +0.000 A 
ATOM      3  C   UNL     1       4.802  -2.858  -4.447  0.00  0.00    +0.000 A 
ATOM      4  C   UNL     1       5.736  -3.843  -4.108  0.00  0.00    +0.000 A 
ATOM      5  C   UNL     1       6.263  -3.842  -2.816  0.00  0.00    +0.000 A 
ATOM      6  C   UNL     1       5.857  -2.886  -1.875  0.00  0.00    +0.000 A 
ENDROOT
BRANCH   4   7
ATOM      7  N   UNL     1       6.103  -4.817  -5.017  0.00  0.00    +0.000 N 
ATOM      8  H   UNL     1       5.749  -4.806  -5.964  0.00  0.00    +0.000 HD
ATOM      9  H   UNL     1       6.793  -5.517  -4.775  0.00  0.00    +0.000 HD
ENDBRANCH   4   7
BRANCH   1  10
ATOM     10  C   UNL     1       4.479  -0.953  -1.164  0.00  0.00    +0.000 C 
ATOM     11  O   UNL     1       5.281  -0.402  -0.423  0.00  0.00    +0.000 OA
BRANCH  10  12
ATOM     12  O   UNL     1       3.123  -0.850  -1.089  0.00  0.00    +0.000 OA
BRANCH  12  14
ATOM     13  C   UNL     1       1.135  -0.002   0.018  0.00  0.00    +0.000 C 
ATOM     14  C   UNL     1       2.656  -0.012  -0.011  0.00  0.00    +0.000 C 
ENDBRANCH  12  14
ENDBRANCH  10  12
ENDBRANCH   1  10
TORSDOF 4
