REMARK  Name = Benzyl benzoate
REMARK  4 active torsions:
REMARK  status: ('A' for Active; 'I' for Inactive)
REMARK    1  A    between atoms: C_2  and  O_3
REMARK    2  A    between atoms: C_2  and  C_11
REMARK    3  A    between atoms: O_3  and  C_4
REMARK    4  A    between atoms: C_4  and  C_5
REMARK                            x       y       z     vdW  Elec       q    Type
REMARK                         _______ _______ _______ _____ _____    ______ ____
ROOT
ATOM      1  O   UNL     1       0.978   0.021  -0.104  0.00  0.00    +0.000 OA
ATOM      2  C   UNL     1       2.205  -0.048  -0.039  0.00  0.00    +0.000 C 
ENDROOT
BRANCH   2   3
ATOM      3  C   UNL     1       2.939  -0.925  -0.979  0.00  0.00    +0.000 A 
ATOM      4  C   UNL     1       3.953  -1.770  -0.518  0.00  0.00    +0.000 A 
ATOM      5  C   UNL     1       4.752  -2.467  -1.415  0.00  0.00    +0.000 A 
ATOM      6  C   UNL     1       4.420  -2.475  -2.765  0.00  0.00    +0.000 A 
ATOM      7  C   UNL     1       3.333  -1.727  -3.224  0.00  0.00    +0.000 A 
ATOM      8  C   UNL     1       2.602  -0.932  -2.336  0.00  0.00    +0.000 A 
ENDBRANCH   2   3
BRANCH   2   9
ATOM      9  O   UNL     1       2.918   0.681   0.857  0.00  0.00    +0.000 OA
BRANCH   9  10
ATOM     10  C   UNL     1       4.359   0.798   0.845  0.00  0.00    +0.000 C 
BRANCH  10  11
ATOM     11  C   UNL     1       4.760   1.760   1.925  0.00  0.00    +0.000 A 
ATOM     12  C   UNL     1       5.125   1.295   3.199  0.00  0.00    +0.000 A 
ATOM     13  C   UNL     1       5.277   2.194   4.251  0.00  0.00    +0.000 A 
ATOM     14  C   UNL     1       5.156   3.562   4.015  0.00  0.00    +0.000 A 
ATOM     15  C   UNL     1       4.870   4.032   2.734  0.00  0.00    +0.000 A 
ATOM     16  C   UNL     1       4.668   3.133   1.691  0.00  0.00    +0.000 A 
ENDBRANCH  10  11
ENDBRANCH   9  10
ENDBRANCH   2   9
TORSDOF 4
