REMARK  Name = Bepotastine
REMARK  9 active torsions:
REMARK  status: ('A' for Active; 'I' for Inactive)
REMARK    1  A    between atoms: O_1  and  C_2
REMARK    2  A    between atoms: C_2  and  C_4
REMARK    3  A    between atoms: C_4  and  C_5
REMARK    4  A    between atoms: C_5  and  C_6
REMARK    5  A    between atoms: C_6  and  N_7
REMARK    6  A    between atoms: C_10  and  O_13
REMARK    7  A    between atoms: O_13  and  C_14
REMARK    8  A    between atoms: C_14  and  C_15
REMARK    9  A    between atoms: C_14  and  C_22
REMARK                            x       y       z     vdW  Elec       q    Type
REMARK                         _______ _______ _______ _____ _____    ______ ____
ROOT
ATOM      1  O   UNL     1       8.691   0.657  -1.150  0.00  0.00    +0.000 OA
ENDROOT
BRANCH   1   5
ATOM      2  N   UNL     1       6.872   1.536   1.900  0.00  0.00    +0.000 NA
ATOM      3  C   UNL     1       7.309   0.213   1.484  0.00  0.00    +0.000 C 
ATOM      4  C   UNL     1       8.807  -0.012   1.253  0.00  0.00    +0.000 C 
ATOM      5  C   UNL     1       9.296   0.919   0.144  0.00  0.00    +0.000 C 
ATOM      6  C   UNL     1       8.911   2.326   0.658  0.00  0.00    +0.000 C 
ATOM      7  C   UNL     1       7.390   2.495   0.898  0.00  0.00    +0.000 C 
BRANCH   2   8
ATOM      8  C   UNL     1       5.373   1.538   1.960  0.00  0.00    +0.000 C 
BRANCH   8   9
ATOM      9  C   UNL     1       4.582   0.684   0.926  0.00  0.00    +0.000 C 
BRANCH   9  10
ATOM     10  C   UNL     1       3.066   0.774   1.083  0.00  0.00    +0.000 C 
BRANCH  10  11
ATOM     11  C   UNL     1       2.395  -0.096   0.028  0.00  0.00    +0.000 C 
ATOM     12  O   UNL     1       2.975  -0.771  -0.789  0.00  0.00    +0.000 OA
BRANCH  11  13
ATOM     13  O   UNL     1       1.041  -0.055   0.092  0.00  0.00    +0.000 OA
ATOM     14  H   UNL     1       0.676   0.515   0.792  0.00  0.00    +0.000 HD
ENDBRANCH  11  13
ENDBRANCH  10  11
ENDBRANCH   9  10
ENDBRANCH   8   9
ENDBRANCH   2   8
ENDBRANCH   1   5
BRANCH   1  15
ATOM     15  C   UNL     1       9.083  -0.556  -1.890  0.00  0.00    +0.000 C 
BRANCH  15  16
ATOM     16  C   UNL     1       8.547  -1.845  -1.233  0.00  0.00    +0.000 A 
ATOM     17  C   UNL     1       7.340  -1.804  -0.557  0.00  0.00    +0.000 A 
ATOM     18  C   UNL     1       7.047  -2.729   0.444  0.00  0.00    +0.000 A 
ATOM     19  C   UNL     1       7.672  -3.951   0.396  0.00  0.00    +0.000 A 
ATOM     20 CL   UNL     1       7.230  -5.173   1.515  0.00  0.00    +0.000 Cl
ATOM     21  C   UNL     1       8.615  -4.180  -0.597  0.00  0.00    +0.000 A 
ATOM     22  C   UNL     1       9.134  -3.105  -1.331  0.00  0.00    +0.000 A 
ENDBRANCH  15  16
BRANCH  15  23
ATOM     23  C   UNL     1       8.595  -0.495  -3.361  0.00  0.00    +0.000 A 
ATOM     24  C   UNL     1       8.398  -1.696  -4.061  0.00  0.00    +0.000 A 
ATOM     25  C   UNL     1       7.940  -1.707  -5.363  0.00  0.00    +0.000 A 
ATOM     26  C   UNL     1       7.688  -0.500  -5.975  0.00  0.00    +0.000 A 
ATOM     27  C   UNL     1       7.913   0.661  -5.248  0.00  0.00    +0.000 A 
ATOM     28  N   UNL     1       8.375   0.696  -3.971  0.00  0.00    +0.000 NA
ENDBRANCH  15  23
ENDBRANCH   1  15
TORSDOF 9
