REMARK  Name = Bepridil
REMARK  12 active torsions:
REMARK  status: ('A' for Active; 'I' for Inactive)
REMARK    1  A    between atoms: C_1  and  C_2
REMARK    2  A    between atoms: C_2  and  C_3
REMARK    3  A    between atoms: C_2  and  C_4
REMARK    4  A    between atoms: C_4  and  O_5
REMARK    5  A    between atoms: O_5  and  C_6
REMARK    6  A    between atoms: C_6  and  C_7
REMARK    7  A    between atoms: C_7  and  C_8
REMARK    8  A    between atoms: C_7  and  N_23
REMARK    9  A    between atoms: C_8  and  N_9
REMARK   10  A    between atoms: N_9  and  C_10
REMARK   11  A    between atoms: N_9  and  C_17
REMARK   12  A    between atoms: C_10  and  C_11
REMARK                            x       y       z     vdW  Elec       q    Type
REMARK                         _______ _______ _______ _____ _____    ______ ____
ROOT
ATOM      1  N   UNL     1       6.579  -1.036  -0.704  0.00  0.00    +0.000 N 
ENDROOT
BRANCH   1   2
ATOM      2  C   UNL     1       6.940  -2.209   0.003  0.00  0.00    +0.000 A 
ATOM      3  C   UNL     1       6.055  -2.946   0.789  0.00  0.00    +0.000 A 
ATOM      4  C   UNL     1       6.450  -3.980   1.652  0.00  0.00    +0.000 A 
ATOM      5  C   UNL     1       7.756  -4.427   1.628  0.00  0.00    +0.000 A 
ATOM      6  C   UNL     1       8.634  -3.859   0.716  0.00  0.00    +0.000 A 
ATOM      7  C   UNL     1       8.227  -2.775  -0.084  0.00  0.00    +0.000 A 
ENDBRANCH   1   2
BRANCH   1   8
ATOM      8  C   UNL     1       7.005  -1.099  -2.103  0.00  0.00    +0.000 C 
BRANCH   8   9
ATOM      9  C   UNL     1       6.426   0.012  -2.973  0.00  0.00    +0.000 C 
BRANCH   9  10
ATOM     10  N   UNL     1       7.074   0.435  -4.264  0.00  0.00    +0.000 NA
ATOM     11  C   UNL     1       8.143  -0.480  -4.657  0.00  0.00    +0.000 C 
ATOM     12  C   UNL     1       9.402   0.079  -4.010  0.00  0.00    +0.000 C 
ATOM     13  C   UNL     1       9.260   1.559  -4.257  0.00  0.00    +0.000 C 
ATOM     14  C   UNL     1       7.746   1.779  -4.214  0.00  0.00    +0.000 C 
ENDBRANCH   9  10
BRANCH   9  15
ATOM     15  C   UNL     1       4.857  -0.389  -3.167  0.00  0.00    +0.000 C 
BRANCH  15  16
ATOM     16  O   UNL     1       4.120  -0.808  -1.930  0.00  0.00    +0.000 OA
BRANCH  16  17
ATOM     17  C   UNL     1       2.724  -0.479  -1.618  0.00  0.00    +0.000 C 
BRANCH  17  19
ATOM     18  C   UNL     1       0.905  -0.112   0.088  0.00  0.00    +0.000 C 
ATOM     19  C   UNL     1       2.399  -0.357  -0.073  0.00  0.00    +0.000 C 
ATOM     20  C   UNL     1       2.767  -1.617   0.671  0.00  0.00    +0.000 C 
ENDBRANCH  17  19
ENDBRANCH  16  17
ENDBRANCH  15  16
ENDBRANCH   9  15
ENDBRANCH   8   9
ENDBRANCH   1   8
BRANCH   1  21
ATOM     21  C   UNL     1       5.858   0.155  -0.042  0.00  0.00    +0.000 C 
BRANCH  21  22
ATOM     22  C   UNL     1       5.516   1.568  -0.732  0.00  0.00    +0.000 A 
ATOM     23  C   UNL     1       6.376   2.646  -0.614  0.00  0.00    +0.000 A 
ATOM     24  C   UNL     1       6.240   3.784  -1.465  0.00  0.00    +0.000 A 
ATOM     25  C   UNL     1       5.324   3.888  -2.514  0.00  0.00    +0.000 A 
ATOM     26  C   UNL     1       4.381   2.905  -2.598  0.00  0.00    +0.000 A 
ATOM     27  C   UNL     1       4.501   1.888  -1.655  0.00  0.00    +0.000 A 
ENDBRANCH  21  22
ENDBRANCH   1  21
TORSDOF 10
