REMARK  Name = Berberine
REMARK  4 active torsions:
REMARK  status: ('A' for Active; 'I' for Inactive)
REMARK    1  A    between atoms: C_1  and  O_2
REMARK    2  A    between atoms: O_2  and  C_3
REMARK    3  A    between atoms: C_23  and  O_24
REMARK    4  A    between atoms: O_24  and  C_25
REMARK                            x       y       z     vdW  Elec       q    Type
REMARK                         _______ _______ _______ _____ _____    ______ ____
ROOT
ATOM      1  C   UNL     1       2.989  -0.895  -0.797  0.00  0.00    +0.000 A 
ATOM      2  C   UNL     1       2.557  -1.046  -2.116  0.00  0.00    +0.000 A 
ATOM      3  C   UNL     1       3.268  -1.835  -3.011  0.00  0.00    +0.000 A 
ATOM      4  C   UNL     1       4.420  -2.504  -2.604  0.00  0.00    +0.000 A 
ATOM      5  C   UNL     1       5.118  -3.290  -3.516  0.00  0.00    +0.000 A 
ATOM      6  C   UNL     1       6.256  -4.007  -3.132  0.00  0.00    +0.000 A 
ATOM      7  C   UNL     1       7.028  -4.867  -4.055  0.00  0.00    +0.000 A 
ATOM      8  C   UNL     1       6.541  -5.214  -5.336  0.00  0.00    +0.000 A 
ATOM      9  C   UNL     1       7.329  -5.970  -6.181  0.00  0.00    +0.000 A 
ATOM     10  C   UNL     1       8.564  -6.423  -5.805  0.00  0.00    +0.000 A 
ATOM     11  O   UNL     1       9.173  -7.137  -6.786  0.00  0.00    +0.000 OA
ATOM     12  C   UNL     1       8.221  -6.990  -7.863  0.00  0.00    +0.000 C 
ATOM     13  O   UNL     1       7.003  -6.332  -7.449  0.00  0.00    +0.000 OA
ATOM     14  C   UNL     1       9.084  -6.135  -4.565  0.00  0.00    +0.000 A 
ATOM     15  C   UNL     1       8.314  -5.345  -3.688  0.00  0.00    +0.000 A 
ATOM     16  C   UNL     1       8.897  -4.915  -2.373  0.00  0.00    +0.000 C 
ATOM     17  C   UNL     1       7.809  -4.735  -1.334  0.00  0.00    +0.000 C 
ATOM     18  N   UNL     1       6.687  -3.903  -1.841  0.00  0.00    +0.000 N 
ATOM     19  C   UNL     1       6.032  -3.111  -0.948  0.00  0.00    +0.000 A 
ATOM     20  C   UNL     1       4.878  -2.386  -1.281  0.00  0.00    +0.000 A 
ATOM     21  C   UNL     1       4.159  -1.556  -0.367  0.00  0.00    +0.000 A 
ENDROOT
BRANCH   1  23
ATOM     22  C   UNL     1       0.929  -0.060   0.037  0.00  0.00    +0.000 C 
ATOM     23  O   UNL     1       2.354  -0.007   0.027  0.00  0.00    +0.000 OA
ENDBRANCH   1  23
BRANCH  21  24
ATOM     24  O   UNL     1       4.715  -1.491   0.894  0.00  0.00    +0.000 OA
ATOM     25  C   UNL     1       4.055  -0.698   1.881  0.00  0.00    +0.000 C 
ENDBRANCH  21  24
TORSDOF 2
