REMARK  Name = Besifloxacin
REMARK  5 active torsions:
REMARK  status: ('A' for Active; 'I' for Inactive)
REMARK    1  A    between atoms: N_1  and  C_2
REMARK    2  A    between atoms: N_7  and  C_9
REMARK    3  A    between atoms: C_16  and  C_25
REMARK    4  A    between atoms: N_18  and  C_19
REMARK    5  A    between atoms: C_25  and  O_26
REMARK                            x       y       z     vdW  Elec       q    Type
REMARK                         _______ _______ _______ _____ _____    ______ ____
ROOT
ATOM      1  C   UNL     1       5.285  -1.971   0.367  0.00  0.00    +0.000 A 
ATOM      2  C   UNL     1       6.258  -1.293   1.125  0.00  0.00    +0.000 A 
ATOM      3  F   UNL     1       6.391   0.036   1.048  0.00  0.00    +0.000 F 
ATOM      4  C   UNL     1       7.092  -1.930   2.025  0.00  0.00    +0.000 A 
ATOM      5  C   UNL     1       6.995  -3.306   2.206  0.00  0.00    +0.000 A 
ATOM      6  C   UNL     1       7.945  -3.921   3.167  0.00  0.00    +0.000 A 
ATOM      7  O   UNL     1       8.740  -3.193   3.752  0.00  0.00    +0.000 OA
ATOM      8  C   UNL     1       7.901  -5.391   3.380  0.00  0.00    +0.000 A 
ATOM      9  C   UNL     1       6.970  -6.033   2.656  0.00  0.00    +0.000 A 
ATOM     10  N   UNL     1       6.060  -5.498   1.751  0.00  0.00    +0.000 N 
ATOM     11  C   UNL     1       6.042  -4.078   1.503  0.00  0.00    +0.000 A 
ATOM     12  C   UNL     1       5.173  -3.374   0.594  0.00  0.00    +0.000 A 
ATOM     13 CL   UNL     1       3.935  -4.177  -0.358  0.00  0.00    +0.000 Cl
ENDROOT
BRANCH   1  19
ATOM     14  C   UNL     1       2.492   0.061  -0.057  0.00  0.00    +0.000 C 
ATOM     15  C   UNL     1       3.001   1.242  -0.900  0.00  0.00    +0.000 C 
ATOM     16  C   UNL     1       4.461   1.564  -0.572  0.00  0.00    +0.000 C 
ATOM     17  C   UNL     1       5.475   0.822  -1.448  0.00  0.00    +0.000 C 
ATOM     18  C   UNL     1       5.144  -0.640  -1.721  0.00  0.00    +0.000 C 
ATOM     19  N   UNL     1       4.513  -1.290  -0.573  0.00  0.00    +0.000 N 
ATOM     20  C   UNL     1       3.044  -1.286  -0.556  0.00  0.00    +0.000 C 
BRANCH  14  21
ATOM     21  N   UNL     1       1.021   0.042  -0.082  0.00  0.00    +0.000 NA
ATOM     22  H   UNL     1       0.676   0.915   0.315  0.00  0.00    +0.000 HD
ATOM     23  H   UNL     1       0.689  -0.699   0.536  0.00  0.00    +0.000 HD
ENDBRANCH  14  21
ENDBRANCH   1  19
BRANCH  10  24
ATOM     24  C   UNL     1       5.209  -6.420   0.976  0.00  0.00    +0.000 C 
ATOM     25  C   UNL     1       5.181  -7.912   0.943  0.00  0.00    +0.000 C 
ATOM     26  C   UNL     1       4.087  -7.172   1.655  0.00  0.00    +0.000 C 
ENDBRANCH  10  24
BRANCH   8  27
ATOM     27  C   UNL     1       8.842  -6.044   4.332  0.00  0.00    +0.000 C 
ATOM     28  O   UNL     1       9.680  -5.435   4.986  0.00  0.00    +0.000 OA
BRANCH  27  29
ATOM     29  O   UNL     1       8.749  -7.384   4.468  0.00  0.00    +0.000 OA
ATOM     30  H   UNL     1       8.092  -7.878   3.957  0.00  0.00    +0.000 HD
ENDBRANCH  27  29
ENDBRANCH   8  27
TORSDOF 5
