REMARK  Name = Beta carotene
REMARK  20 active torsions:
REMARK  status: ('A' for Active; 'I' for Inactive)
REMARK    1  A    between atoms: C_1  and  C_2
REMARK    2  A    between atoms: C_2  and  C_3
REMARK    3  A    between atoms: C_4  and  C_5
REMARK    4  A    between atoms: C_6  and  C_7
REMARK    5  A    between atoms: C_6  and  C_8
REMARK    6  A    between atoms: C_9  and  C_10
REMARK    7  A    between atoms: C_11  and  C_12
REMARK    8  A    between atoms: C_16  and  C_17
REMARK    9  A    between atoms: C_16  and  C_18
REMARK   10  A    between atoms: C_19  and  C_20
REMARK   11  A    between atoms: C_21  and  C_22
REMARK   12  A    between atoms: C_23  and  C_24
REMARK   13  A    between atoms: C_23  and  C_25
REMARK   14  A    between atoms: C_26  and  C_27
REMARK   15  A    between atoms: C_28  and  C_29
REMARK   16  A    between atoms: C_28  and  C_30
REMARK   17  A    between atoms: C_31  and  C_32
REMARK   18  A    between atoms: C_33  and  C_34
REMARK   19  A    between atoms: C_38  and  C_39
REMARK   20  A    between atoms: C_38  and  C_40
REMARK                            x       y       z     vdW  Elec       q    Type
REMARK                         _______ _______ _______ _____ _____    ______ ____
ROOT
ATOM      1  C   UNL     1       2.535   1.950   1.512  0.00  0.00    +0.000 C 
ATOM      2  C   UNL     1       3.176   2.873   2.246  0.00  0.00    +0.000 C 
ENDROOT
BRANCH   1   5
ATOM      3  C   UNL     1       1.076  -0.004  -0.040  0.00  0.00    +0.000 C 
ATOM      4  C   UNL     1       2.592   0.005  -0.028  0.00  0.00    +0.000 C 
ATOM      5  C   UNL     1       3.226   0.943   0.714  0.00  0.00    +0.000 C 
BRANCH   4   6
ATOM      6  C   UNL     1       3.355  -0.983  -0.813  0.00  0.00    +0.000 C 
ATOM      7  C   UNL     1       2.786  -1.934  -1.574  0.00  0.00    +0.000 C 
BRANCH   7   8
ATOM      8  C   UNL     1       3.413  -2.932  -2.419  0.00  0.00    +0.000 C 
ATOM      9  C   UNL     1       2.722  -3.822  -3.180  0.00  0.00    +0.000 C 
ATOM     10  C   UNL     1       1.213  -3.929  -3.197  0.00  0.00    +0.000 C 
BRANCH   9  11
ATOM     11  C   UNL     1       3.434  -4.778  -4.039  0.00  0.00    +0.000 C 
ATOM     12  C   UNL     1       2.885  -5.793  -4.742  0.00  0.00    +0.000 C 
BRANCH  12  13
ATOM     13  C   UNL     1       3.647  -6.843  -5.436  0.00  0.00    +0.000 C 
ATOM     14  C   UNL     1       4.662  -7.491  -4.808  0.00  0.00    +0.000 C 
ATOM     15  C   UNL     1       5.061  -7.303  -3.361  0.00  0.00    +0.000 C 
ATOM     16  C   UNL     1       5.525  -8.529  -5.488  0.00  0.00    +0.000 C 
ATOM     17  C   UNL     1       5.344  -8.617  -6.995  0.00  0.00    +0.000 C 
ATOM     18  C   UNL     1       3.865  -8.577  -7.335  0.00  0.00    +0.000 C 
ATOM     19  C   UNL     1       3.191  -7.250  -6.869  0.00  0.00    +0.000 C 
ATOM     20  C   UNL     1       1.667  -7.501  -6.968  0.00  0.00    +0.000 C 
ATOM     21  C   UNL     1       3.560  -6.139  -7.873  0.00  0.00    +0.000 C 
ENDBRANCH  12  13
ENDBRANCH   9  11
ENDBRANCH   7   8
ENDBRANCH   4   6
ENDBRANCH   1   5
BRANCH   2  22
ATOM     22  C   UNL     1       2.516   3.888   3.055  0.00  0.00    +0.000 C 
ATOM     23  C   UNL     1       3.156   4.820   3.799  0.00  0.00    +0.000 C 
ATOM     24  C   UNL     1       4.669   4.900   3.860  0.00  0.00    +0.000 C 
BRANCH  23  25
ATOM     25  C   UNL     1       2.396   5.815   4.590  0.00  0.00    +0.000 C 
ATOM     26  C   UNL     1       2.981   6.765   5.344  0.00  0.00    +0.000 C 
BRANCH  26  27
ATOM     27  C   UNL     1       2.349   7.804   6.143  0.00  0.00    +0.000 C 
ATOM     28  C   UNL     1       3.023   8.740   6.859  0.00  0.00    +0.000 C 
ATOM     29  C   UNL     1       4.532   8.802   6.945  0.00  0.00    +0.000 C 
BRANCH  28  30
ATOM     30  C   UNL     1       2.300   9.772   7.622  0.00  0.00    +0.000 C 
ATOM     31  C   UNL     1       2.852  10.697   8.438  0.00  0.00    +0.000 C 
BRANCH  31  32
ATOM     32  C   UNL     1       2.107  11.667   9.255  0.00  0.00    +0.000 C 
ATOM     33  C   UNL     1       1.083  11.281  10.058  0.00  0.00    +0.000 C 
ATOM     34  C   UNL     1       0.666   9.852  10.312  0.00  0.00    +0.000 C 
ATOM     35  C   UNL     1       0.227  12.263  10.831  0.00  0.00    +0.000 C 
ATOM     36  C   UNL     1       0.428  13.719  10.442  0.00  0.00    +0.000 C 
ATOM     37  C   UNL     1       1.912  14.013  10.314  0.00  0.00    +0.000 C 
ATOM     38  C   UNL     1       2.587  13.146   9.209  0.00  0.00    +0.000 C 
ATOM     39  C   UNL     1       4.111  13.289   9.439  0.00  0.00    +0.000 C 
ATOM     40  C   UNL     1       2.246  13.750   7.831  0.00  0.00    +0.000 C 
ENDBRANCH  31  32
ENDBRANCH  28  30
ENDBRANCH  26  27
ENDBRANCH  23  25
ENDBRANCH   2  22
TORSDOF 10
