REMARK  Name = Betazole
REMARK  3 active torsions:
REMARK  status: ('A' for Active; 'I' for Inactive)
REMARK    1  A    between atoms: N_1  and  C_2
REMARK    2  A    between atoms: C_2  and  C_3
REMARK    3  A    between atoms: C_3  and  C_4
REMARK                            x       y       z     vdW  Elec       q    Type
REMARK                         _______ _______ _______ _____ _____    ______ ____
ROOT
ATOM      1  C   UNL     1       4.499  -0.198   1.485  0.00  0.00    +0.000 A 
ATOM      2  C   UNL     1       5.348   0.885   1.488  0.00  0.00    +0.000 A 
ATOM      3  C   UNL     1       6.638   0.329   1.477  0.00  0.00    +0.000 A 
ATOM      4  N   UNL     1       6.616  -1.005   1.469  0.00  0.00    +0.000 NA
ATOM      5  N   UNL     1       5.306  -1.305   1.479  0.00  0.00    +0.000 N 
ATOM      6  H   UNL     1       5.038  -2.284   1.475  0.00  0.00    +0.000 HD
ENDROOT
BRANCH   1   7
ATOM      7  C   UNL     1       3.012  -0.273   1.472  0.00  0.00    +0.000 C 
BRANCH   7   8
ATOM      8  C   UNL     1       2.465  -0.098   0.051  0.00  0.00    +0.000 C 
BRANCH   8   9
ATOM      9  N   UNL     1       1.004  -0.107   0.045  0.00  0.00    +0.000 NA
ATOM     10  H   UNL     1       0.674   0.048  -0.907  0.00  0.00    +0.000 HD
ATOM     11  H   UNL     1       0.659   0.683   0.592  0.00  0.00    +0.000 HD
ENDBRANCH   8   9
ENDBRANCH   7   8
ENDBRANCH   1   7
TORSDOF 3
