REMARK  Name = Betaxolol
REMARK  14 active torsions:
REMARK  status: ('A' for Active; 'I' for Inactive)
REMARK    1  A    between atoms: C_1  and  C_2
REMARK    2  A    between atoms: C_2  and  C_3
REMARK    3  A    between atoms: C_2  and  N_4
REMARK    4  A    between atoms: N_4  and  C_5
REMARK    5  A    between atoms: C_5  and  C_6
REMARK    6  A    between atoms: C_6  and  O_7
REMARK    7  A    between atoms: C_6  and  C_8
REMARK    8  A    between atoms: C_8  and  O_9
REMARK    9  A    between atoms: O_9  and  C_10
REMARK   10  A    between atoms: C_13  and  C_14
REMARK   11  A    between atoms: C_14  and  C_15
REMARK   12  A    between atoms: C_15  and  O_16
REMARK   13  A    between atoms: O_16  and  C_17
REMARK   14  A    between atoms: C_17  and  C_18
REMARK                            x       y       z     vdW  Elec       q    Type
REMARK                         _______ _______ _______ _____ _____    ______ ____
ROOT
ATOM      1  C   UNL     1       8.349   4.190   1.072  0.00  0.00    +0.000 A 
ATOM      2  C   UNL     1       8.898   5.020   2.052  0.00  0.00    +0.000 A 
ATOM      3  C   UNL     1      10.252   5.365   2.009  0.00  0.00    +0.000 A 
ATOM      4  C   UNL     1      11.080   4.847   1.011  0.00  0.00    +0.000 A 
ATOM      5  C   UNL     1      10.502   4.032   0.021  0.00  0.00    +0.000 A 
ATOM      6  C   UNL     1       9.150   3.709   0.050  0.00  0.00    +0.000 A 
ENDROOT
BRANCH   1   7
ATOM      7  O   UNL     1       7.002   3.989   1.146  0.00  0.00    +0.000 OA
BRANCH   7   8
ATOM      8  C   UNL     1       6.555   2.695   0.745  0.00  0.00    +0.000 C 
BRANCH   8   9
ATOM      9  C   UNL     1       5.021   2.690   0.752  0.00  0.00    +0.000 C 
BRANCH   9  10
ATOM     10  O   UNL     1       4.500   3.037   2.042  0.00  0.00    +0.000 OA
ATOM     11  H   UNL     1       4.914   2.450   2.694  0.00  0.00    +0.000 HD
ENDBRANCH   9  10
BRANCH   9  12
ATOM     12  C   UNL     1       4.532   1.289   0.366  0.00  0.00    +0.000 C 
BRANCH  12  13
ATOM     13  N   UNL     1       3.070   1.235   0.318  0.00  0.00    +0.000 NA
ATOM     14  H   UNL     1       2.702   1.571   1.213  0.00  0.00    +0.000 HD
BRANCH  13  16
ATOM     15  C   UNL     1       1.036  -0.079   0.049  0.00  0.00    +0.000 C 
ATOM     16  C   UNL     1       2.564  -0.105   0.011  0.00  0.00    +0.000 C 
ATOM     17  C   UNL     1       3.028  -0.564  -1.374  0.00  0.00    +0.000 C 
ENDBRANCH  13  16
ENDBRANCH  12  13
ENDBRANCH   9  12
ENDBRANCH   8   9
ENDBRANCH   7   8
ENDBRANCH   1   7
BRANCH   4  18
ATOM     18  C   UNL     1      12.566   5.140   1.044  0.00  0.00    +0.000 C 
BRANCH  18  19
ATOM     19  C   UNL     1      13.322   4.436  -0.076  0.00  0.00    +0.000 C 
BRANCH  19  20
ATOM     20  O   UNL     1      14.720   4.684  -0.030  0.00  0.00    +0.000 OA
BRANCH  20  21
ATOM     21  C   UNL     1      15.334   3.978  -1.109  0.00  0.00    +0.000 C 
BRANCH  21  22
ATOM     22  C   UNL     1      16.799   4.218  -1.082  0.00  0.00    +0.000 C 
ATOM     23  C   UNL     1      17.648   3.542  -2.125  0.00  0.00    +0.000 C 
ATOM     24  C   UNL     1      17.471   5.035  -2.154  0.00  0.00    +0.000 C 
ENDBRANCH  21  22
ENDBRANCH  20  21
ENDBRANCH  19  20
ENDBRANCH  18  19
ENDBRANCH   4  18
TORSDOF 12
