REMARK  Name = Betamethasone
REMARK  8 active torsions:
REMARK  status: ('A' for Active; 'I' for Inactive)
REMARK    1  A    between atoms: C_4  and  C_5
REMARK    2  A    between atoms: C_6  and  O_7
REMARK    3  A    between atoms: C_6  and  C_8
REMARK    4  A    between atoms: C_8  and  C_10
REMARK    5  A    between atoms: C_10  and  O_11
REMARK    6  A    between atoms: C_12  and  C_13
REMARK    7  A    between atoms: C_15  and  O_16
REMARK    8  A    between atoms: C_29  and  C_30
REMARK                            x       y       z     vdW  Elec       q    Type
REMARK                         _______ _______ _______ _____ _____    ______ ____
ROOT
ATOM      1  C   UNL     1       1.808  -0.091  -0.100  0.00  0.00    +0.000 C 
ATOM      2  C   UNL     1       2.199   0.024  -1.455  0.00  0.00    +0.000 C 
ATOM      3  C   UNL     1       3.358  -0.482  -0.668  0.00  0.00    +0.000 C 
ATOM      4  C   UNL     1       4.313  -0.337  -2.249  0.00  0.00    +0.000 C 
ATOM      5  C   UNL     1       2.826  -1.103   1.245  0.00  0.00    +0.000 C 
ATOM      6  C   UNL     1       2.752  -1.730   0.062  0.00  0.00    +0.000 C 
ATOM      7  C   UNL     1       1.943  -2.907  -0.322  0.00  0.00    +0.000 C 
ATOM      8  C   UNL     1       4.549  -1.729   0.538  0.00  0.00    +0.000 C 
ATOM      9  C   UNL     1       4.960  -0.140   1.385  0.00  0.00    +0.000 C 
ATOM     10  C   UNL     1       4.087   1.359   1.015  0.00  0.00    +0.000 C 
ATOM     11  F   UNL     1       3.964   1.430  -0.395  0.00  0.00    +0.000 F 
ATOM     12  C   UNL     1       2.453   1.271   0.958  0.00  0.00    +0.000 C 
ATOM     13  C   UNL     1       1.968   2.533   0.212  0.00  0.00    +0.000 C 
ATOM     14  C   UNL     1       2.660   3.754   0.726  0.00  0.00    +0.000 C 
ATOM     15  C   UNL     1       4.081   3.707   0.217  0.00  0.00    +0.000 C 
ATOM     16  C   UNL     1       4.729   4.748  -0.350  0.00  0.00    +0.000 C 
ATOM     17  C   UNL     1       4.580   5.620   0.803  0.00  0.00    +0.000 C 
ATOM     18  O   UNL     1       3.739   6.486   0.912  0.00  0.00    +0.000 OA
ATOM     19  C   UNL     1       5.591   5.142   1.805  0.00  0.00    +0.000 C 
ATOM     20  C   UNL     1       5.778   3.748   1.877  0.00  0.00    +0.000 C 
ATOM     21  C   UNL     1       5.024   2.701   0.855  0.00  0.00    +0.000 C 
ATOM     22  C   UNL     1       5.891   2.261  -0.488  0.00  0.00    +0.000 C 
ENDROOT
BRANCH   5  23
ATOM     23  O   UNL     1       1.352  -1.055   1.733  0.00  0.00    +0.000 OA
ATOM     24  H   UNL     1       1.194  -1.155   2.680  0.00  0.00    +0.000 HD
ENDBRANCH   5  23
BRANCH   5  25
ATOM     25  C   UNL     1       3.003  -2.594   2.358  0.00  0.00    +0.000 C 
ATOM     26  O   UNL     1       3.437  -3.688   1.956  0.00  0.00    +0.000 OA
BRANCH  25  27
ATOM     27  C   UNL     1       2.525  -2.705   3.915  0.00  0.00    +0.000 C 
BRANCH  27  28
ATOM     28  O   UNL     1       2.974  -3.956   4.518  0.00  0.00    +0.000 OA
ATOM     29  H   UNL     1       2.704  -4.694   3.932  0.00  0.00    +0.000 HD
ENDBRANCH  27  28
ENDBRANCH  25  27
ENDBRANCH   5  25
BRANCH   9  30
ATOM     30  O   UNL     1       4.886  -0.383   2.800  0.00  0.00    +0.000 OA
ATOM     31  H   UNL     1       3.972  -0.288   3.112  0.00  0.00    +0.000 HD
ENDBRANCH   9  30
TORSDOF 5
