REMARK  Name = Betaine
REMARK  5 active torsions:
REMARK  status: ('A' for Active; 'I' for Inactive)
REMARK    1  A    between atoms: C_1  and  N_2
REMARK    2  A    between atoms: N_2  and  C_3
REMARK    3  A    between atoms: N_2  and  C_4
REMARK    4  A    between atoms: N_2  and  C_5
REMARK    5  A    between atoms: C_5  and  C_6
REMARK                            x       y       z     vdW  Elec       q    Type
REMARK                         _______ _______ _______ _____ _____    ______ ____
ROOT
ATOM      1  C   UNL     1       1.011   0.039  -0.083  0.00  0.00    +0.000 C 
ATOM      2  N   UNL     1       2.514  -0.022  -0.031  0.00  0.00    +0.000 N 
ATOM      3  C   UNL     1       2.992   0.239   1.387  0.00  0.00    +0.000 C 
ATOM      4  C   UNL     1       2.992  -1.377  -0.526  0.00  0.00    +0.000 C 
ENDROOT
BRANCH   2   5
ATOM      5  C   UNL     1       3.156   1.086  -0.967  0.00  0.00    +0.000 C 
BRANCH   5   6
ATOM      6  C   UNL     1       4.716   1.210  -1.072  0.00  0.00    +0.000 C 
ATOM      7  O   UNL     1       5.377   0.385  -0.375  0.00  0.00    +0.000 OA
ATOM      8  O   UNL     1       5.116   2.119  -1.840  0.00  0.00    +0.000 OA
ENDBRANCH   5   6
ENDBRANCH   2   5
TORSDOF 2
