REMARK  Name = Betahistine
REMARK  4 active torsions:
REMARK  status: ('A' for Active; 'I' for Inactive)
REMARK    1  A    between atoms: C_1  and  N_2
REMARK    2  A    between atoms: N_2  and  C_3
REMARK    3  A    between atoms: C_3  and  C_4
REMARK    4  A    between atoms: C_4  and  C_5
REMARK                            x       y       z     vdW  Elec       q    Type
REMARK                         _______ _______ _______ _____ _____    ______ ____
ROOT
ATOM      1  C   UNL     1       4.894   2.079  -2.043  0.00  0.00    +0.000 A 
ATOM      2  C   UNL     1       4.621   3.424  -1.794  0.00  0.00    +0.000 A 
ATOM      3  C   UNL     1       4.900   4.360  -2.782  0.00  0.00    +0.000 A 
ATOM      4  C   UNL     1       5.476   3.939  -3.970  0.00  0.00    +0.000 A 
ATOM      5  C   UNL     1       5.757   2.590  -4.122  0.00  0.00    +0.000 A 
ATOM      6  N   UNL     1       5.467   1.652  -3.191  0.00  0.00    +0.000 NA
ENDROOT
BRANCH   1   7
ATOM      7  C   UNL     1       4.436   1.035  -1.053  0.00  0.00    +0.000 C 
BRANCH   7   8
ATOM      8  C   UNL     1       2.903   0.993  -1.034  0.00  0.00    +0.000 C 
BRANCH   8  10
ATOM      9  C   UNL     1       0.941   0.040  -0.050  0.00  0.00    +0.000 C 
ATOM     10  N   UNL     1       2.399   0.033  -0.049  0.00  0.00    +0.000 NA
ATOM     11  H   UNL     1       2.732  -0.900  -0.291  0.00  0.00    +0.000 HD
ENDBRANCH   8  10
ENDBRANCH   7   8
ENDBRANCH   1   7
TORSDOF 3
