REMARK  Name = Betamethasone phosphate
REMARK  11 active torsions:
REMARK  status: ('A' for Active; 'I' for Inactive)
REMARK    1  A    between atoms: C_4  and  C_5
REMARK    2  A    between atoms: C_6  and  O_7
REMARK    3  A    between atoms: C_6  and  C_8
REMARK    4  A    between atoms: C_8  and  C_10
REMARK    5  A    between atoms: C_10  and  O_11
REMARK    6  A    between atoms: O_11  and  P_12
REMARK    7  A    between atoms: P_12  and  O_13
REMARK    8  A    between atoms: P_12  and  O_14
REMARK    9  A    between atoms: C_16  and  C_17
REMARK   10  A    between atoms: C_19  and  O_20
REMARK   11  A    between atoms: C_33  and  C_34
REMARK                            x       y       z     vdW  Elec       q    Type
REMARK                         _______ _______ _______ _____ _____    ______ ____
ROOT
ATOM      1  C   UNL     1       1.764   0.050  -0.068  0.00  0.00    +0.000 C 
ATOM      2  C   UNL     1       2.160   0.169  -1.421  0.00  0.00    +0.000 C 
ATOM      3  C   UNL     1       3.321  -0.336  -0.633  0.00  0.00    +0.000 C 
ATOM      4  C   UNL     1       4.272  -0.190  -2.224  0.00  0.00    +0.000 C 
ATOM      5  C   UNL     1       2.793  -0.992   1.275  0.00  0.00    +0.000 C 
ATOM      6  C   UNL     1       2.708  -1.587   0.077  0.00  0.00    +0.000 C 
ATOM      7  C   UNL     1       1.896  -2.761  -0.299  0.00  0.00    +0.000 C 
ATOM      8  C   UNL     1       4.509  -1.581   0.560  0.00  0.00    +0.000 C 
ATOM      9  C   UNL     1       4.910   0.001   1.422  0.00  0.00    +0.000 C 
ATOM     10  C   UNL     1       4.029   1.496   1.064  0.00  0.00    +0.000 C 
ATOM     11  F   UNL     1       3.916   1.571  -0.344  0.00  0.00    +0.000 F 
ATOM     12  C   UNL     1       2.401   1.406   0.996  0.00  0.00    +0.000 C 
ATOM     13  C   UNL     1       1.920   2.671   0.246  0.00  0.00    +0.000 C 
ATOM     14  C   UNL     1       2.605   3.895   0.761  0.00  0.00    +0.000 C 
ATOM     15  C   UNL     1       4.022   3.840   0.255  0.00  0.00    +0.000 C 
ATOM     16  C   UNL     1       4.675   4.857  -0.354  0.00  0.00    +0.000 C 
ATOM     17  C   UNL     1       4.550   5.785   0.751  0.00  0.00    +0.000 C 
ATOM     18  O   UNL     1       3.677   6.621   0.857  0.00  0.00    +0.000 OA
ATOM     19  C   UNL     1       5.576   5.297   1.745  0.00  0.00    +0.000 C 
ATOM     20  C   UNL     1       5.711   3.910   1.926  0.00  0.00    +0.000 C 
ATOM     21  C   UNL     1       4.954   2.843   0.918  0.00  0.00    +0.000 C 
ATOM     22  C   UNL     1       5.838   2.398  -0.430  0.00  0.00    +0.000 C 
ENDROOT
BRANCH   5  23
ATOM     23  O   UNL     1       1.330  -0.920   1.769  0.00  0.00    +0.000 OA
ATOM     24  H   UNL     1       1.154  -1.031   2.712  0.00  0.00    +0.000 HD
ENDBRANCH   5  23
BRANCH   5  25
ATOM     25  C   UNL     1       2.992  -2.536   2.349  0.00  0.00    +0.000 C 
ATOM     26  O   UNL     1       3.456  -3.601   1.915  0.00  0.00    +0.000 OA
BRANCH  25  27
ATOM     27  C   UNL     1       2.571  -2.713   3.927  0.00  0.00    +0.000 C 
BRANCH  27  28
ATOM     28  O   UNL     1       2.999  -4.059   4.608  0.00  0.00    +0.000 OA
BRANCH  28  29
ATOM     29  P   UNL     1       2.672  -4.385   6.275  0.00  0.00    +0.000 P 
ATOM     30  O   UNL     1       2.380  -4.676   7.767  0.00  0.00    +0.000 OA
BRANCH  29  31
ATOM     31  O   UNL     1       1.740  -3.023   6.288  0.00  0.00    +0.000 OA
ATOM     32  H   UNL     1       2.167  -2.159   6.225  0.00  0.00    +0.000 HD
ENDBRANCH  29  31
BRANCH  29  33
ATOM     33  O   UNL     1       1.447  -5.308   5.691  0.00  0.00    +0.000 OA
ATOM     34  H   UNL     1       1.650  -5.669   4.813  0.00  0.00    +0.000 HD
ENDBRANCH  29  33
ENDBRANCH  28  29
ENDBRANCH  27  28
ENDBRANCH  25  27
ENDBRANCH   5  25
BRANCH   9  35
ATOM     35  O   UNL     1       4.826  -0.263   2.835  0.00  0.00    +0.000 OA
ATOM     36  H   UNL     1       3.912  -0.130   3.132  0.00  0.00    +0.000 HD
ENDBRANCH   9  35
TORSDOF 8
