REMARK  Name = Bethanidine
REMARK  4 active torsions:
REMARK  status: ('A' for Active; 'I' for Inactive)
REMARK    1  A    between atoms: C_1  and  N_2
REMARK    2  A    between atoms: N_4  and  C_5
REMARK    3  A    between atoms: C_5  and  C_6
REMARK    4  A    between atoms: N_12  and  C_13
REMARK                            x       y       z     vdW  Elec       q    Type
REMARK                         _______ _______ _______ _____ _____    ______ ____
ROOT
ATOM      1  C   UNL     1       1.045   0.321   0.024  0.00  0.00    +0.000 C 
ATOM      2  N   UNL     1       2.458   0.077  -0.004  0.00  0.00    +0.000 N 
ATOM      3  C   UNL     1       3.150  -1.090  -0.068  0.00  0.00    +0.000 C 
ATOM      4  N   UNL     1       2.488  -2.270  -0.149  0.00  0.00    +0.000 N 
ATOM      5  N   UNL     1       4.449  -1.180  -0.059  0.00  0.00    +0.000 NA
ATOM      6  C   UNL     1       5.233   0.044   0.012  0.00  0.00    +0.000 C 
ATOM      7  H   UNL     1       3.016   0.915   0.063  0.00  0.00    +0.000 HD
ATOM      8  H   UNL     1       3.116  -3.060  -0.120  0.00  0.00    +0.000 HD
ENDROOT
BRANCH   4   9
ATOM      9  C   UNL     1       1.073  -2.522  -0.181  0.00  0.00    +0.000 C 
BRANCH   9  10
ATOM     10  C   UNL     1       0.609  -3.949  -0.230  0.00  0.00    +0.000 A 
ATOM     11  C   UNL     1      -0.771  -4.188  -0.058  0.00  0.00    +0.000 A 
ATOM     12  C   UNL     1      -1.259  -5.488   0.027  0.00  0.00    +0.000 A 
ATOM     13  C   UNL     1      -0.382  -6.557  -0.130  0.00  0.00    +0.000 A 
ATOM     14  C   UNL     1       0.973  -6.328  -0.360  0.00  0.00    +0.000 A 
ATOM     15  C   UNL     1       1.467  -5.030  -0.417  0.00  0.00    +0.000 A 
ENDBRANCH   9  10
ENDBRANCH   4   9
TORSDOF 2
