REMARK  Name = Bethanechol
REMARK  8 active torsions:
REMARK  status: ('A' for Active; 'I' for Inactive)
REMARK    1  A    between atoms: C_1  and  C_2
REMARK    2  A    between atoms: C_2  and  C_3
REMARK    3  A    between atoms: C_2  and  O_8
REMARK    4  A    between atoms: C_3  and  N_4
REMARK    5  A    between atoms: N_4  and  C_5
REMARK    6  A    between atoms: N_4  and  C_6
REMARK    7  A    between atoms: N_4  and  C_7
REMARK    8  A    between atoms: O_8  and  C_9
REMARK                            x       y       z     vdW  Elec       q    Type
REMARK                         _______ _______ _______ _____ _____    ______ ____
ROOT
ATOM      1  C   UNL     1       1.096   0.214   0.340  0.00  0.00    +0.000 C 
ATOM      2  C   UNL     1       2.606   0.095   0.117  0.00  0.00    +0.000 C 
ENDROOT
BRANCH   2   3
ATOM      3  C   UNL     1       2.995   0.062  -1.385  0.00  0.00    +0.000 C 
BRANCH   3   4
ATOM      4  N   UNL     1       2.566  -1.209  -2.138  0.00  0.00    +0.000 N 
ATOM      5  C   UNL     1       3.092  -2.455  -1.437  0.00  0.00    +0.000 C 
ATOM      6  C   UNL     1       1.061  -1.294  -2.316  0.00  0.00    +0.000 C 
ATOM      7  C   UNL     1       3.150  -1.147  -3.550  0.00  0.00    +0.000 C 
ENDBRANCH   3   4
ENDBRANCH   2   3
BRANCH   2   8
ATOM      8  O   UNL     1       3.194   1.248   0.753  0.00  0.00    +0.000 OA
BRANCH   8   9
ATOM      9  C   UNL     1       4.527   1.449   0.916  0.00  0.00    +0.000 C 
ATOM     10  N   UNL     1       5.374   0.506   0.413  0.00  0.00    +0.000 N 
ATOM     11  O   UNL     1       4.962   2.448   1.452  0.00  0.00    +0.000 OA
ATOM     12  H   UNL     1       5.148  -0.412   0.085  0.00  0.00    +0.000 HD
ATOM     13  H   UNL     1       6.360   0.716   0.530  0.00  0.00    +0.000 HD
ENDBRANCH   8   9
ENDBRANCH   2   8
TORSDOF 4
