REMARK  Name = Betiatide
REMARK  11 active torsions:
REMARK  status: ('A' for Active; 'I' for Inactive)
REMARK    1  A    between atoms: O_1  and  C_2
REMARK    2  A    between atoms: C_2  and  C_4
REMARK    3  A    between atoms: C_4  and  N_5
REMARK    4  A    between atoms: C_6  and  C_8
REMARK    5  A    between atoms: C_8  and  N_9
REMARK    6  A    between atoms: C_10  and  C_12
REMARK    7  A    between atoms: C_12  and  N_13
REMARK    8  A    between atoms: C_14  and  C_16
REMARK    9  A    between atoms: C_16  and  S_17
REMARK   10  A    between atoms: S_17  and  C_18
REMARK   11  A    between atoms: C_18  and  C_20
REMARK                            x       y       z     vdW  Elec       q    Type
REMARK                         _______ _______ _______ _____ _____    ______ ____
ROOT
ATOM      1  C   UNL     1      10.011   0.071  -4.508  0.00  0.00    +0.000 C 
ENDROOT
BRANCH   1   3
ATOM      2  N   UNL     1       7.859   0.065  -3.207  0.00  0.00    +0.000 N 
ATOM      3  C   UNL     1       9.245   0.065  -3.156  0.00  0.00    +0.000 C 
ATOM      4  O   UNL     1       9.852   0.060  -2.083  0.00  0.00    +0.000 OA
ATOM      5  H   UNL     1       7.363   0.069  -4.094  0.00  0.00    +0.000 HD
BRANCH   2   6
ATOM      6  C   UNL     1       7.021   0.060  -1.991  0.00  0.00    +0.000 C 
BRANCH   6   8
ATOM      7  N   UNL     1       4.636   0.056  -1.220  0.00  0.00    +0.000 N 
ATOM      8  C   UNL     1       5.499   0.061  -2.302  0.00  0.00    +0.000 C 
ATOM      9  O   UNL     1       5.078   0.067  -3.459  0.00  0.00    +0.000 OA
ATOM     10  H   UNL     1       4.983   0.052  -0.263  0.00  0.00    +0.000 HD
BRANCH   7  11
ATOM     11  C   UNL     1       3.174   0.057  -1.385  0.00  0.00    +0.000 C 
BRANCH  11  12
ATOM     12  C   UNL     1       2.448   0.051  -0.038  0.00  0.00    +0.000 C 
ATOM     13  O   UNL     1       3.035   0.046   1.039  0.00  0.00    +0.000 OA
BRANCH  12  14
ATOM     14  O   UNL     1       1.096   0.051  -0.108  0.00  0.00    +0.000 OA
ATOM     15  H   UNL     1       0.697   0.055  -0.999  0.00  0.00    +0.000 HD
ENDBRANCH  12  14
ENDBRANCH  11  12
ENDBRANCH   7  11
ENDBRANCH   6   8
ENDBRANCH   2   6
ENDBRANCH   1   3
BRANCH   1  16
ATOM     16  N   UNL     1      11.483   0.070  -4.342  0.00  0.00    +0.000 N 
ATOM     17  C   UNL     1      12.339   0.075  -5.436  0.00  0.00    +0.000 C 
ATOM     18  O   UNL     1      11.863   0.084  -6.573  0.00  0.00    +0.000 OA
ATOM     19  H   UNL     1      11.833   0.065  -3.390  0.00  0.00    +0.000 HD
BRANCH  17  20
ATOM     20  C   UNL     1      13.875   0.069  -5.153  0.00  0.00    +0.000 C 
BRANCH  20  21
ATOM     21  S   UNL     1      14.791   0.068  -6.755  0.00  0.00    +0.000 S 
BRANCH  21  22
ATOM     22  C   UNL     1      16.497   0.030  -6.325  0.00  0.00    +0.000 C 
ATOM     23  O   UNL     1      16.879  -0.036  -5.159  0.00  0.00    +0.000 OA
BRANCH  22  24
ATOM     24  C   UNL     1      17.480   0.075  -7.463  0.00  0.00    +0.000 A 
ATOM     25  C   UNL     1      18.651  -0.701  -7.417  0.00  0.00    +0.000 A 
ATOM     26  C   UNL     1      19.636  -0.564  -8.409  0.00  0.00    +0.000 A 
ATOM     27  C   UNL     1      19.435   0.300  -9.484  0.00  0.00    +0.000 A 
ATOM     28  C   UNL     1      18.269   1.059  -9.550  0.00  0.00    +0.000 A 
ATOM     29  C   UNL     1      17.301   0.954  -8.542  0.00  0.00    +0.000 A 
ENDBRANCH  22  24
ENDBRANCH  21  22
ENDBRANCH  20  21
ENDBRANCH  17  20
ENDBRANCH   1  16
TORSDOF 11
