REMARK  Name = Betrixaban
REMARK  9 active torsions:
REMARK  status: ('A' for Active; 'I' for Inactive)
REMARK    1  A    between atoms: C_1  and  O_2
REMARK    2  A    between atoms: O_2  and  C_3
REMARK    3  A    between atoms: C_6  and  N_7
REMARK    4  A    between atoms: C_8  and  C_10
REMARK    5  A    between atoms: C_13  and  C_16
REMARK    6  A    between atoms: N_18  and  C_19
REMARK    7  A    between atoms: N_18  and  C_20
REMARK    8  A    between atoms: C_21  and  C_23
REMARK    9  A    between atoms: N_25  and  C_26
REMARK                            x       y       z     vdW  Elec       q    Type
REMARK                         _______ _______ _______ _____ _____    ______ ____
ROOT
ATOM      1  C   UNL     1       3.013   1.163   0.211  0.00  0.00    +0.000 A 
ATOM      2  C   UNL     1       4.182   1.471  -0.481  0.00  0.00    +0.000 A 
ATOM      3  C   UNL     1       4.935   2.601  -0.127  0.00  0.00    +0.000 A 
ATOM      4  C   UNL     1       4.501   3.458   0.904  0.00  0.00    +0.000 A 
ATOM      5  C   UNL     1       3.355   3.092   1.653  0.00  0.00    +0.000 A 
ATOM      6  C   UNL     1       2.605   1.974   1.266  0.00  0.00    +0.000 A 
ENDROOT
BRANCH   4   7
ATOM      7  N   UNL     1       5.261   4.636   1.134  0.00  0.00    +0.000 N 
ATOM      8  C   UNL     1       4.757   5.742   1.812  0.00  0.00    +0.000 C 
ATOM      9  O   UNL     1       3.579   6.037   1.929  0.00  0.00    +0.000 OA
ATOM     10  H   UNL     1       6.137   4.748   0.639  0.00  0.00    +0.000 HD
BRANCH   8  11
ATOM     11  C   UNL     1       5.701   6.804   2.156  0.00  0.00    +0.000 A 
ATOM     12  C   UNL     1       5.836   7.341   3.444  0.00  0.00    +0.000 A 
ATOM     13  C   UNL     1       6.343   8.649   3.603  0.00  0.00    +0.000 A 
ATOM     14  C   UNL     1       6.700   9.421   2.484  0.00  0.00    +0.000 A 
ATOM     15  C   UNL     1       6.370   8.878   1.242  0.00  0.00    +0.000 A 
ATOM     16  C   UNL     1       5.998   7.564   1.052  0.00  0.00    +0.000 A 
BRANCH  14  17
ATOM     17  C   UNL     1       7.428  10.766   2.601  0.00  0.00    +0.000 C 
ATOM     18  N   UNL     1       7.653  11.268   3.785  0.00  0.00    +0.000 NA
ATOM     19  N   UNL     1       7.952  11.487   1.517  0.00  0.00    +0.000 N 
ATOM     20  C   UNL     1       7.941  11.165   0.101  0.00  0.00    +0.000 C 
ATOM     21  C   UNL     1       8.673  12.748   1.742  0.00  0.00    +0.000 C 
ATOM     22  H   UNL     1       7.314  10.703   4.558  0.00  0.00    +0.000 HD
ENDBRANCH  14  17
ENDBRANCH   8  11
ENDBRANCH   4   7
BRANCH   5  23
ATOM     23  C   UNL     1       3.046   3.704   2.990  0.00  0.00    +0.000 C 
ATOM     24  O   UNL     1       3.972   4.094   3.698  0.00  0.00    +0.000 OA
ATOM     25  N   UNL     1       1.714   3.721   3.414  0.00  0.00    +0.000 N 
ATOM     26  H   UNL     1       1.309   2.803   3.494  0.00  0.00    +0.000 HD
BRANCH  25  27
ATOM     27  C   UNL     1       1.444   4.526   4.534  0.00  0.00    +0.000 A 
ATOM     28  C   UNL     1       1.493   5.906   4.362  0.00  0.00    +0.000 A 
ATOM     29  C   UNL     1       1.335   6.739   5.462  0.00  0.00    +0.000 A 
ATOM     30  C   UNL     1       1.148   6.163   6.708  0.00  0.00    +0.000 A 
ATOM     31 CL   UNL     1       1.002   7.151   8.103  0.00  0.00    +0.000 Cl
ATOM     32  C   UNL     1       1.075   4.776   6.787  0.00  0.00    +0.000 A 
ATOM     33  N   UNL     1       1.173   3.936   5.717  0.00  0.00    +0.000 NA
ENDBRANCH  25  27
ENDBRANCH   5  23
BRANCH   1  35
ATOM     34  C   UNL     1       0.988  -0.044   0.021  0.00  0.00    +0.000 C 
ATOM     35  O   UNL     1       2.409  -0.026  -0.100  0.00  0.00    +0.000 OA
ENDBRANCH   1  35
TORSDOF 6
