REMARK  Name = Betulinic Acid
REMARK  10 active torsions:
REMARK  status: ('A' for Active; 'I' for Inactive)
REMARK    1  A    between atoms: O_2  and  C_3
REMARK    2  A    between atoms: C_3  and  C_5
REMARK    3  A    between atoms: C_8  and  C_10
REMARK    4  A    between atoms: C_10  and  C_11
REMARK    5  A    between atoms: C_21  and  C_22
REMARK    6  A    between atoms: C_25  and  O_27
REMARK    7  A    between atoms: C_29  and  C_30
REMARK    8  A    between atoms: C_29  and  C_31
REMARK    9  A    between atoms: C_36  and  C_37
REMARK   10  A    between atoms: C_38  and  C_39
REMARK                            x       y       z     vdW  Elec       q    Type
REMARK                         _______ _______ _______ _____ _____    ______ ____
ROOT
ATOM      1  C   UNL     1       3.889   1.331   0.261  0.00  0.00    +0.000 C 
ATOM      2  C   UNL     1       4.050  -0.327  -0.042  0.00  0.00    +0.000 C 
ATOM      3  C   UNL     1       4.809   0.058  -1.178  0.00  0.00    +0.000 C 
ATOM      4  C   UNL     1       3.948   1.615  -1.947  0.00  0.00    +0.000 C 
ATOM      5  C   UNL     1       4.580   2.305  -0.759  0.00  0.00    +0.000 C 
ATOM      6  C   UNL     1       6.173   2.190  -0.670  0.00  0.00    +0.000 C 
ATOM      7  C   UNL     1       6.946   2.134  -2.093  0.00  0.00    +0.000 C 
ATOM      8  C   UNL     1       7.338   0.666  -2.330  0.00  0.00    +0.000 C 
ATOM      9  C   UNL     1       8.134   0.358  -0.706  0.00  0.00    +0.000 C 
ATOM     10  C   UNL     1       9.259  -0.589  -0.884  0.00  0.00    +0.000 C 
ATOM     11  C   UNL     1       8.549  -1.546  -2.109  0.00  0.00    +0.000 C 
ATOM     12  C   UNL     1      10.505  -0.132  -2.169  0.00  0.00    +0.000 C 
ATOM     13  C   UNL     1      11.555  -0.883  -1.485  0.00  0.00    +0.000 C 
ATOM     14  C   UNL     1      11.430  -0.104  -0.261  0.00  0.00    +0.000 C 
ATOM     15  C   UNL     1      11.202  -1.332   0.722  0.00  0.00    +0.000 C 
ATOM     16  C   UNL     1      12.526  -1.910   1.127  0.00  0.00    +0.000 C 
ATOM     17  C   UNL     1      10.289  -2.605   0.853  0.00  0.00    +0.000 C 
ATOM     18  C   UNL     1      10.058  -0.543   0.904  0.00  0.00    +0.000 C 
ATOM     19  C   UNL     1       9.363  -0.670   2.219  0.00  0.00    +0.000 C 
ATOM     20  C   UNL     1       8.920   0.746   2.375  0.00  0.00    +0.000 C 
ATOM     21  C   UNL     1       7.621   0.562   1.323  0.00  0.00    +0.000 C 
ATOM     22  C   UNL     1       7.035  -0.247   2.867  0.00  0.00    +0.000 C 
ATOM     23  C   UNL     1       6.668   1.714   1.120  0.00  0.00    +0.000 C 
ATOM     24  C   UNL     1       7.057   2.720   2.428  0.00  0.00    +0.000 C 
ATOM     25  C   UNL     1       5.400   1.124   1.882  0.00  0.00    +0.000 C 
ATOM     26  C   UNL     1       4.390   2.048   1.444  0.00  0.00    +0.000 C 
ENDROOT
BRANCH   4  27
ATOM     27  C   UNL     1       2.305   2.415  -2.251  0.00  0.00    +0.000 C 
ATOM     28  C   UNL     1       2.016   3.493  -3.445  0.00  0.00    +0.000 C 
ATOM     29  C   UNL     1       1.089   2.393  -1.630  0.00  0.00    +0.000 C 
ENDBRANCH   4  27
BRANCH   1  30
ATOM     30  C   UNL     1       2.453   1.378   0.445  0.00  0.00    +0.000 C 
ATOM     31  O   UNL     1       1.891   2.368   0.835  0.00  0.00    +0.000 OA
BRANCH  30  33
ATOM     32  H   UNL     1       0.922   0.212   0.031  0.00  0.00    +0.000 HD
ATOM     33  O   UNL     1       1.882   0.194   0.090  0.00  0.00    +0.000 OA
ENDBRANCH  30  33
ENDBRANCH   1  30
BRANCH  14  34
ATOM     34  O   UNL     1      12.378   0.929  -0.169  0.00  0.00    +0.000 OA
ATOM     35  H   UNL     1      12.147   1.444  -0.979  0.00  0.00    +0.000 HD
ENDBRANCH  14  34
TORSDOF 4
