REMARK  Name = Bexarotene
REMARK  9 active torsions:
REMARK  status: ('A' for Active; 'I' for Inactive)
REMARK    1  A    between atoms: C_1  and  C_2
REMARK    2  A    between atoms: C_7  and  C_8
REMARK    3  A    between atoms: C_8  and  C_10
REMARK    4  A    between atoms: C_13  and  C_16
REMARK    5  A    between atoms: C_16  and  O_17
REMARK    6  A    between atoms: C_19  and  C_20
REMARK    7  A    between atoms: C_19  and  C_21
REMARK    8  A    between atoms: C_24  and  C_25
REMARK    9  A    between atoms: C_24  and  C_26
REMARK                            x       y       z     vdW  Elec       q    Type
REMARK                         _______ _______ _______ _____ _____    ______ ____
ROOT
ATOM      1  C   UNL     1       0.953   0.189   0.148  0.00  0.00    +0.000 C 
ATOM      2  C   UNL     1       2.428  -0.042   0.109  0.00  0.00    +0.000 A 
ATOM      3  C   UNL     1       3.165   1.141   0.016  0.00  0.00    +0.000 A 
ATOM      4  C   UNL     1       4.557   1.174   0.021  0.00  0.00    +0.000 A 
ATOM      5  C   UNL     1       5.243  -0.042   0.074  0.00  0.00    +0.000 A 
ATOM      6  C   UNL     1       4.488  -1.239   0.135  0.00  0.00    +0.000 A 
ATOM      7  C   UNL     1       3.078  -1.292   0.121  0.00  0.00    +0.000 A 
ATOM      8  C   UNL     1       6.772  -0.106   0.090  0.00  0.00    +0.000 C 
ATOM      9  C   UNL     1       7.285  -1.202  -0.869  0.00  0.00    +0.000 C 
ATOM     10  C   UNL     1       7.245  -0.420   1.523  0.00  0.00    +0.000 C 
ATOM     11  C   UNL     1       7.388   1.237  -0.363  0.00  0.00    +0.000 C 
ATOM     12  C   UNL     1       6.728   2.408   0.362  0.00  0.00    +0.000 C 
ATOM     13  C   UNL     1       5.248   2.529  -0.045  0.00  0.00    +0.000 C 
ATOM     14  C   UNL     1       4.567   3.527   0.918  0.00  0.00    +0.000 C 
ATOM     15  C   UNL     1       5.151   3.061  -1.489  0.00  0.00    +0.000 C 
ENDROOT
BRANCH   7  16
ATOM     16  C   UNL     1       2.353  -2.629   0.115  0.00  0.00    +0.000 C 
ATOM     17  C   UNL     1       3.029  -3.794   0.192  0.00  0.00    +0.000 C 
BRANCH  16  18
ATOM     18  C   UNL     1       0.870  -2.796   0.037  0.00  0.00    +0.000 A 
ATOM     19  C   UNL     1       0.159  -2.301  -1.064  0.00  0.00    +0.000 A 
ATOM     20  C   UNL     1      -1.208  -1.991  -0.947  0.00  0.00    +0.000 A 
ATOM     21  C   UNL     1      -1.933  -2.409   0.170  0.00  0.00    +0.000 A 
ATOM     22  C   UNL     1      -1.254  -3.139   1.162  0.00  0.00    +0.000 A 
ATOM     23  C   UNL     1       0.143  -3.262   1.136  0.00  0.00    +0.000 A 
BRANCH  21  24
ATOM     24  C   UNL     1      -3.378  -2.098   0.387  0.00  0.00    +0.000 C 
ATOM     25  O   UNL     1      -3.996  -2.559   1.342  0.00  0.00    +0.000 OA
BRANCH  24  26
ATOM     26  O   UNL     1      -3.978  -1.271  -0.492  0.00  0.00    +0.000 OA
ATOM     27  H   UNL     1      -3.457  -0.892  -1.219  0.00  0.00    +0.000 HD
ENDBRANCH  24  26
ENDBRANCH  21  24
ENDBRANCH  16  18
ENDBRANCH   7  16
TORSDOF 4
