REMARK  Name = Bezafibrate
REMARK  10 active torsions:
REMARK  status: ('A' for Active; 'I' for Inactive)
REMARK    1  A    between atoms: C_1  and  C_2
REMARK    2  A    between atoms: C_2  and  C_3
REMARK    3  A    between atoms: C_2  and  O_4
REMARK    4  A    between atoms: C_2  and  C_23
REMARK    5  A    between atoms: O_4  and  C_5
REMARK    6  A    between atoms: C_8  and  C_9
REMARK    7  A    between atoms: C_9  and  C_10
REMARK    8  A    between atoms: C_10  and  N_11
REMARK    9  A    between atoms: C_12  and  C_14
REMARK   10  A    between atoms: C_23  and  O_24
REMARK                            x       y       z     vdW  Elec       q    Type
REMARK                         _______ _______ _______ _____ _____    ______ ____
ROOT
ATOM      1  C   UNL     1       2.702   0.849  -2.334  0.00  0.00    +0.000 A 
ATOM      2  C   UNL     1       3.668   1.002  -3.332  0.00  0.00    +0.000 A 
ATOM      3  C   UNL     1       3.300   0.955  -4.695  0.00  0.00    +0.000 A 
ATOM      4  C   UNL     1       1.986   0.641  -5.071  0.00  0.00    +0.000 A 
ATOM      5  C   UNL     1       1.041   0.515  -4.061  0.00  0.00    +0.000 A 
ATOM      6  C   UNL     1       1.388   0.688  -2.736  0.00  0.00    +0.000 A 
ENDROOT
BRANCH   1   7
ATOM      7  O   UNL     1       3.053   0.992  -1.018  0.00  0.00    +0.000 OA
BRANCH   7   9
ATOM      8  C   UNL     1       1.025  -0.031   0.101  0.00  0.00    +0.000 C 
ATOM      9  C   UNL     1       2.552   0.045  -0.029  0.00  0.00    +0.000 C 
ATOM     10  C   UNL     1       3.097  -1.354  -0.348  0.00  0.00    +0.000 C 
BRANCH   9  11
ATOM     11  C   UNL     1       3.169   0.482   1.334  0.00  0.00    +0.000 C 
ATOM     12  O   UNL     1       4.378   0.549   1.540  0.00  0.00    +0.000 OA
BRANCH  11  13
ATOM     13  O   UNL     1       2.314   0.772   2.348  0.00  0.00    +0.000 OA
ATOM     14  H   UNL     1       1.355   0.765   2.182  0.00  0.00    +0.000 HD
ENDBRANCH  11  13
ENDBRANCH   9  11
ENDBRANCH   7   9
ENDBRANCH   1   7
BRANCH   4  15
ATOM     15  C   UNL     1       1.590   0.441  -6.517  0.00  0.00    +0.000 C 
BRANCH  15  16
ATOM     16  C   UNL     1       0.122   0.020  -6.694  0.00  0.00    +0.000 C 
BRANCH  16  17
ATOM     17  N   UNL     1      -0.274  -0.223  -8.059  0.00  0.00    +0.000 N 
ATOM     18  C   UNL     1      -1.586  -0.540  -8.341  0.00  0.00    +0.000 C 
ATOM     19  O   UNL     1      -2.466  -0.639  -7.486  0.00  0.00    +0.000 OA
ATOM     20  H   UNL     1       0.390  -0.063  -8.805  0.00  0.00    +0.000 HD
BRANCH  18  21
ATOM     21  C   UNL     1      -1.919  -0.772  -9.764  0.00  0.00    +0.000 A 
ATOM     22  C   UNL     1      -3.142  -0.311 -10.270  0.00  0.00    +0.000 A 
ATOM     23  C   UNL     1      -3.525  -0.638 -11.575  0.00  0.00    +0.000 A 
ATOM     24  C   UNL     1      -2.658  -1.368 -12.387  0.00  0.00    +0.000 A 
ATOM     25 CL   UNL     1      -3.079  -1.676 -14.027  0.00  0.00    +0.000 Cl
ATOM     26  C   UNL     1      -1.439  -1.826 -11.889  0.00  0.00    +0.000 A 
ATOM     27  C   UNL     1      -1.070  -1.535 -10.573  0.00  0.00    +0.000 A 
ENDBRANCH  18  21
ENDBRANCH  16  17
ENDBRANCH  15  16
ENDBRANCH   4  15
TORSDOF 8
