REMARK  Name = Bicalutamide
REMARK  9 active torsions:
REMARK  status: ('A' for Active; 'I' for Inactive)
REMARK    1  A    between atoms: C_1  and  C_2
REMARK    2  A    between atoms: C_2  and  O_3
REMARK    3  A    between atoms: C_2  and  C_4
REMARK    4  A    between atoms: C_2  and  C_15
REMARK    5  A    between atoms: C_4  and  S_5
REMARK    6  A    between atoms: S_5  and  C_8
REMARK    7  A    between atoms: N_17  and  C_18
REMARK    8  A    between atoms: C_20  and  C_26
REMARK    9  A    between atoms: C_21  and  C_24
REMARK                            x       y       z     vdW  Elec       q    Type
REMARK                         _______ _______ _______ _____ _____    ______ ____
ROOT
ATOM      1  C   UNL     1       3.010   1.507  -0.423  0.00  0.00    +0.000 C 
ATOM      2  O   UNL     1       2.182   2.368  -0.737  0.00  0.00    +0.000 OA
ATOM      3  N   UNL     1       4.383   1.746  -0.531  0.00  0.00    +0.000 N 
ATOM      4  H   UNL     1       5.045   0.994  -0.384  0.00  0.00    +0.000 HD
ENDROOT
BRANCH   3   5
ATOM      5  C   UNL     1       4.885   3.028  -0.900  0.00  0.00    +0.000 A 
ATOM      6  C   UNL     1       4.306   4.183  -0.361  0.00  0.00    +0.000 A 
ATOM      7  C   UNL     1       4.730   5.481  -0.720  0.00  0.00    +0.000 A 
ATOM      8  C   UNL     1       5.781   5.625  -1.632  0.00  0.00    +0.000 A 
ATOM      9  C   UNL     1       6.363   4.475  -2.188  0.00  0.00    +0.000 A 
ATOM     10  C   UNL     1       5.938   3.183  -1.805  0.00  0.00    +0.000 A 
BRANCH   7  11
ATOM     11  C   UNL     1       4.012   6.650  -0.094  0.00  0.00    +0.000 C 
ATOM     12  F   UNL     1       2.676   6.623  -0.352  0.00  0.00    +0.000 F 
ATOM     13  F   UNL     1       4.138   6.653   1.261  0.00  0.00    +0.000 F 
ATOM     14  F   UNL     1       4.432   7.873  -0.504  0.00  0.00    +0.000 F 
ENDBRANCH   7  11
BRANCH   8  15
ATOM     15  C   UNL     1       6.305   6.924  -1.976  0.00  0.00    +0.000 C 
ATOM     16  N   UNL     1       6.726   7.976  -2.204  0.00  0.00    +0.000 NA
ENDBRANCH   8  15
ENDBRANCH   3   5
BRANCH   1  18
ATOM     17  C   UNL     1       0.984   0.145   0.091  0.00  0.00    +0.000 C 
ATOM     18  C   UNL     1       2.524   0.088   0.043  0.00  0.00    +0.000 C 
BRANCH  18  19
ATOM     19  O   UNL     1       3.046  -0.143   1.353  0.00  0.00    +0.000 OA
ATOM     20  H   UNL     1       2.690  -0.992   1.694  0.00  0.00    +0.000 HD
ENDBRANCH  18  19
BRANCH  18  21
ATOM     21  C   UNL     1       2.996  -1.012  -0.921  0.00  0.00    +0.000 C 
BRANCH  21  22
ATOM     22  S   UNL     1       2.400  -2.625  -0.419  0.00  0.00    +0.000 S 
ATOM     23  O   UNL     1       2.994  -2.913   0.874  0.00  0.00    +0.000 OA
ATOM     24  O   UNL     1       0.962  -2.681  -0.594  0.00  0.00    +0.000 OA
BRANCH  22  25
ATOM     25  C   UNL     1       2.998  -3.852  -1.543  0.00  0.00    +0.000 A 
ATOM     26  C   UNL     1       3.658  -3.528  -2.727  0.00  0.00    +0.000 A 
ATOM     27  C   UNL     1       3.939  -4.546  -3.642  0.00  0.00    +0.000 A 
ATOM     28  C   UNL     1       3.573  -5.861  -3.360  0.00  0.00    +0.000 A 
ATOM     29  F   UNL     1       3.833  -6.823  -4.253  0.00  0.00    +0.000 F 
ATOM     30  C   UNL     1       2.934  -6.188  -2.171  0.00  0.00    +0.000 A 
ATOM     31  C   UNL     1       2.642  -5.180  -1.256  0.00  0.00    +0.000 A 
ENDBRANCH  22  25
ENDBRANCH  21  22
ENDBRANCH  18  21
ENDBRANCH   1  18
TORSDOF 8
