REMARK  Name = Bicisate
REMARK  17 active torsions:
REMARK  status: ('A' for Active; 'I' for Inactive)
REMARK    1  A    between atoms: C_1  and  C_2
REMARK    2  A    between atoms: C_2  and  O_3
REMARK    3  A    between atoms: O_3  and  C_4
REMARK    4  A    between atoms: C_4  and  C_6
REMARK    5  A    between atoms: C_6  and  C_7
REMARK    6  A    between atoms: C_6  and  N_9
REMARK    7  A    between atoms: C_7  and  S_8
REMARK    8  A    between atoms: N_9  and  C_10
REMARK    9  A    between atoms: C_10  and  C_11
REMARK   10  A    between atoms: C_11  and  N_12
REMARK   11  A    between atoms: N_12  and  C_13
REMARK   12  A    between atoms: C_13  and  C_14
REMARK   13  A    between atoms: C_13  and  C_16
REMARK   14  A    between atoms: C_14  and  S_15
REMARK   15  A    between atoms: C_16  and  O_18
REMARK   16  A    between atoms: O_18  and  C_19
REMARK   17  A    between atoms: C_19  and  C_20
REMARK                            x       y       z     vdW  Elec       q    Type
REMARK                         _______ _______ _______ _____ _____    ______ ____
ROOT
ATOM      1  C   UNL     1       6.848  -2.077  -4.084  0.00  0.00    +0.000 C 
ENDROOT
BRANCH   1   2
ATOM      2  N   UNL     1       6.351  -1.379  -2.890  0.00  0.00    +0.000 NA
ATOM      3  H   UNL     1       6.679  -1.883  -2.063  0.00  0.00    +0.000 HD
BRANCH   2   4
ATOM      4  C   UNL     1       4.868  -1.320  -2.866  0.00  0.00    +0.000 C 
BRANCH   4   5
ATOM      5  C   UNL     1       4.269  -0.473  -4.026  0.00  0.00    +0.000 C 
ATOM      6  O   UNL     1       3.066  -0.239  -4.132  0.00  0.00    +0.000 OA
BRANCH   5   7
ATOM      7  O   UNL     1       5.190  -0.052  -4.937  0.00  0.00    +0.000 OA
BRANCH   7   9
ATOM      8  C   UNL     1       5.866   0.721  -7.120  0.00  0.00    +0.000 C 
ATOM      9  C   UNL     1       4.708   0.553  -6.143  0.00  0.00    +0.000 C 
ENDBRANCH   7   9
ENDBRANCH   5   7
ENDBRANCH   4   5
BRANCH   4  10
ATOM     10  C   UNL     1       4.379  -0.714  -1.530  0.00  0.00    +0.000 C 
BRANCH  10  11
ATOM     11  S   UNL     1       4.152  -1.927  -0.171  0.00  0.00    +0.000 S 
ATOM     12  H   UNL     1       5.437  -2.184   0.105  0.00  0.00    +0.000 HD
ENDBRANCH  10  11
ENDBRANCH   4  10
ENDBRANCH   2   4
ENDBRANCH   1   2
BRANCH   1  13
ATOM     13  C   UNL     1       8.364  -2.020  -4.068  0.00  0.00    +0.000 C 
BRANCH  13  14
ATOM     14  N   UNL     1       8.936  -2.626  -5.256  0.00  0.00    +0.000 NA
ATOM     15  H   UNL     1       8.604  -2.148  -6.100  0.00  0.00    +0.000 HD
BRANCH  14  16
ATOM     16  C   UNL     1      10.420  -2.636  -5.254  0.00  0.00    +0.000 C 
BRANCH  16  17
ATOM     17  C   UNL     1      10.870  -3.292  -6.599  0.00  0.00    +0.000 C 
ATOM     18  O   UNL     1      10.105  -3.662  -7.485  0.00  0.00    +0.000 OA
BRANCH  17  19
ATOM     19  O   UNL     1      12.233  -3.345  -6.713  0.00  0.00    +0.000 OA
BRANCH  19  20
ATOM     20  C   UNL     1      12.692  -3.943  -7.941  0.00  0.00    +0.000 C 
ATOM     21  C   UNL     1      14.211  -3.954  -7.965  0.00  0.00    +0.000 C 
ENDBRANCH  19  20
ENDBRANCH  17  19
ENDBRANCH  16  17
BRANCH  16  22
ATOM     22  C   UNL     1      11.039  -3.424  -4.072  0.00  0.00    +0.000 C 
BRANCH  22  23
ATOM     23  S   UNL     1      10.966  -2.760  -2.349  0.00  0.00    +0.000 S 
ATOM     24  H   UNL     1      10.798  -1.461  -2.639  0.00  0.00    +0.000 HD
ENDBRANCH  22  23
ENDBRANCH  16  22
ENDBRANCH  14  16
ENDBRANCH  13  14
ENDBRANCH   1  13
TORSDOF 15
