REMARK  Name = Bictegravir
REMARK  4 active torsions:
REMARK  status: ('A' for Active; 'I' for Inactive)
REMARK    1  A    between atoms: O_1  and  C_2
REMARK    2  A    between atoms: C_17  and  C_18
REMARK    3  A    between atoms: N_20  and  C_21
REMARK    4  A    between atoms: C_21  and  C_22
REMARK                            x       y       z     vdW  Elec       q    Type
REMARK                         _______ _______ _______ _____ _____    ______ ____
ROOT
ATOM      1  C   UNL     1       2.298  -0.118   0.091  0.00  0.00    +0.000 A 
ATOM      2  C   UNL     1       3.071  -1.209   0.315  0.00  0.00    +0.000 A 
ATOM      3  N   UNL     1       4.476  -1.177   0.234  0.00  0.00    +0.000 N 
ATOM      4  C   UNL     1       5.268  -2.412   0.303  0.00  0.00    +0.000 C 
ATOM      5  C   UNL     1       4.509  -3.580   0.928  0.00  0.00    +0.000 C 
ATOM      6  O   UNL     1       5.328  -4.746   0.684  0.00  0.00    +0.000 OA
ATOM      7  C   UNL     1       4.998  -5.672  -0.366  0.00  0.00    +0.000 C 
ATOM      8  C   UNL     1       3.924  -6.187   0.384  0.00  0.00    +0.000 C 
ATOM      9  C   UNL     1       3.053  -5.045  -1.058  0.00  0.00    +0.000 C 
ATOM     10  C   UNL     1       2.479  -4.986   0.192  0.00  0.00    +0.000 C 
ATOM     11  C   UNL     1       3.462  -6.287  -0.833  0.00  0.00    +0.000 C 
ATOM     12  N   UNL     1       3.115  -3.663   0.514  0.00  0.00    +0.000 N 
ATOM     13  C   UNL     1       2.367  -2.509   0.721  0.00  0.00    +0.000 C 
ATOM     14  O   UNL     1       1.252  -2.514   1.182  0.00  0.00    +0.000 OA
ATOM     15  C   UNL     1       5.113   0.039   0.020  0.00  0.00    +0.000 A 
ATOM     16  C   UNL     1       4.484   1.216  -0.120  0.00  0.00    +0.000 A 
ATOM     17  C   UNL     1       3.002   1.202  -0.112  0.00  0.00    +0.000 A 
ATOM     18  O   UNL     1       2.369   2.249  -0.236  0.00  0.00    +0.000 OA
ENDROOT
BRANCH  16  19
ATOM     19  C   UNL     1       5.293   2.449  -0.291  0.00  0.00    +0.000 C 
ATOM     20  O   UNL     1       6.280   2.468  -1.019  0.00  0.00    +0.000 OA
ATOM     21  N   UNL     1       4.883   3.519   0.460  0.00  0.00    +0.000 N 
ATOM     22  H   UNL     1       4.001   3.445   0.961  0.00  0.00    +0.000 HD
BRANCH  21  23
ATOM     23  C   UNL     1       5.502   4.827   0.352  0.00  0.00    +0.000 C 
BRANCH  23  24
ATOM     24  C   UNL     1       4.889   5.885   1.233  0.00  0.00    +0.000 A 
ATOM     25  C   UNL     1       5.514   7.134   1.349  0.00  0.00    +0.000 A 
ATOM     26  F   UNL     1       6.654   7.374   0.685  0.00  0.00    +0.000 F 
ATOM     27  C   UNL     1       4.988   8.148   2.148  0.00  0.00    +0.000 A 
ATOM     28  C   UNL     1       3.806   7.917   2.837  0.00  0.00    +0.000 A 
ATOM     29  F   UNL     1       3.290   8.881   3.610  0.00  0.00    +0.000 F 
ATOM     30  C   UNL     1       3.151   6.702   2.739  0.00  0.00    +0.000 A 
ATOM     31  C   UNL     1       3.696   5.705   1.940  0.00  0.00    +0.000 A 
ATOM     32  F   UNL     1       3.040   4.537   1.878  0.00  0.00    +0.000 F 
ENDBRANCH  23  24
ENDBRANCH  21  23
ENDBRANCH  16  19
BRANCH   1  33
ATOM     33  O   UNL     1       0.913  -0.092   0.059  0.00  0.00    +0.000 OA
ATOM     34  H   UNL     1       0.562  -0.980   0.269  0.00  0.00    +0.000 HD
ENDBRANCH   1  33
TORSDOF 4
