REMARK  Name = Bifonazole
REMARK  4 active torsions:
REMARK  status: ('A' for Active; 'I' for Inactive)
REMARK    1  A    between atoms: N_3  and  C_6
REMARK    2  A    between atoms: C_6  and  C_7
REMARK    3  A    between atoms: C_6  and  C_13
REMARK    4  A    between atoms: C_16  and  C_19
REMARK                            x       y       z     vdW  Elec       q    Type
REMARK                         _______ _______ _______ _____ _____    ______ ____
ROOT
ATOM      1  C   UNL     1       2.070   1.470   0.046  0.00  0.00    +0.000 C 
ENDROOT
BRANCH   1   2
ATOM      2  C   UNL     1       2.006   2.374   1.275  0.00  0.00    +0.000 A 
ATOM      3  C   UNL     1       2.143   3.764   1.152  0.00  0.00    +0.000 A 
ATOM      4  C   UNL     1       2.321   4.545   2.294  0.00  0.00    +0.000 A 
ATOM      5  C   UNL     1       2.331   3.953   3.558  0.00  0.00    +0.000 A 
ATOM      6  C   UNL     1       2.147   2.581   3.693  0.00  0.00    +0.000 A 
ATOM      7  C   UNL     1       1.958   1.799   2.562  0.00  0.00    +0.000 A 
ENDBRANCH   1   2
BRANCH   1   8
ATOM      8  C   UNL     1       3.380   0.675  -0.051  0.00  0.00    +0.000 A 
ATOM      9  C   UNL     1       4.386   0.767   0.929  0.00  0.00    +0.000 A 
ATOM     10  C   UNL     1       5.541   0.007   0.851  0.00  0.00    +0.000 A 
ATOM     11  C   UNL     1       5.715  -0.907  -0.188  0.00  0.00    +0.000 A 
ATOM     12  C   UNL     1       4.746  -0.982  -1.194  0.00  0.00    +0.000 A 
ATOM     13  C   UNL     1       3.606  -0.179  -1.143  0.00  0.00    +0.000 A 
BRANCH  11  14
ATOM     14  C   UNL     1       6.911  -1.739  -0.202  0.00  0.00    +0.000 A 
ATOM     15  C   UNL     1       7.233  -2.541   0.905  0.00  0.00    +0.000 A 
ATOM     16  C   UNL     1       8.442  -3.228   0.951  0.00  0.00    +0.000 A 
ATOM     17  C   UNL     1       9.313  -3.163  -0.134  0.00  0.00    +0.000 A 
ATOM     18  C   UNL     1       8.988  -2.399  -1.254  0.00  0.00    +0.000 A 
ATOM     19  C   UNL     1       7.795  -1.683  -1.285  0.00  0.00    +0.000 A 
ENDBRANCH  11  14
ENDBRANCH   1   8
BRANCH   1  22
ATOM     20  C   UNL     1      -1.228  -0.013  -0.023  0.00  0.00    +0.000 A 
ATOM     21  C   UNL     1      -0.427   1.106  -0.045  0.00  0.00    +0.000 A 
ATOM     22  N   UNL     1       0.860   0.626   0.001  0.00  0.00    +0.000 N 
ATOM     23  C   UNL     1       0.777  -0.738   0.052  0.00  0.00    +0.000 A 
ATOM     24  N   UNL     1      -0.475  -1.151   0.013  0.00  0.00    +0.000 NA
ENDBRANCH   1  22
TORSDOF 4
