REMARK  Name = Biguanide
REMARK  0 active torsions:
REMARK  status: ('A' for Active; 'I' for Inactive)
REMARK                            x       y       z     vdW  Elec       q    Type
REMARK                         _______ _______ _______ _____ _____    ______ ____
ROOT
ATOM      1  N   UNL     1       1.289  -0.012   0.063  0.00  0.00    +0.000 N 
ATOM      2  C   UNL     1       2.630   0.106  -0.009  0.00  0.00    +0.000 C 
ATOM      3  N   UNL     1       3.157   1.112  -0.627  0.00  0.00    +0.000 NA
ATOM      4  N   UNL     1       3.374  -0.874   0.594  0.00  0.00    +0.000 N 
ATOM      5  C   UNL     1       4.732  -1.029   0.688  0.00  0.00    +0.000 C 
ATOM      6  N   UNL     1       5.453  -0.066   0.097  0.00  0.00    +0.000 N 
ATOM      7  N   UNL     1       5.364  -1.989   1.279  0.00  0.00    +0.000 NA
ATOM      8  H   UNL     1       0.704   0.691  -0.369  0.00  0.00    +0.000 HD
ATOM      9  H   UNL     1       0.806  -0.766   0.527  0.00  0.00    +0.000 HD
ATOM     10  H   UNL     1       2.427   1.718  -1.000  0.00  0.00    +0.000 HD
ATOM     11  H   UNL     1       2.847  -1.604   1.042  0.00  0.00    +0.000 HD
ATOM     12  H   UNL     1       4.945   0.690  -0.368  0.00  0.00    +0.000 HD
ATOM     13  H   UNL     1       6.458  -0.083   0.107  0.00  0.00    +0.000 HD
ATOM     14  H   UNL     1       4.727  -2.663   1.693  0.00  0.00    +0.000 HD
ENDROOT
TORSDOF 0
