REMARK  Name = Bimatoprost
REMARK  16 active torsions:
REMARK  status: ('A' for Active; 'I' for Inactive)
REMARK    1  A    between atoms: C_1  and  C_2
REMARK    2  A    between atoms: C_2  and  N_3
REMARK    3  A    between atoms: C_4  and  C_6
REMARK    4  A    between atoms: C_6  and  C_7
REMARK    5  A    between atoms: C_7  and  C_8
REMARK    6  A    between atoms: C_8  and  C_9
REMARK    7  A    between atoms: C_10  and  C_11
REMARK    8  A    between atoms: C_11  and  C_12
REMARK    9  A    between atoms: C_13  and  O_14
REMARK   10  A    between atoms: C_16  and  O_17
REMARK   11  A    between atoms: C_18  and  C_19
REMARK   12  A    between atoms: C_20  and  C_21
REMARK   13  A    between atoms: C_21  and  O_22
REMARK   14  A    between atoms: C_21  and  C_23
REMARK   15  A    between atoms: C_23  and  C_24
REMARK   16  A    between atoms: C_24  and  C_25
REMARK                            x       y       z     vdW  Elec       q    Type
REMARK                         _______ _______ _______ _____ _____    ______ ____
ROOT
ATOM      1  C   UNL     1       9.330   8.002  -1.946  0.00  0.00    +0.000 C 
ATOM      2  C   UNL     1       8.747   8.751  -3.176  0.00  0.00    +0.000 C 
ATOM      3  C   UNL     1       9.917   9.337  -3.962  0.00  0.00    +0.000 C 
ATOM      4  C   UNL     1      11.174   8.899  -3.225  0.00  0.00    +0.000 C 
ATOM      5  C   UNL     1      10.764   7.651  -2.422  0.00  0.00    +0.000 C 
ENDROOT
BRANCH   2   6
ATOM      6  O   UNL     1       7.804   9.781  -2.964  0.00  0.00    +0.000 OA
ATOM      7  H   UNL     1       8.276  10.548  -2.591  0.00  0.00    +0.000 HD
ENDBRANCH   2   6
BRANCH   4   8
ATOM      8  O   UNL     1      11.642   9.944  -2.372  0.00  0.00    +0.000 OA
ATOM      9  H   UNL     1      10.906  10.294  -1.842  0.00  0.00    +0.000 HD
ENDBRANCH   4   8
BRANCH   5  10
ATOM     10  C   UNL     1      10.791   6.415  -3.277  0.00  0.00    +0.000 C 
ATOM     11  C   UNL     1      10.515   5.200  -2.785  0.00  0.00    +0.000 C 
BRANCH  11  12
ATOM     12  C   UNL     1      10.528   3.970  -3.630  0.00  0.00    +0.000 C 
BRANCH  12  13
ATOM     13  O   UNL     1      11.829   3.815  -4.182  0.00  0.00    +0.000 OA
ATOM     14  H   UNL     1      12.448   3.733  -3.437  0.00  0.00    +0.000 HD
ENDBRANCH  12  13
BRANCH  12  15
ATOM     15  C   UNL     1      10.159   2.748  -2.802  0.00  0.00    +0.000 C 
BRANCH  15  16
ATOM     16  C   UNL     1      10.183   1.500  -3.672  0.00  0.00    +0.000 C 
BRANCH  16  17
ATOM     17  C   UNL     1       9.790   0.286  -2.882  0.00  0.00    +0.000 A 
ATOM     18  C   UNL     1      10.741  -0.682  -2.543  0.00  0.00    +0.000 A 
ATOM     19  C   UNL     1      10.337  -1.863  -1.926  0.00  0.00    +0.000 A 
ATOM     20  C   UNL     1       9.003  -2.040  -1.561  0.00  0.00    +0.000 A 
ATOM     21  C   UNL     1       8.062  -1.052  -1.844  0.00  0.00    +0.000 A 
ATOM     22  C   UNL     1       8.453   0.104  -2.511  0.00  0.00    +0.000 A 
ENDBRANCH  16  17
ENDBRANCH  15  16
ENDBRANCH  12  15
ENDBRANCH  11  12
ENDBRANCH   5  10
BRANCH   1  23
ATOM     23  C   UNL     1       9.405   8.650  -0.554  0.00  0.00    +0.000 C 
BRANCH  23  25
ATOM     24  C   UNL     1       8.406  10.533   0.745  0.00  0.00    +0.000 C 
ATOM     25  C   UNL     1       8.361   9.672  -0.270  0.00  0.00    +0.000 C 
BRANCH  24  26
ATOM     26  C   UNL     1       9.352  10.335   1.877  0.00  0.00    +0.000 C 
BRANCH  26  27
ATOM     27  C   UNL     1       8.993  11.291   2.988  0.00  0.00    +0.000 C 
BRANCH  27  28
ATOM     28  C   UNL     1       9.879  11.067   4.203  0.00  0.00    +0.000 C 
BRANCH  28  30
ATOM     29  N   UNL     1      10.245  11.963   6.431  0.00  0.00    +0.000 N 
ATOM     30  C   UNL     1       9.505  12.058   5.279  0.00  0.00    +0.000 C 
ATOM     31  O   UNL     1       8.606  12.891   5.139  0.00  0.00    +0.000 OA
ATOM     32  H   UNL     1      10.976  11.267   6.512  0.00  0.00    +0.000 HD
BRANCH  29  34
ATOM     33  C   UNL     1      10.876  12.634   8.717  0.00  0.00    +0.000 C 
ATOM     34  C   UNL     1       9.973  12.870   7.526  0.00  0.00    +0.000 C 
ENDBRANCH  29  34
ENDBRANCH  28  30
ENDBRANCH  27  28
ENDBRANCH  26  27
ENDBRANCH  24  26
ENDBRANCH  23  25
ENDBRANCH   1  23
TORSDOF 15
