REMARK  Name = Binimetinib
REMARK  8 active torsions:
REMARK  status: ('A' for Active; 'I' for Inactive)
REMARK    1  A    between atoms: C_1  and  N_2
REMARK    2  A    between atoms: C_8  and  N_9
REMARK    3  A    between atoms: N_9  and  C_10
REMARK    4  A    between atoms: C_18  and  C_21
REMARK    5  A    between atoms: N_23  and  O_24
REMARK    6  A    between atoms: O_24  and  C_25
REMARK    7  A    between atoms: C_25  and  C_26
REMARK    8  A    between atoms: C_26  and  O_27
REMARK                            x       y       z     vdW  Elec       q    Type
REMARK                         _______ _______ _______ _____ _____    ______ ____
ROOT
ATOM      1  C   UNL     1       1.080  -0.005   0.059  0.00  0.00    +0.000 C 
ATOM      2  N   UNL     1       2.523   0.011   0.061  0.00  0.00    +0.000 N 
ATOM      3  C   UNL     1       3.350   1.091   0.067  0.00  0.00    +0.000 A 
ATOM      4  N   UNL     1       4.620   0.730   0.081  0.00  0.00    +0.000 NA
ATOM      5  C   UNL     1       4.624  -0.654   0.042  0.00  0.00    +0.000 A 
ATOM      6  C   UNL     1       5.680  -1.609   0.014  0.00  0.00    +0.000 A 
ATOM      7  F   UNL     1       6.959  -1.199   0.079  0.00  0.00    +0.000 F 
ATOM      8  C   UNL     1       5.401  -3.003  -0.044  0.00  0.00    +0.000 A 
ATOM      9  C   UNL     1       4.007  -3.363  -0.052  0.00  0.00    +0.000 A 
ATOM     10  C   UNL     1       2.960  -2.437  -0.014  0.00  0.00    +0.000 A 
ATOM     11  C   UNL     1       3.310  -1.107   0.025  0.00  0.00    +0.000 A 
ENDROOT
BRANCH   9  12
ATOM     12  C   UNL     1       3.510  -4.730   0.187  0.00  0.00    +0.000 C 
ATOM     13  O   UNL     1       2.370  -5.118  -0.152  0.00  0.00    +0.000 OA
ATOM     14  N   UNL     1       4.388  -5.416   0.954  0.00  0.00    +0.000 N 
ATOM     15  H   UNL     1       5.144  -4.769   1.143  0.00  0.00    +0.000 HD
BRANCH  14  16
ATOM     16  O   UNL     1       4.914  -6.561   0.156  0.00  0.00    +0.000 OA
BRANCH  16  17
ATOM     17  C   UNL     1       6.424  -7.807  -0.075  0.00  0.00    +0.000 C 
BRANCH  17  18
ATOM     18  C   UNL     1       6.233  -9.435  -0.008  0.00  0.00    +0.000 C 
BRANCH  18  19
ATOM     19  O   UNL     1       7.441 -10.158  -0.042  0.00  0.00    +0.000 OA
ATOM     20  H   UNL     1       7.673 -10.190  -0.979  0.00  0.00    +0.000 HD
ENDBRANCH  18  19
ENDBRANCH  17  18
ENDBRANCH  16  17
ENDBRANCH  14  16
ENDBRANCH   9  12
BRANCH   8  21
ATOM     21  N   UNL     1       6.525  -3.953  -0.109  0.00  0.00    +0.000 N 
ATOM     22  H   UNL     1       7.394  -3.558   0.258  0.00  0.00    +0.000 HD
BRANCH  21  23
ATOM     23  C   UNL     1       6.541  -5.490  -0.168  0.00  0.00    +0.000 A 
ATOM     24  C   UNL     1       6.390  -6.290   1.474  0.00  0.00    +0.000 A 
ATOM     25  C   UNL     1       5.180  -7.662   1.699  0.00  0.00    +0.000 A 
ATOM     26  C   UNL     1       4.186  -8.271   0.267  0.00  0.00    +0.000 A 
ATOM     27 BR   UNL     1       3.208  -9.963   0.307  0.00  0.00    +0.000 Br
ATOM     28  C   UNL     1       4.496  -7.559  -1.382  0.00  0.00    +0.000 A 
ATOM     29  C   UNL     1       5.590  -6.131  -1.567  0.00  0.00    +0.000 A 
ATOM     30  F   UNL     1       5.183  -5.190  -2.443  0.00  0.00    +0.000 F 
ENDBRANCH  21  23
ENDBRANCH   8  21
TORSDOF 7
