REMARK  Name = Bioallethrin
REMARK  11 active torsions:
REMARK  status: ('A' for Active; 'I' for Inactive)
REMARK    1  A    between atoms: C_1  and  C_2
REMARK    2  A    between atoms: C_2  and  C_3
REMARK    3  A    between atoms: C_4  and  C_5
REMARK    4  A    between atoms: C_6  and  C_7
REMARK    5  A    between atoms: C_7  and  O_9
REMARK    6  A    between atoms: O_9  and  C_10
REMARK    7  A    between atoms: C_14  and  C_15
REMARK    8  A    between atoms: C_15  and  C_16
REMARK    9  A    between atoms: C_18  and  C_19
REMARK   10  A    between atoms: C_20  and  C_21
REMARK   11  A    between atoms: C_20  and  C_22
REMARK                            x       y       z     vdW  Elec       q    Type
REMARK                         _______ _______ _______ _____ _____    ______ ____
ROOT
ATOM      1  C   UNL     1       6.722   1.775   2.205  0.00  0.00    +0.000 C 
ATOM      2  O   UNL     1       7.180   2.409   1.280  0.00  0.00    +0.000 OA
ENDROOT
BRANCH   1   4
ATOM      3  C   UNL     1       4.672   0.890   0.807  0.00  0.00    +0.000 C 
ATOM      4  C   UNL     1       5.490   0.914   2.092  0.00  0.00    +0.000 C 
ATOM      5  C   UNL     1       5.502  -0.333   1.203  0.00  0.00    +0.000 C 
ATOM      6  C   UNL     1       4.871  -1.592   1.784  0.00  0.00    +0.000 C 
ATOM      7  C   UNL     1       6.700  -0.633   0.336  0.00  0.00    +0.000 C 
BRANCH   3  11
ATOM      8  C   UNL     1       0.955  -0.033   0.068  0.00  0.00    +0.000 C 
ATOM      9  C   UNL     1       2.457  -0.038   0.033  0.00  0.00    +0.000 C 
ATOM     10  C   UNL     1       3.085  -1.046  -0.889  0.00  0.00    +0.000 C 
ATOM     11  C   UNL     1       3.195   0.808   0.789  0.00  0.00    +0.000 C 
ENDBRANCH   3  11
ENDBRANCH   1   4
BRANCH   1  12
ATOM     12  O   UNL     1       7.274   1.711   3.454  0.00  0.00    +0.000 OA
BRANCH  12  13
ATOM     13  C   UNL     1       8.574   2.321   3.596  0.00  0.00    +0.000 C 
ATOM     14  C   UNL     1       8.538   3.841   3.635  0.00  0.00    +0.000 C 
ATOM     15  C   UNL     1       9.290   4.152   4.899  0.00  0.00    +0.000 C 
ATOM     16  O   UNL     1       9.588   5.284   5.254  0.00  0.00    +0.000 OA
ATOM     17  C   UNL     1       9.615   2.931   5.689  0.00  0.00    +0.000 C 
ATOM     18  C   UNL     1       9.141   1.911   4.944  0.00  0.00    +0.000 C 
ATOM     19  C   UNL     1       9.107   0.438   5.223  0.00  0.00    +0.000 C 
BRANCH  17  20
ATOM     20  C   UNL     1      10.330   3.068   7.014  0.00  0.00    +0.000 C 
BRANCH  20  21
ATOM     21  C   UNL     1      10.671   1.764   7.678  0.00  0.00    +0.000 C 
ATOM     22  C   UNL     1      11.148   1.504   8.896  0.00  0.00    +0.000 C 
ENDBRANCH  20  21
ENDBRANCH  17  20
ENDBRANCH  12  13
ENDBRANCH   1  12
TORSDOF 6
