REMARK  Name = Biotin
REMARK  6 active torsions:
REMARK  status: ('A' for Active; 'I' for Inactive)
REMARK    1  A    between atoms: C_5  and  C_6
REMARK    2  A    between atoms: C_6  and  C_7
REMARK    3  A    between atoms: C_7  and  C_8
REMARK    4  A    between atoms: C_8  and  C_9
REMARK    5  A    between atoms: C_9  and  C_10
REMARK    6  A    between atoms: C_10  and  O_11
REMARK                            x       y       z     vdW  Elec       q    Type
REMARK                         _______ _______ _______ _____ _____    ______ ____
ROOT
ATOM      1  C   UNL     1       1.976   0.037   0.048  0.00  0.00    +0.000 C 
ATOM      2  C   UNL     1       2.363  -1.220  -0.736  0.00  0.00    +0.000 C 
ATOM      3  S   UNL     1       3.973  -1.715  -0.099  0.00  0.00    +0.000 S 
ATOM      4  C   UNL     1       3.495  -1.249   1.582  0.00  0.00    +0.000 C 
ATOM      5  C   UNL     1       2.685   0.047   1.425  0.00  0.00    +0.000 C 
ATOM      6  N   UNL     1       3.484   1.257   1.379  0.00  0.00    +0.000 N 
ATOM      7  C   UNL     1       3.370   1.917   0.185  0.00  0.00    +0.000 C 
ATOM      8  O   UNL     1       3.977   2.929  -0.123  0.00  0.00    +0.000 OA
ATOM      9  N   UNL     1       2.447   1.254  -0.583  0.00  0.00    +0.000 N 
ATOM     10  H   UNL     1       4.124   1.605   2.081  0.00  0.00    +0.000 HD
ATOM     11  H   UNL     1       2.199   1.600  -1.500  0.00  0.00    +0.000 HD
ENDROOT
BRANCH   4  12
ATOM     12  C   UNL     1       4.700  -1.138   2.498  0.00  0.00    +0.000 C 
BRANCH  12  13
ATOM     13  C   UNL     1       4.375  -1.757   3.849  0.00  0.00    +0.000 C 
BRANCH  13  14
ATOM     14  C   UNL     1       5.570  -1.564   4.759  0.00  0.00    +0.000 C 
BRANCH  14  15
ATOM     15  C   UNL     1       5.339  -2.189   6.118  0.00  0.00    +0.000 C 
BRANCH  15  16
ATOM     16  C   UNL     1       6.491  -2.047   7.084  0.00  0.00    +0.000 C 
ATOM     17  O   UNL     1       6.437  -2.507   8.217  0.00  0.00    +0.000 OA
BRANCH  16  18
ATOM     18  O   UNL     1       7.584  -1.389   6.653  0.00  0.00    +0.000 OA
ATOM     19  H   UNL     1       7.585  -1.043   5.742  0.00  0.00    +0.000 HD
ENDBRANCH  16  18
ENDBRANCH  15  16
ENDBRANCH  14  15
ENDBRANCH  13  14
ENDBRANCH  12  13
ENDBRANCH   4  12
TORSDOF 6
