REMARK  Name = Biperiden
REMARK  6 active torsions:
REMARK  status: ('A' for Active; 'I' for Inactive)
REMARK    1  A    between atoms: O_1  and  C_2
REMARK    2  A    between atoms: C_2  and  C_3
REMARK    3  A    between atoms: C_2  and  C_11
REMARK    4  A    between atoms: C_2  and  C_18
REMARK    5  A    between atoms: C_3  and  C_4
REMARK    6  A    between atoms: C_4  and  N_5
REMARK                            x       y       z     vdW  Elec       q    Type
REMARK                         _______ _______ _______ _____ _____    ______ ____
ROOT
ATOM      1  C   UNL     1       2.573   0.198   0.206  0.00  0.00    +0.000 C 
ENDROOT
BRANCH   1   2
ATOM      2  C   UNL     1       3.160   0.222  -1.431  0.00  0.00    +0.000 C 
ATOM      3  C   UNL     1       2.889   1.604  -1.842  0.00  0.00    +0.000 C 
ATOM      4  C   UNL     1       1.451   1.495  -2.300  0.00  0.00    +0.000 C 
ATOM      5  C   UNL     1       1.002  -0.048  -2.082  0.00  0.00    +0.000 C 
ATOM      6  C   UNL     1       2.315  -0.506  -2.634  0.00  0.00    +0.000 C 
ATOM      7  C   UNL     1       1.882   0.163  -3.981  0.00  0.00    +0.000 C 
ATOM      8  C   UNL     1       1.476   1.387  -3.768  0.00  0.00    +0.000 C 
ENDBRANCH   1   2
BRANCH   1   9
ATOM      9  C   UNL     1       3.082   1.313   1.187  0.00  0.00    +0.000 A 
ATOM     10  C   UNL     1       3.584   0.989   2.444  0.00  0.00    +0.000 A 
ATOM     11  C   UNL     1       3.550   1.920   3.485  0.00  0.00    +0.000 A 
ATOM     12  C   UNL     1       3.307   3.267   3.240  0.00  0.00    +0.000 A 
ATOM     13  C   UNL     1       2.986   3.676   1.974  0.00  0.00    +0.000 A 
ATOM     14  C   UNL     1       2.774   2.703   1.020  0.00  0.00    +0.000 A 
ENDBRANCH   1   9
BRANCH   1  15
ATOM     15  O   UNL     1       1.159   0.460   0.415  0.00  0.00    +0.000 OA
ATOM     16  H   UNL     1       0.595  -0.330   0.360  0.00  0.00    +0.000 HD
ENDBRANCH   1  15
BRANCH   1  17
ATOM     17  C   UNL     1       2.904  -1.230   0.589  0.00  0.00    +0.000 C 
BRANCH  17  18
ATOM     18  C   UNL     1       2.295  -1.773   1.874  0.00  0.00    +0.000 C 
BRANCH  18  19
ATOM     19  N   UNL     1       2.854  -3.083   2.210  0.00  0.00    +0.000 NA
ATOM     20  C   UNL     1       1.937  -4.116   1.740  0.00  0.00    +0.000 C 
ATOM     21  C   UNL     1       2.438  -5.472   2.198  0.00  0.00    +0.000 C 
ATOM     22  C   UNL     1       3.855  -5.734   1.696  0.00  0.00    +0.000 C 
ATOM     23  C   UNL     1       4.801  -4.615   2.111  0.00  0.00    +0.000 C 
ATOM     24  C   UNL     1       4.221  -3.286   1.692  0.00  0.00    +0.000 C 
ENDBRANCH  18  19
ENDBRANCH  17  18
ENDBRANCH   1  17
TORSDOF 6
