REMARK  Name = Bisacodyl
REMARK  9 active torsions:
REMARK  status: ('A' for Active; 'I' for Inactive)
REMARK    1  A    between atoms: C_1  and  C_2
REMARK    2  A    between atoms: C_2  and  O_4
REMARK    3  A    between atoms: O_4  and  C_5
REMARK    4  A    between atoms: C_8  and  C_11
REMARK    5  A    between atoms: C_11  and  C_12
REMARK    6  A    between atoms: C_11  and  C_22
REMARK    7  A    between atoms: C_15  and  O_16
REMARK    8  A    between atoms: O_16  and  C_17
REMARK    9  A    between atoms: C_17  and  C_18
REMARK                            x       y       z     vdW  Elec       q    Type
REMARK                         _______ _______ _______ _____ _____    ______ ____
ROOT
ATOM      1  C   UNL     1       8.830   1.402  -0.496  0.00  0.00    +0.000 C 
ENDROOT
BRANCH   1   5
ATOM      2  C   UNL     1       4.482   1.236  -0.192  0.00  0.00    +0.000 A 
ATOM      3  C   UNL     1       5.191   2.252   0.451  0.00  0.00    +0.000 A 
ATOM      4  C   UNL     1       6.576   2.364   0.259  0.00  0.00    +0.000 A 
ATOM      5  C   UNL     1       7.279   1.403  -0.494  0.00  0.00    +0.000 A 
ATOM      6  C   UNL     1       6.530   0.384  -1.106  0.00  0.00    +0.000 A 
ATOM      7  C   UNL     1       5.149   0.329  -1.002  0.00  0.00    +0.000 A 
BRANCH   2   8
ATOM      8  O   UNL     1       3.080   1.203  -0.063  0.00  0.00    +0.000 OA
BRANCH   8  10
ATOM      9  C   UNL     1       0.981   0.078  -0.056  0.00  0.00    +0.000 C 
ATOM     10  C   UNL     1       2.475  -0.056   0.012  0.00  0.00    +0.000 C 
ATOM     11  O   UNL     1       3.032  -1.132   0.119  0.00  0.00    +0.000 OA
ENDBRANCH   8  10
ENDBRANCH   2   8
ENDBRANCH   1   5
BRANCH   1  12
ATOM     12  C   UNL     1       9.316   1.360   0.957  0.00  0.00    +0.000 A 
ATOM     13  C   UNL     1      10.229   2.256   1.533  0.00  0.00    +0.000 A 
ATOM     14  C   UNL     1      10.791   1.967   2.792  0.00  0.00    +0.000 A 
ATOM     15  C   UNL     1      10.443   0.777   3.437  0.00  0.00    +0.000 A 
ATOM     16  C   UNL     1       9.633  -0.125   2.791  0.00  0.00    +0.000 A 
ATOM     17  C   UNL     1       8.941   0.223   1.667  0.00  0.00    +0.000 A 
BRANCH  15  18
ATOM     18  O   UNL     1      10.935   0.508   4.743  0.00  0.00    +0.000 OA
BRANCH  18  19
ATOM     19  C   UNL     1      10.528  -0.394   5.743  0.00  0.00    +0.000 C 
ATOM     20  C   UNL     1       9.527  -1.475   5.429  0.00  0.00    +0.000 C 
ATOM     21  O   UNL     1      11.033  -0.340   6.865  0.00  0.00    +0.000 OA
ENDBRANCH  18  19
ENDBRANCH  15  18
ENDBRANCH   1  12
BRANCH   1  22
ATOM     22  C   UNL     1       9.449   0.208  -1.299  0.00  0.00    +0.000 A 
ATOM     23  C   UNL     1       9.175   0.066  -2.656  0.00  0.00    +0.000 A 
ATOM     24  C   UNL     1       9.446  -1.156  -3.273  0.00  0.00    +0.000 A 
ATOM     25  C   UNL     1      10.043  -2.185  -2.552  0.00  0.00    +0.000 A 
ATOM     26  C   UNL     1      10.356  -1.952  -1.232  0.00  0.00    +0.000 A 
ATOM     27  N   UNL     1      10.078  -0.792  -0.613  0.00  0.00    +0.000 NA
ENDBRANCH   1  22
TORSDOF 7
