REMARK  Name = Bisoxatin
REMARK  4 active torsions:
REMARK  status: ('A' for Active; 'I' for Inactive)
REMARK    1  A    between atoms: O_1  and  C_2
REMARK    2  A    between atoms: C_5  and  C_8
REMARK    3  A    between atoms: C_8  and  C_19
REMARK    4  A    between atoms: C_22  and  O_23
REMARK                            x       y       z     vdW  Elec       q    Type
REMARK                         _______ _______ _______ _____ _____    ______ ____
ROOT
ATOM      1  C   UNL     1      -3.715   0.312  -0.159  0.00  0.00    +0.000 C 
ATOM      2  O   UNL     1      -3.990   1.055  -1.316  0.00  0.00    +0.000 OA
ATOM      3  C   UNL     1      -3.975   0.283  -2.435  0.00  0.00    +0.000 A 
ATOM      4  C   UNL     1      -4.428   0.955  -3.598  0.00  0.00    +0.000 A 
ATOM      5  C   UNL     1      -4.889   0.225  -4.678  0.00  0.00    +0.000 A 
ATOM      6  C   UNL     1      -4.941  -1.161  -4.545  0.00  0.00    +0.000 A 
ATOM      7  C   UNL     1      -4.377  -1.823  -3.398  0.00  0.00    +0.000 A 
ATOM      8  C   UNL     1      -3.779  -1.104  -2.330  0.00  0.00    +0.000 A 
ATOM      9  N   UNL     1      -3.227  -1.705  -0.989  0.00  0.00    +0.000 N 
ATOM     10  C   UNL     1      -3.105  -0.743   0.414  0.00  0.00    +0.000 C 
ATOM     11  O   UNL     1      -2.846  -0.580   1.650  0.00  0.00    +0.000 OA
ATOM     12  H   UNL     1      -3.291  -2.698  -0.843  0.00  0.00    +0.000 HD
ENDROOT
BRANCH   1  16
ATOM     13  C   UNL     1       1.009   0.057  -0.001  0.00  0.00    +0.000 A 
ATOM     14  C   UNL     1       0.297   1.287  -0.034  0.00  0.00    +0.000 A 
ATOM     15  C   UNL     1      -1.110   1.398  -0.189  0.00  0.00    +0.000 A 
ATOM     16  C   UNL     1      -1.836   0.245  -0.363  0.00  0.00    +0.000 A 
ATOM     17  C   UNL     1      -0.969  -1.067  -0.214  0.00  0.00    +0.000 A 
ATOM     18  C   UNL     1       0.381  -1.147  -0.035  0.00  0.00    +0.000 A 
BRANCH  13  19
ATOM     19  O   UNL     1       2.368  -0.008   0.053  0.00  0.00    +0.000 OA
ATOM     20  H   UNL     1       2.701   0.896  -0.020  0.00  0.00    +0.000 HD
ENDBRANCH  13  19
ENDBRANCH   1  16
BRANCH   1  21
ATOM     21  C   UNL     1      -4.984  -1.054   0.352  0.00  0.00    +0.000 A 
ATOM     22  C   UNL     1      -4.489  -2.270   1.343  0.00  0.00    +0.000 A 
ATOM     23  C   UNL     1      -4.628  -3.643   1.170  0.00  0.00    +0.000 A 
ATOM     24  C   UNL     1      -5.372  -3.991   0.087  0.00  0.00    +0.000 A 
ATOM     25  C   UNL     1      -5.963  -3.009  -0.756  0.00  0.00    +0.000 A 
ATOM     26  C   UNL     1      -5.886  -1.565  -0.595  0.00  0.00    +0.000 A 
BRANCH  24  27
ATOM     27  O   UNL     1      -5.488  -5.312  -0.228  0.00  0.00    +0.000 OA
ATOM     28  H   UNL     1      -5.348  -5.815   0.597  0.00  0.00    +0.000 HD
ENDBRANCH  24  27
ENDBRANCH   1  21
TORSDOF 4
