REMARK  Name = Bisoprolol
REMARK  17 active torsions:
REMARK  status: ('A' for Active; 'I' for Inactive)
REMARK    1  A    between atoms: C_1  and  C_2
REMARK    2  A    between atoms: C_2  and  C_3
REMARK    3  A    between atoms: C_2  and  N_4
REMARK    4  A    between atoms: N_4  and  C_5
REMARK    5  A    between atoms: C_5  and  C_6
REMARK    6  A    between atoms: C_6  and  O_7
REMARK    7  A    between atoms: C_6  and  C_8
REMARK    8  A    between atoms: C_8  and  O_9
REMARK    9  A    between atoms: O_9  and  C_10
REMARK   10  A    between atoms: C_13  and  C_14
REMARK   11  A    between atoms: C_14  and  O_15
REMARK   12  A    between atoms: O_15  and  C_16
REMARK   13  A    between atoms: C_16  and  C_17
REMARK   14  A    between atoms: C_17  and  O_18
REMARK   15  A    between atoms: O_18  and  C_19
REMARK   16  A    between atoms: C_19  and  C_20
REMARK   17  A    between atoms: C_19  and  C_21
REMARK                            x       y       z     vdW  Elec       q    Type
REMARK                         _______ _______ _______ _____ _____    ______ ____
ROOT
ATOM      1  C   UNL     1       8.285   3.018   3.231  0.00  0.00    +0.000 A 
ATOM      2  C   UNL     1       8.818   3.191   4.510  0.00  0.00    +0.000 A 
ATOM      3  C   UNL     1      10.167   3.504   4.671  0.00  0.00    +0.000 A 
ATOM      4  C   UNL     1      11.010   3.600   3.560  0.00  0.00    +0.000 A 
ATOM      5  C   UNL     1      10.460   3.443   2.278  0.00  0.00    +0.000 A 
ATOM      6  C   UNL     1       9.103   3.158   2.117  0.00  0.00    +0.000 A 
ENDROOT
BRANCH   1   7
ATOM      7  O   UNL     1       6.936   2.816   3.185  0.00  0.00    +0.000 OA
BRANCH   7   8
ATOM      8  C   UNL     1       6.481   1.931   2.163  0.00  0.00    +0.000 C 
BRANCH   8   9
ATOM      9  C   UNL     1       4.945   1.923   2.173  0.00  0.00    +0.000 C 
BRANCH   9  10
ATOM     10  O   UNL     1       4.427   1.525   3.450  0.00  0.00    +0.000 OA
ATOM     11  H   UNL     1       4.834   0.675   3.682  0.00  0.00    +0.000 HD
ENDBRANCH   9  10
BRANCH   9  12
ATOM     12  C   UNL     1       4.451   0.946   1.098  0.00  0.00    +0.000 C 
BRANCH  12  13
ATOM     13  N   UNL     1       2.988   0.926   1.029  0.00  0.00    +0.000 NA
ATOM     14  H   UNL     1       2.620   0.729   1.964  0.00  0.00    +0.000 HD
BRANCH  13  16
ATOM     15  C   UNL     1       0.954  -0.039   0.097  0.00  0.00    +0.000 C 
ATOM     16  C   UNL     1       2.482  -0.040   0.051  0.00  0.00    +0.000 C 
ATOM     17  C   UNL     1       2.944   0.314  -1.365  0.00  0.00    +0.000 C 
ENDBRANCH  13  16
ENDBRANCH  12  13
ENDBRANCH   9  12
ENDBRANCH   8   9
ENDBRANCH   7   8
ENDBRANCH   1   7
BRANCH   4  18
ATOM     18  C   UNL     1      12.483   3.828   3.778  0.00  0.00    +0.000 C 
BRANCH  18  19
ATOM     19  O   UNL     1      13.177   3.814   2.538  0.00  0.00    +0.000 OA
BRANCH  19  20
ATOM     20  C   UNL     1      14.579   3.966   2.720  0.00  0.00    +0.000 C 
BRANCH  20  21
ATOM     21  C   UNL     1      15.213   3.967   1.343  0.00  0.00    +0.000 C 
BRANCH  21  22
ATOM     22  O   UNL     1      16.615   4.195   1.443  0.00  0.00    +0.000 OA
BRANCH  22  23
ATOM     23  C   UNL     1      17.263   4.188   0.166  0.00  0.00    +0.000 C 
ATOM     24  C   UNL     1      16.768   5.334  -0.714  0.00  0.00    +0.000 C 
ATOM     25  C   UNL     1      18.761   4.339   0.404  0.00  0.00    +0.000 C 
ENDBRANCH  22  23
ENDBRANCH  21  22
ENDBRANCH  20  21
ENDBRANCH  19  20
ENDBRANCH  18  19
ENDBRANCH   4  18
TORSDOF 13
