REMARK  Name = Bisoctrizole
REMARK  22 active torsions:
REMARK  status: ('A' for Active; 'I' for Inactive)
REMARK    1  A    between atoms: C_1  and  C_2
REMARK    2  A    between atoms: C_2  and  C_3
REMARK    3  A    between atoms: C_2  and  C_4
REMARK    4  A    between atoms: C_2  and  C_5
REMARK    5  A    between atoms: C_5  and  C_6
REMARK    6  A    between atoms: C_6  and  C_7
REMARK    7  A    between atoms: C_6  and  C_8
REMARK    8  A    between atoms: C_6  and  C_9
REMARK    9  A    between atoms: C_11  and  C_12
REMARK   10  A    between atoms: C_12  and  C_13
REMARK   11  A    between atoms: C_14  and  O_15
REMARK   12  A    between atoms: C_16  and  N_28
REMARK   13  A    between atoms: C_18  and  C_20
REMARK   14  A    between atoms: C_20  and  C_21
REMARK   15  A    between atoms: C_20  and  C_22
REMARK   16  A    between atoms: C_20  and  C_23
REMARK   17  A    between atoms: C_23  and  C_24
REMARK   18  A    between atoms: C_24  and  C_25
REMARK   19  A    between atoms: C_24  and  C_26
REMARK   20  A    between atoms: C_24  and  C_27
REMARK   21  A    between atoms: C_37  and  O_38
REMARK   22  A    between atoms: C_39  and  N_41
REMARK                            x       y       z     vdW  Elec       q    Type
REMARK                         _______ _______ _______ _____ _____    ______ ____
ROOT
ATOM      1  C   UNL     1       6.484   1.057   5.825  0.00  0.00    +0.000 C 
ENDROOT
BRANCH   1   4
ATOM      2  C   UNL     1       4.986   1.639   2.381  0.00  0.00    +0.000 A 
ATOM      3  C   UNL     1       5.608   1.079   3.514  0.00  0.00    +0.000 A 
ATOM      4  C   UNL     1       5.969   1.850   4.624  0.00  0.00    +0.000 A 
ATOM      5  C   UNL     1       5.750   3.239   4.535  0.00  0.00    +0.000 A 
ATOM      6  C   UNL     1       5.074   3.799   3.455  0.00  0.00    +0.000 A 
ATOM      7  C   UNL     1       4.671   3.007   2.392  0.00  0.00    +0.000 A 
BRANCH   6   8
ATOM      8  N   UNL     1       4.773   5.176   3.459  0.00  0.00    +0.000 N 
ATOM      9  N   UNL     1       3.522   5.621   3.201  0.00  0.00    +0.000 NA
ATOM     10  C   UNL     1       3.637   6.945   3.424  0.00  0.00    +0.000 A 
ATOM     11  C   UNL     1       2.650   7.940   3.405  0.00  0.00    +0.000 A 
ATOM     12  C   UNL     1       3.142   9.252   3.576  0.00  0.00    +0.000 A 
ATOM     13  C   UNL     1       4.519   9.548   3.773  0.00  0.00    +0.000 A 
ATOM     14  C   UNL     1       5.518   8.563   3.839  0.00  0.00    +0.000 A 
ATOM     15  C   UNL     1       5.049   7.244   3.661  0.00  0.00    +0.000 A 
ATOM     16  N   UNL     1       5.738   6.110   3.650  0.00  0.00    +0.000 NA
ENDBRANCH   6   8
BRANCH   2  17
ATOM     17  C   UNL     1       4.671   0.805   1.127  0.00  0.00    +0.000 C 
ATOM     18  C   UNL     1       5.323  -0.587   1.245  0.00  0.00    +0.000 C 
ATOM     19  C   UNL     1       5.346   1.527  -0.059  0.00  0.00    +0.000 C 
BRANCH  17  20
ATOM     20  C   UNL     1       3.106   0.725   1.004  0.00  0.00    +0.000 C 
BRANCH  20  22
ATOM     21  C   UNL     1       0.912   0.056  -0.057  0.00  0.00    +0.000 C 
ATOM     22  C   UNL     1       2.447  -0.033  -0.188  0.00  0.00    +0.000 C 
ATOM     23  C   UNL     1       2.787  -1.528  -0.194  0.00  0.00    +0.000 C 
ATOM     24  C   UNL     1       2.798   0.593  -1.544  0.00  0.00    +0.000 C 
ENDBRANCH  20  22
ENDBRANCH  17  20
ENDBRANCH   2  17
BRANCH   5  25
ATOM     25  O   UNL     1       6.051   4.130   5.516  0.00  0.00    +0.000 OA
ATOM     26  H   UNL     1       6.862   3.871   5.970  0.00  0.00    +0.000 HD
ENDBRANCH   5  25
ENDBRANCH   1   4
BRANCH   1  27
ATOM     27  C   UNL     1       6.667   1.884   7.072  0.00  0.00    +0.000 A 
ATOM     28  C   UNL     1       5.583   2.539   7.697  0.00  0.00    +0.000 A 
ATOM     29  C   UNL     1       5.829   3.688   8.451  0.00  0.00    +0.000 A 
ATOM     30  C   UNL     1       7.140   4.101   8.668  0.00  0.00    +0.000 A 
ATOM     31  C   UNL     1       8.243   3.355   8.191  0.00  0.00    +0.000 A 
ATOM     32  C   UNL     1       7.987   2.253   7.377  0.00  0.00    +0.000 A 
BRANCH  29  33
ATOM     33  N   UNL     1       4.767   4.511   8.883  0.00  0.00    +0.000 N 
ATOM     34  N   UNL     1       4.777   5.870   8.744  0.00  0.00    +0.000 NA
ATOM     35  C   UNL     1       3.582   6.224   9.259  0.00  0.00    +0.000 A 
ATOM     36  C   UNL     1       2.933   7.475   9.313  0.00  0.00    +0.000 A 
ATOM     37  C   UNL     1       1.713   7.474  10.032  0.00  0.00    +0.000 A 
ATOM     38  C   UNL     1       1.174   6.315  10.652  0.00  0.00    +0.000 A 
ATOM     39  C   UNL     1       1.786   5.056  10.582  0.00  0.00    +0.000 A 
ATOM     40  C   UNL     1       2.991   5.030   9.861  0.00  0.00    +0.000 A 
ATOM     41  N   UNL     1       3.768   3.982   9.615  0.00  0.00    +0.000 NA
ENDBRANCH  29  33
BRANCH  31  42
ATOM     42  C   UNL     1       9.664   3.788   8.595  0.00  0.00    +0.000 C 
ATOM     43  C   UNL     1       9.821   5.261   8.165  0.00  0.00    +0.000 C 
ATOM     44  C   UNL     1       9.659   3.665  10.132  0.00  0.00    +0.000 C 
BRANCH  42  45
ATOM     45  C   UNL     1      10.792   2.886   7.951  0.00  0.00    +0.000 C 
BRANCH  45  46
ATOM     46  C   UNL     1      12.302   3.121   8.281  0.00  0.00    +0.000 C 
ATOM     47  C   UNL     1      12.795   4.500   7.828  0.00  0.00    +0.000 C 
ATOM     48  C   UNL     1      12.618   2.906   9.766  0.00  0.00    +0.000 C 
ATOM     49  C   UNL     1      13.152   2.087   7.510  0.00  0.00    +0.000 C 
ENDBRANCH  45  46
ENDBRANCH  42  45
ENDBRANCH  31  42
BRANCH  28  50
ATOM     50  O   UNL     1       4.289   2.248   7.360  0.00  0.00    +0.000 OA
ATOM     51  H   UNL     1       4.253   1.727   6.545  0.00  0.00    +0.000 HD
ENDBRANCH  28  50
ENDBRANCH   1  27
TORSDOF 12
