REMARK  Name = Bisphenol A diglycidyl ether
REMARK  10 active torsions:
REMARK  status: ('A' for Active; 'I' for Inactive)
REMARK    1  A    between atoms: C_1  and  C_2
REMARK    2  A    between atoms: C_2  and  C_3
REMARK    3  A    between atoms: C_2  and  C_4
REMARK    4  A    between atoms: C_2  and  C_15
REMARK    5  A    between atoms: C_7  and  O_8
REMARK    6  A    between atoms: O_8  and  C_9
REMARK    7  A    between atoms: C_9  and  C_10
REMARK    8  A    between atoms: C_18  and  O_19
REMARK    9  A    between atoms: O_19  and  C_20
REMARK   10  A    between atoms: C_20  and  C_21
REMARK                            x       y       z     vdW  Elec       q    Type
REMARK                         _______ _______ _______ _____ _____    ______ ____
ROOT
ATOM      1  C   UNL     1       0.989  -0.071  -0.081  0.00  0.00    +0.000 C 
ATOM      2  C   UNL     1       2.540   0.010  -0.126  0.00  0.00    +0.000 C 
ATOM      3  C   UNL     1       3.026  -1.302  -0.794  0.00  0.00    +0.000 C 
ENDROOT
BRANCH   2   4
ATOM      4  C   UNL     1       2.946   1.245  -0.969  0.00  0.00    +0.000 A 
ATOM      5  C   UNL     1       4.013   1.246  -1.882  0.00  0.00    +0.000 A 
ATOM      6  C   UNL     1       4.413   2.436  -2.504  0.00  0.00    +0.000 A 
ATOM      7  C   UNL     1       3.749   3.636  -2.246  0.00  0.00    +0.000 A 
ATOM      8  C   UNL     1       2.701   3.651  -1.339  0.00  0.00    +0.000 A 
ATOM      9  C   UNL     1       2.284   2.468  -0.752  0.00  0.00    +0.000 A 
BRANCH   7  10
ATOM     10  O   UNL     1       4.183   4.733  -2.932  0.00  0.00    +0.000 OA
BRANCH  10  11
ATOM     11  C   UNL     1       3.381   5.911  -2.785  0.00  0.00    +0.000 C 
BRANCH  11  12
ATOM     12  C   UNL     1       3.834   6.913  -3.790  0.00  0.00    +0.000 C 
ATOM     13  C   UNL     1       2.888   7.958  -4.329  0.00  0.00    +0.000 C 
ATOM     14  O   UNL     1       3.857   8.269  -3.322  0.00  0.00    +0.000 OA
ENDBRANCH  11  12
ENDBRANCH  10  11
ENDBRANCH   7  10
ENDBRANCH   2   4
BRANCH   2  15
ATOM     15  C   UNL     1       3.046   0.118   1.338  0.00  0.00    +0.000 A 
ATOM     16  C   UNL     1       3.281  -1.018   2.134  0.00  0.00    +0.000 A 
ATOM     17  C   UNL     1       3.597  -0.893   3.491  0.00  0.00    +0.000 A 
ATOM     18  C   UNL     1       3.740   0.358   4.079  0.00  0.00    +0.000 A 
ATOM     19  C   UNL     1       3.531   1.493   3.311  0.00  0.00    +0.000 A 
ATOM     20  C   UNL     1       3.199   1.363   1.971  0.00  0.00    +0.000 A 
BRANCH  18  21
ATOM     21  O   UNL     1       4.083   0.374   5.395  0.00  0.00    +0.000 OA
BRANCH  21  22
ATOM     22  C   UNL     1       4.428   1.653   5.934  0.00  0.00    +0.000 C 
BRANCH  22  23
ATOM     23  C   UNL     1       4.876   1.443   7.336  0.00  0.00    +0.000 C 
ATOM     24  C   UNL     1       5.902   0.380   7.629  0.00  0.00    +0.000 C 
ATOM     25  O   UNL     1       6.240   1.774   7.624  0.00  0.00    +0.000 OA
ENDBRANCH  22  23
ENDBRANCH  21  22
ENDBRANCH  18  21
ENDBRANCH   2  15
TORSDOF 8
