REMARK  Name = Bithionol
REMARK  4 active torsions:
REMARK  status: ('A' for Active; 'I' for Inactive)
REMARK    1  A    between atoms: O_1  and  C_2
REMARK    2  A    between atoms: C_3  and  S_4
REMARK    3  A    between atoms: S_4  and  C_5
REMARK    4  A    between atoms: C_6  and  O_7
REMARK                            x       y       z     vdW  Elec       q    Type
REMARK                         _______ _______ _______ _____ _____    ______ ____
ROOT
ATOM      1  S   UNL     1      -0.382   3.778   0.034  0.00  0.00    +0.000 S 
ENDROOT
BRANCH   1   3
ATOM      2  C   UNL     1      -1.147   1.109   0.004  0.00  0.00    +0.000 A 
ATOM      3  C   UNL     1      -0.058   2.008   0.025  0.00  0.00    +0.000 A 
ATOM      4  C   UNL     1       1.232   1.466   0.048  0.00  0.00    +0.000 A 
ATOM      5  C   UNL     1       1.433   0.085   0.028  0.00  0.00    +0.000 A 
ATOM      6 CL   UNL     1       3.040  -0.532   0.017  0.00  0.00    +0.000 Cl
ATOM      7  C   UNL     1       0.358  -0.794   0.015  0.00  0.00    +0.000 A 
ATOM      8  C   UNL     1      -0.936  -0.278   0.007  0.00  0.00    +0.000 A 
ATOM      9 CL   UNL     1      -2.253  -1.396  -0.001  0.00  0.00    +0.000 Cl
BRANCH   2  10
ATOM     10  O   UNL     1      -2.444   1.566  -0.014  0.00  0.00    +0.000 OA
ATOM     11  H   UNL     1      -2.430   2.538  -0.042  0.00  0.00    +0.000 HD
ENDBRANCH   2  10
ENDBRANCH   1   3
BRANCH   1  12
ATOM     12  C   UNL     1       1.210   4.601   0.038  0.00  0.00    +0.000 A 
ATOM     13  C   UNL     1       1.566   5.471   1.084  0.00  0.00    +0.000 A 
ATOM     14  C   UNL     1       2.799   6.137   1.068  0.00  0.00    +0.000 A 
ATOM     15 CL   UNL     1       3.258   7.217   2.336  0.00  0.00    +0.000 Cl
ATOM     16  C   UNL     1       3.693   5.939   0.017  0.00  0.00    +0.000 A 
ATOM     17  C   UNL     1       3.339   5.087  -1.024  0.00  0.00    +0.000 A 
ATOM     18 CL   UNL     1       4.450   4.812  -2.310  0.00  0.00    +0.000 Cl
ATOM     19  C   UNL     1       2.101   4.440  -1.033  0.00  0.00    +0.000 A 
BRANCH  13  20
ATOM     20  O   UNL     1       0.715   5.687   2.139  0.00  0.00    +0.000 OA
ATOM     21  H   UNL     1      -0.095   5.167   1.993  0.00  0.00    +0.000 HD
ENDBRANCH  13  20
ENDBRANCH   1  12
TORSDOF 4
