REMARK  Name = Boceprevir
REMARK  18 active torsions:
REMARK  status: ('A' for Active; 'I' for Inactive)
REMARK    1  A    between atoms: C_5  and  C_6
REMARK    2  A    between atoms: N_8  and  C_9
REMARK    3  A    between atoms: C_9  and  C_10
REMARK    4  A    between atoms: C_9  and  C_15
REMARK    5  A    between atoms: C_10  and  C_11
REMARK    6  A    between atoms: C_15  and  C_17
REMARK    7  A    between atoms: C_22  and  C_23
REMARK    8  A    between atoms: C_22  and  C_24
REMARK    9  A    between atoms: C_25  and  C_27
REMARK   10  A    between atoms: C_27  and  N_28
REMARK   11  A    between atoms: C_27  and  C_36
REMARK   12  A    between atoms: N_31  and  C_32
REMARK   13  A    between atoms: C_32  and  C_33
REMARK   14  A    between atoms: C_32  and  C_34
REMARK   15  A    between atoms: C_32  and  C_35
REMARK   16  A    between atoms: C_36  and  C_37
REMARK   17  A    between atoms: C_36  and  C_38
REMARK   18  A    between atoms: C_36  and  C_39
REMARK                            x       y       z     vdW  Elec       q    Type
REMARK                         _______ _______ _______ _____ _____    ______ ____
ROOT
ATOM      1  C   UNL     1       2.127  -0.178  -0.120  0.00  0.00    +0.000 C 
ATOM      2  C   UNL     1       2.141   1.236   0.273  0.00  0.00    +0.000 C 
ATOM      3  N   UNL     1       3.045   1.924  -0.585  0.00  0.00    +0.000 N 
ATOM      4  C   UNL     1       4.140   1.007  -0.889  0.00  0.00    +0.000 C 
ATOM      5  C   UNL     1       3.371  -0.380  -0.926  0.00  0.00    +0.000 C 
ATOM      6  C   UNL     1       3.062  -1.305   0.264  0.00  0.00    +0.000 C 
ATOM      7  C   UNL     1       3.929  -1.344   1.487  0.00  0.00    +0.000 C 
ATOM      8  C   UNL     1       2.504  -2.690   0.018  0.00  0.00    +0.000 C 
ATOM      9  C   UNL     1       3.063   3.280  -0.758  0.00  0.00    +0.000 C 
ATOM     10  O   UNL     1       3.938   3.756  -1.470  0.00  0.00    +0.000 OA
ENDROOT
BRANCH   4  11
ATOM     11  C   UNL     1       5.016   1.155  -2.134  0.00  0.00    +0.000 C 
ATOM     12  O   UNL     1       5.526   0.103  -2.516  0.00  0.00    +0.000 OA
ATOM     13  N   UNL     1       5.278   2.397  -2.667  0.00  0.00    +0.000 N 
ATOM     14  H   UNL     1       4.967   3.186  -2.107  0.00  0.00    +0.000 HD
BRANCH  13  15
ATOM     15  C   UNL     1       5.739   2.859  -3.993  0.00  0.00    +0.000 C 
BRANCH  15  16
ATOM     16  C   UNL     1       5.792   4.406  -4.111  0.00  0.00    +0.000 C 
ATOM     17  O   UNL     1       5.392   5.186  -3.253  0.00  0.00    +0.000 OA
BRANCH  16  18
ATOM     18  C   UNL     1       6.424   5.021  -5.374  0.00  0.00    +0.000 C 
ATOM     19  N   UNL     1       6.997   4.189  -6.298  0.00  0.00    +0.000 N 
ATOM     20  O   UNL     1       6.427   6.232  -5.554  0.00  0.00    +0.000 OA
ATOM     21  H   UNL     1       7.054   3.185  -6.234  0.00  0.00    +0.000 HD
ATOM     22  H   UNL     1       7.354   4.623  -7.139  0.00  0.00    +0.000 HD
ENDBRANCH  16  18
ENDBRANCH  15  16
BRANCH  15  23
ATOM     23  C   UNL     1       4.842   2.296  -5.123  0.00  0.00    +0.000 C 
BRANCH  23  24
ATOM     24  C   UNL     1       4.806   0.789  -4.999  0.00  0.00    +0.000 C 
ATOM     25  C   UNL     1       4.534  -0.278  -6.075  0.00  0.00    +0.000 C 
ATOM     26  C   UNL     1       5.633  -1.136  -5.382  0.00  0.00    +0.000 C 
ATOM     27  C   UNL     1       6.268   0.185  -4.958  0.00  0.00    +0.000 C 
ENDBRANCH  23  24
ENDBRANCH  15  23
ENDBRANCH  13  15
ENDBRANCH   4  11
BRANCH   9  28
ATOM     28  C   UNL     1       2.076   4.319  -0.185  0.00  0.00    +0.000 C 
BRANCH  28  29
ATOM     29  N   UNL     1       2.369   4.451   1.275  0.00  0.00    +0.000 N 
ATOM     30  C   UNL     1       1.841   3.574   2.156  0.00  0.00    +0.000 C 
ATOM     31  O   UNL     1       0.955   2.800   1.797  0.00  0.00    +0.000 OA
ATOM     32  N   UNL     1       2.369   3.500   3.401  0.00  0.00    +0.000 N 
ATOM     33  H   UNL     1       2.551   5.377   1.628  0.00  0.00    +0.000 HD
ATOM     34  H   UNL     1       2.569   4.383   3.856  0.00  0.00    +0.000 HD
BRANCH  32  35
ATOM     35  C   UNL     1       2.162   2.285   4.253  0.00  0.00    +0.000 C 
ATOM     36  C   UNL     1       0.754   1.638   4.133  0.00  0.00    +0.000 C 
ATOM     37  C   UNL     1       3.212   1.212   3.919  0.00  0.00    +0.000 C 
ATOM     38  C   UNL     1       2.366   2.653   5.723  0.00  0.00    +0.000 C 
ENDBRANCH  32  35
ENDBRANCH  28  29
BRANCH  28  39
ATOM     39  C   UNL     1       2.279   5.719  -0.955  0.00  0.00    +0.000 C 
ATOM     40  C   UNL     1       3.673   6.345  -0.667  0.00  0.00    +0.000 C 
ATOM     41  C   UNL     1       2.077   5.625  -2.502  0.00  0.00    +0.000 C 
ATOM     42  C   UNL     1       1.218   6.714  -0.456  0.00  0.00    +0.000 C 
ENDBRANCH  28  39
ENDBRANCH   9  28
TORSDOF 10
