REMARK  Name = Boscalid
REMARK  3 active torsions:
REMARK  status: ('A' for Active; 'I' for Inactive)
REMARK    1  A    between atoms: C_5  and  C_8
REMARK    2  A    between atoms: C_9  and  N_10
REMARK    3  A    between atoms: C_11  and  C_13
REMARK                            x       y       z     vdW  Elec       q    Type
REMARK                         _______ _______ _______ _____ _____    ______ ____
ROOT
ATOM      1  C   UNL     1       3.845   0.018   0.116  0.00  0.00    +0.000 A 
ATOM      2  C   UNL     1       4.540  -0.593  -0.964  0.00  0.00    +0.000 A 
ATOM      3  C   UNL     1       5.931  -0.764  -0.835  0.00  0.00    +0.000 A 
ATOM      4  C   UNL     1       6.636  -0.198   0.241  0.00  0.00    +0.000 A 
ATOM      5  C   UNL     1       5.963   0.516   1.223  0.00  0.00    +0.000 A 
ATOM      6  C   UNL     1       4.579   0.607   1.166  0.00  0.00    +0.000 A 
ENDROOT
BRANCH   1  11
ATOM      7 CL   UNL     1      -2.121  -0.012  -0.055  0.00  0.00    +0.000 Cl
ATOM      8  C   UNL     1      -0.408  -0.003   0.103  0.00  0.00    +0.000 A 
ATOM      9  C   UNL     1       0.285  -1.213   0.151  0.00  0.00    +0.000 A 
ATOM     10  C   UNL     1       1.676  -1.207   0.251  0.00  0.00    +0.000 A 
ATOM     11  C   UNL     1       2.383   0.010   0.265  0.00  0.00    +0.000 A 
ATOM     12  C   UNL     1       1.664   1.222   0.244  0.00  0.00    +0.000 A 
ATOM     13  C   UNL     1       0.272   1.213   0.147  0.00  0.00    +0.000 A 
ENDBRANCH   1  11
BRANCH   2  14
ATOM     14  N   UNL     1       3.934  -1.046  -2.191  0.00  0.00    +0.000 N 
ATOM     15  C   UNL     1       2.704  -0.632  -2.681  0.00  0.00    +0.000 C 
ATOM     16  O   UNL     1       2.053   0.315  -2.243  0.00  0.00    +0.000 OA
ATOM     17  H   UNL     1       4.544  -1.536  -2.836  0.00  0.00    +0.000 HD
BRANCH  15  18
ATOM     18  C   UNL     1       2.084  -1.211  -3.881  0.00  0.00    +0.000 A 
ATOM     19  C   UNL     1       2.292  -2.465  -4.415  0.00  0.00    +0.000 A 
ATOM     20 CL   UNL     1       3.361  -3.632  -3.747  0.00  0.00    +0.000 Cl
ATOM     21  N   UNL     1       1.632  -2.929  -5.508  0.00  0.00    +0.000 NA
ATOM     22  C   UNL     1       0.706  -2.114  -6.073  0.00  0.00    +0.000 A 
ATOM     23  C   UNL     1       0.392  -0.859  -5.598  0.00  0.00    +0.000 A 
ATOM     24  C   UNL     1       1.088  -0.414  -4.490  0.00  0.00    +0.000 A 
ENDBRANCH  15  18
ENDBRANCH   2  14
TORSDOF 3
