REMARK  Name = Bosentan
REMARK  16 active torsions:
REMARK  status: ('A' for Active; 'I' for Inactive)
REMARK    1  A    between atoms: C_1  and  O_2
REMARK    2  A    between atoms: O_2  and  C_3
REMARK    3  A    between atoms: C_8  and  O_9
REMARK    4  A    between atoms: O_9  and  C_10
REMARK    5  A    between atoms: C_11  and  N_12
REMARK    6  A    between atoms: N_12  and  S_13
REMARK    7  A    between atoms: S_13  and  C_16
REMARK    8  A    between atoms: C_19  and  C_22
REMARK    9  A    between atoms: C_22  and  C_23
REMARK   10  A    between atoms: C_22  and  C_24
REMARK   11  A    between atoms: C_22  and  C_25
REMARK   12  A    between atoms: C_27  and  C_34
REMARK   13  A    between atoms: C_29  and  O_30
REMARK   14  A    between atoms: O_30  and  C_31
REMARK   15  A    between atoms: C_31  and  C_32
REMARK   16  A    between atoms: C_32  and  O_33
REMARK                            x       y       z     vdW  Elec       q    Type
REMARK                         _______ _______ _______ _____ _____    ______ ____
ROOT
ATOM      1  C   UNL     1       0.745   1.440  -1.534  0.00  0.00    +0.000 A 
ATOM      2  C   UNL     1       1.302   2.121  -0.449  0.00  0.00    +0.000 A 
ATOM      3  N   UNL     1       0.613   2.302   0.718  0.00  0.00    +0.000 NA
ATOM      4  C   UNL     1      -0.670   1.803   0.792  0.00  0.00    +0.000 A 
ATOM      5  N   UNL     1      -1.318   1.254  -0.271  0.00  0.00    +0.000 NA
ATOM      6  C   UNL     1      -0.620   1.099  -1.432  0.00  0.00    +0.000 A 
ENDROOT
BRANCH   4   7
ATOM      7  C   UNL     1      -1.403   1.830   2.127  0.00  0.00    +0.000 A 
ATOM      8  N   UNL     1      -1.650   3.057   2.633  0.00  0.00    +0.000 NA
ATOM      9  C   UNL     1      -2.395   3.125   3.756  0.00  0.00    +0.000 A 
ATOM     10  C   UNL     1      -2.887   2.034   4.428  0.00  0.00    +0.000 A 
ATOM     11  C   UNL     1      -2.563   0.818   3.876  0.00  0.00    +0.000 A 
ATOM     12  N   UNL     1      -1.837   0.679   2.730  0.00  0.00    +0.000 NA
ENDBRANCH   4   7
BRANCH   2  13
ATOM     13  N   UNL     1       2.683   2.547  -0.367  0.00  0.00    +0.000 N 
ATOM     14  H   UNL     1       3.068   2.665   0.566  0.00  0.00    +0.000 HD
BRANCH  13  15
ATOM     15  S   UNL     1       3.710   2.352  -1.674  0.00  0.00    +0.000 S 
ATOM     16  O   UNL     1       4.140   1.016  -1.747  0.00  0.00    +0.000 OA
ATOM     17  O   UNL     1       3.177   3.064  -2.830  0.00  0.00    +0.000 OA
BRANCH  15  18
ATOM     18  C   UNL     1       5.291   2.900  -1.334  0.00  0.00    +0.000 A 
ATOM     19  C   UNL     1       6.347   1.950  -1.179  0.00  0.00    +0.000 A 
ATOM     20  C   UNL     1       7.600   2.389  -0.890  0.00  0.00    +0.000 A 
ATOM     21  C   UNL     1       7.808   3.764  -0.922  0.00  0.00    +0.000 A 
ATOM     22  C   UNL     1       6.734   4.661  -1.168  0.00  0.00    +0.000 A 
ATOM     23  C   UNL     1       5.467   4.236  -1.399  0.00  0.00    +0.000 A 
BRANCH  21  24
ATOM     24  C   UNL     1       9.218   4.279  -0.758  0.00  0.00    +0.000 C 
ATOM     25  C   UNL     1       9.740   3.869   0.624  0.00  0.00    +0.000 C 
ATOM     26  C   UNL     1      10.107   3.682  -1.863  0.00  0.00    +0.000 C 
ATOM     27  C   UNL     1       9.230   5.807  -0.882  0.00  0.00    +0.000 C 
ENDBRANCH  21  24
ENDBRANCH  15  18
ENDBRANCH  13  15
ENDBRANCH   2  13
BRANCH   1  28
ATOM     28  O   UNL     1       1.510   0.906  -2.545  0.00  0.00    +0.000 OA
BRANCH  28  34
ATOM     29  C   UNL     1       2.743  -0.912  -1.211  0.00  0.00    +0.000 A 
ATOM     30  C   UNL     1       3.968  -1.618  -1.202  0.00  0.00    +0.000 A 
ATOM     31  C   UNL     1       4.774  -1.691  -2.342  0.00  0.00    +0.000 A 
ATOM     32  C   UNL     1       4.329  -1.143  -3.547  0.00  0.00    +0.000 A 
ATOM     33  C   UNL     1       3.104  -0.444  -3.591  0.00  0.00    +0.000 A 
ATOM     34  C   UNL     1       2.309  -0.266  -2.409  0.00  0.00    +0.000 A 
BRANCH  29  36
ATOM     35  C   UNL     1       1.077  -0.840   0.377  0.00  0.00    +0.000 C 
ATOM     36  O   UNL     1       2.415  -0.560   0.083  0.00  0.00    +0.000 OA
ENDBRANCH  29  36
ENDBRANCH  28  34
ENDBRANCH   1  28
BRANCH   6  37
ATOM     37  O   UNL     1      -1.292   0.285  -2.331  0.00  0.00    +0.000 OA
BRANCH  37  38
ATOM     38  C   UNL     1      -0.587  -0.034  -3.526  0.00  0.00    +0.000 C 
BRANCH  38  39
ATOM     39  C   UNL     1      -1.419  -0.731  -4.570  0.00  0.00    +0.000 C 
BRANCH  39  40
ATOM     40  O   UNL     1      -0.640  -0.923  -5.753  0.00  0.00    +0.000 OA
ATOM     41  H   UNL     1      -0.313  -0.053  -6.046  0.00  0.00    +0.000 HD
ENDBRANCH  39  40
ENDBRANCH  38  39
ENDBRANCH  37  38
ENDBRANCH   6  37
TORSDOF 12
