REMARK  Name = Bosutinib
REMARK  13 active torsions:
REMARK  status: ('A' for Active; 'I' for Inactive)
REMARK    1  A    between atoms: C_1  and  O_2
REMARK    2  A    between atoms: O_2  and  C_3
REMARK    3  A    between atoms: C_5  and  N_6
REMARK    4  A    between atoms: N_6  and  C_7
REMARK    5  A    between atoms: C_8  and  C_30
REMARK    6  A    between atoms: C_13  and  O_14
REMARK    7  A    between atoms: O_14  and  C_15
REMARK    8  A    between atoms: C_15  and  C_16
REMARK    9  A    between atoms: C_16  and  C_17
REMARK   10  A    between atoms: C_17  and  N_18
REMARK   11  A    between atoms: N_21  and  C_22
REMARK   12  A    between atoms: C_25  and  O_26
REMARK   13  A    between atoms: O_26  and  C_27
REMARK                            x       y       z     vdW  Elec       q    Type
REMARK                         _______ _______ _______ _____ _____    ______ ____
ROOT
ATOM      1  C   UNL     1       3.542   3.144   5.289  0.00  0.00    +0.000 A 
ATOM      2  C   UNL     1       3.644   4.508   4.968  0.00  0.00    +0.000 A 
ATOM      3  C   UNL     1       4.350   5.321   5.833  0.00  0.00    +0.000 A 
ATOM      4  N   UNL     1       4.870   4.911   7.013  0.00  0.00    +0.000 NA
ATOM      5  C   UNL     1       4.700   3.629   7.376  0.00  0.00    +0.000 A 
ATOM      6  C   UNL     1       5.196   3.205   8.605  0.00  0.00    +0.000 A 
ATOM      7  C   UNL     1       5.045   1.885   9.055  0.00  0.00    +0.000 A 
ATOM      8  C   UNL     1       4.404   0.953   8.224  0.00  0.00    +0.000 A 
ATOM      9  C   UNL     1       3.934   1.361   6.977  0.00  0.00    +0.000 A 
ATOM     10  C   UNL     1       4.038   2.698   6.546  0.00  0.00    +0.000 A 
ENDROOT
BRANCH   1  11
ATOM     11  N   UNL     1       3.058   2.197   4.340  0.00  0.00    +0.000 N 
ATOM     12  H   UNL     1       2.174   1.763   4.598  0.00  0.00    +0.000 HD
BRANCH  11  15
ATOM     13  C   UNL     1       3.090   1.021   0.791  0.00  0.00    +0.000 A 
ATOM     14  C   UNL     1       2.702   1.243   2.126  0.00  0.00    +0.000 A 
ATOM     15  C   UNL     1       3.490   2.028   2.997  0.00  0.00    +0.000 A 
ATOM     16  C   UNL     1       4.698   2.562   2.473  0.00  0.00    +0.000 A 
ATOM     17 CL   UNL     1       5.959   3.330   3.393  0.00  0.00    +0.000 Cl
ATOM     18  C   UNL     1       5.026   2.427   1.129  0.00  0.00    +0.000 A 
ATOM     19  C   UNL     1       4.248   1.636   0.300  0.00  0.00    +0.000 A 
ATOM     20 CL   UNL     1       4.803   1.409  -1.318  0.00  0.00    +0.000 Cl
BRANCH  13  22
ATOM     21  C   UNL     1       1.037   0.127   0.004  0.00  0.00    +0.000 C 
ATOM     22  O   UNL     1       2.458   0.126  -0.034  0.00  0.00    +0.000 OA
ENDBRANCH  13  22
ENDBRANCH  11  15
ENDBRANCH   1  11
BRANCH   8  23
ATOM     23  O   UNL     1       4.246  -0.321   8.682  0.00  0.00    +0.000 OA
ATOM     24  C   UNL     1       3.600  -1.289   7.884  0.00  0.00    +0.000 C 
ENDBRANCH   8  23
BRANCH   2  25
ATOM     25  C   UNL     1       3.218   5.038   3.702  0.00  0.00    +0.000 C 
ATOM     26  N   UNL     1       2.947   5.410   2.642  0.00  0.00    +0.000 NA
ENDBRANCH   2  25
BRANCH   7  27
ATOM     27  O   UNL     1       5.554   1.654  10.315  0.00  0.00    +0.000 OA
BRANCH  27  28
ATOM     28  C   UNL     1       5.417   0.319  10.809  0.00  0.00    +0.000 C 
BRANCH  28  29
ATOM     29  C   UNL     1       5.982   0.206  12.204  0.00  0.00    +0.000 C 
BRANCH  29  30
ATOM     30  C   UNL     1       5.868  -1.238  12.715  0.00  0.00    +0.000 C 
BRANCH  30  31
ATOM     31  N   UNL     1       7.043  -2.037  12.364  0.00  0.00    +0.000 NA
ATOM     32  C   UNL     1       6.878  -3.439  12.805  0.00  0.00    +0.000 C 
ATOM     33  C   UNL     1       8.111  -4.289  12.415  0.00  0.00    +0.000 C 
ATOM     34  N   UNL     1       9.408  -3.753  12.890  0.00  0.00    +0.000 NA
ATOM     35  C   UNL     1       9.536  -3.945  14.334  0.00  0.00    +0.000 C 
ATOM     36  C   UNL     1       9.498  -2.313  12.576  0.00  0.00    +0.000 C 
ATOM     37  C   UNL     1       8.262  -1.510  13.009  0.00  0.00    +0.000 C 
ENDBRANCH  30  31
ENDBRANCH  29  30
ENDBRANCH  28  29
ENDBRANCH  27  28
ENDBRANCH   7  27
TORSDOF 10
