REMARK  Name = Bretylium
REMARK  6 active torsions:
REMARK  status: ('A' for Active; 'I' for Inactive)
REMARK    1  A    between atoms: C_1  and  C_2
REMARK    2  A    between atoms: C_2  and  N_3
REMARK    3  A    between atoms: N_3  and  C_4
REMARK    4  A    between atoms: N_3  and  C_5
REMARK    5  A    between atoms: N_3  and  C_6
REMARK    6  A    between atoms: C_6  and  C_7
REMARK                            x       y       z     vdW  Elec       q    Type
REMARK                         _______ _______ _______ _____ _____    ______ ____
ROOT
ATOM      1  C   UNL     1       5.233   0.242  -2.803  0.00  0.00    +0.000 A 
ATOM      2  C   UNL     1       5.372   1.508  -3.412  0.00  0.00    +0.000 A 
ATOM      3  C   UNL     1       5.760   1.622  -4.748  0.00  0.00    +0.000 A 
ATOM      4  C   UNL     1       6.037   0.481  -5.486  0.00  0.00    +0.000 A 
ATOM      5  C   UNL     1       5.950  -0.777  -4.893  0.00  0.00    +0.000 A 
ATOM      6  C   UNL     1       5.575  -0.897  -3.551  0.00  0.00    +0.000 A 
ATOM      7 BR   UNL     1       5.523  -2.662  -2.845  0.00  0.00    +0.000 Br
ENDROOT
BRANCH   1   8
ATOM      8  C   UNL     1       4.598   0.166  -1.431  0.00  0.00    +0.000 C 
BRANCH   8   9
ATOM      9  N   UNL     1       3.031   0.172  -1.438  0.00  0.00    +0.000 N 
ATOM     10  C   UNL     1       2.517  -1.000  -2.269  0.00  0.00    +0.000 C 
ATOM     11  C   UNL     1       2.527   1.480  -2.036  0.00  0.00    +0.000 C 
BRANCH   9  13
ATOM     12  C   UNL     1       1.031   0.013   0.130  0.00  0.00    +0.000 C 
ATOM     13  C   UNL     1       2.550   0.029   0.019  0.00  0.00    +0.000 C 
ENDBRANCH   9  13
ENDBRANCH   8   9
ENDBRANCH   1   8
TORSDOF 3
