REMARK  Name = Brexanolone
REMARK  5 active torsions:
REMARK  status: ('A' for Active; 'I' for Inactive)
REMARK    1  A    between atoms: C_2  and  C_26
REMARK    2  A    between atoms: C_14  and  O_15
REMARK    3  A    between atoms: C_18  and  C_19
REMARK    4  A    between atoms: C_24  and  C_25
REMARK    5  A    between atoms: C_26  and  C_27
REMARK                            x       y       z     vdW  Elec       q    Type
REMARK                         _______ _______ _______ _____ _____    ______ ____
ROOT
ATOM      1  C   UNL     1       3.347  -0.214  -0.648  0.00  0.00    +0.000 C 
ATOM      2  C   UNL     1       3.214  -1.415   0.172  0.00  0.00    +0.000 C 
ATOM      3  C   UNL     1       3.913  -0.734   1.337  0.00  0.00    +0.000 C 
ATOM      4  C   UNL     1       5.265  -1.213   1.068  0.00  0.00    +0.000 C 
ATOM      5  C   UNL     1       6.315  -0.762   2.079  0.00  0.00    +0.000 C 
ATOM      6  C   UNL     1       5.595  -0.968   3.395  0.00  0.00    +0.000 C 
ATOM      7  C   UNL     1       6.483  -0.585   4.460  0.00  0.00    +0.000 C 
ATOM      8  C   UNL     1       7.653  -1.559   4.454  0.00  0.00    +0.000 C 
ATOM      9  C   UNL     1       8.400  -1.095   5.555  0.00  0.00    +0.000 C 
ATOM     10  C   UNL     1       8.502  -0.412   6.794  0.00  0.00    +0.000 C 
ATOM     11  C   UNL     1       9.833   0.263   5.981  0.00  0.00    +0.000 C 
ATOM     12  C   UNL     1       9.686   0.141   4.039  0.00  0.00    +0.000 C 
ATOM     13  C   UNL     1       8.722  -1.283   3.321  0.00  0.00    +0.000 C 
ATOM     14  C   UNL     1       9.842  -2.368   3.186  0.00  0.00    +0.000 C 
ATOM     15  C   UNL     1       7.647  -1.561   2.063  0.00  0.00    +0.000 C 
ATOM     16  C   UNL     1       7.995  -1.651   0.587  0.00  0.00    +0.000 C 
ATOM     17  C   UNL     1       6.608  -2.065  -0.345  0.00  0.00    +0.000 C 
ATOM     18  C   UNL     1       5.277  -0.742  -0.432  0.00  0.00    +0.000 C 
ATOM     19  C   UNL     1       6.137  -0.355  -1.686  0.00  0.00    +0.000 C 
ENDROOT
BRANCH   1  20
ATOM     20  C   UNL     1       1.490  -0.198  -0.360  0.00  0.00    +0.000 C 
ATOM     21  C   UNL     1       0.479   0.339   0.941  0.00  0.00    +0.000 C 
ATOM     22  O   UNL     1       0.753  -0.676  -1.324  0.00  0.00    +0.000 OA
ENDBRANCH   1  20
BRANCH  10  23
ATOM     23  O   UNL     1       7.411   0.456   7.056  0.00  0.00    +0.000 OA
ATOM     24  H   UNL     1       7.454   1.222   6.459  0.00  0.00    +0.000 HD
ENDBRANCH  10  23
TORSDOF 2
