REMARK  Name = Brigatinib
REMARK  10 active torsions:
REMARK  status: ('A' for Active; 'I' for Inactive)
REMARK    1  A    between atoms: C_1  and  O_2
REMARK    2  A    between atoms: O_2  and  C_3
REMARK    3  A    between atoms: C_5  and  N_28
REMARK    4  A    between atoms: C_8  and  N_9
REMARK    5  A    between atoms: N_16  and  C_17
REMARK    6  A    between atoms: C_22  and  P_23
REMARK    7  A    between atoms: P_23  and  C_24
REMARK    8  A    between atoms: P_23  and  C_25
REMARK    9  A    between atoms: C_31  and  N_34
REMARK   10  A    between atoms: N_37  and  C_38
REMARK                            x       y       z     vdW  Elec       q    Type
REMARK                         _______ _______ _______ _____ _____    ______ ____
ROOT
ATOM      1  C   UNL     1       2.992  -0.015   1.183  0.00  0.00    +0.000 A 
ATOM      2  C   UNL     1       4.121   0.672   1.381  0.00  0.00    +0.000 A 
ATOM      3  C   UNL     1       4.981   0.339   2.412  0.00  0.00    +0.000 A 
ATOM      4  C   UNL     1       4.509  -0.449   3.463  0.00  0.00    +0.000 A 
ATOM      5  C   UNL     1       3.290  -1.089   3.319  0.00  0.00    +0.000 A 
ATOM      6  C   UNL     1       2.513  -0.946   2.143  0.00  0.00    +0.000 A 
ENDROOT
BRANCH   6   7
ATOM      7  N   UNL     1       1.420  -1.827   1.960  0.00  0.00    +0.000 N 
ATOM      8  C   UNL     1       0.550  -1.711   0.873  0.00  0.00    +0.000 A 
ATOM      9  N   UNL     1       1.073  -2.124  -0.298  0.00  0.00    +0.000 NA
ATOM     10  C   UNL     1       0.546  -1.624  -1.434  0.00  0.00    +0.000 A 
ATOM     11  C   UNL     1      -0.515  -0.738  -1.480  0.00  0.00    +0.000 A 
ATOM     12 CL   UNL     1      -1.054  -0.256  -3.040  0.00  0.00    +0.000 Cl
ATOM     13  C   UNL     1      -1.125  -0.428  -0.238  0.00  0.00    +0.000 A 
ATOM     14  N   UNL     1      -2.508   0.057  -0.215  0.00  0.00    +0.000 N 
ATOM     15  N   UNL     1      -0.591  -0.931   0.964  0.00  0.00    +0.000 NA
ATOM     16  H   UNL     1       0.956  -2.069   2.821  0.00  0.00    +0.000 HD
ATOM     17  H   UNL     1      -2.876  -0.142   0.727  0.00  0.00    +0.000 HD
BRANCH  14  18
ATOM     18  C   UNL     1      -3.535  -0.193  -1.227  0.00  0.00    +0.000 A 
ATOM     19  C   UNL     1      -4.297   0.944  -1.505  0.00  0.00    +0.000 A 
ATOM     20  C   UNL     1      -5.209   0.937  -2.554  0.00  0.00    +0.000 A 
ATOM     21  C   UNL     1      -5.389  -0.208  -3.333  0.00  0.00    +0.000 A 
ATOM     22  C   UNL     1      -4.711  -1.393  -3.039  0.00  0.00    +0.000 A 
ATOM     23  C   UNL     1      -3.815  -1.434  -1.966  0.00  0.00    +0.000 A 
BRANCH  23  24
ATOM     24  P   UNL     1      -2.918  -2.992  -1.624  0.00  0.00    +0.000 P 
ATOM     25  C   UNL     1      -2.099  -2.857  -0.027  0.00  0.00    +0.000 C 
ATOM     26  C   UNL     1      -4.547  -3.712  -0.812  0.00  0.00    +0.000 C 
ATOM     27  O   UNL     1      -2.160  -4.311  -1.334  0.00  0.00    +0.000 OA
ENDBRANCH  23  24
ENDBRANCH  14  18
ENDBRANCH   6   7
BRANCH   3  28
ATOM     28  N   UNL     1       6.217   0.798   2.225  0.00  0.00    +0.000 N 
ATOM     29  C   UNL     1       6.253   2.220   2.357  0.00  0.00    +0.000 C 
ATOM     30  C   UNL     1       7.171   2.761   1.281  0.00  0.00    +0.000 C 
ATOM     31  C   UNL     1       8.591   2.200   1.423  0.00  0.00    +0.000 C 
ATOM     32  C   UNL     1       8.480   0.636   1.461  0.00  0.00    +0.000 C 
ATOM     33  C   UNL     1       7.448   0.067   2.451  0.00  0.00    +0.000 C 
BRANCH  31  34
ATOM     34  N   UNL     1       9.452   2.803   2.477  0.00  0.00    +0.000 NA
ATOM     35  C   UNL     1       9.009   2.671   3.869  0.00  0.00    +0.000 C 
ATOM     36  C   UNL     1       7.958   3.711   4.301  0.00  0.00    +0.000 C 
ATOM     37  N   UNL     1       8.333   5.115   4.179  0.00  0.00    +0.000 NA
ATOM     38  C   UNL     1       7.088   5.875   4.427  0.00  0.00    +0.000 C 
ATOM     39  C   UNL     1       8.784   5.312   2.771  0.00  0.00    +0.000 C 
ATOM     40  C   UNL     1       9.803   4.233   2.267  0.00  0.00    +0.000 C 
ENDBRANCH  31  34
ENDBRANCH   3  28
BRANCH   1  42
ATOM     41  C   UNL     1       1.446   1.039  -0.114  0.00  0.00    +0.000 C 
ATOM     42  O   UNL     1       2.591   0.242  -0.100  0.00  0.00    +0.000 OA
ENDBRANCH   1  42
TORSDOF 6
