REMARK  Name = Brimonidine
REMARK  1 active torsions:
REMARK  status: ('A' for Active; 'I' for Inactive)
REMARK    1  A    between atoms: C_3  and  N_4
REMARK                            x       y       z     vdW  Elec       q    Type
REMARK                         _______ _______ _______ _____ _____    ______ ____
ROOT
ATOM      1 BR   UNL     1       0.926   0.071  -0.183  0.00  0.00    +0.000 Br
ATOM      2  C   UNL     1       2.841   0.056  -0.107  0.00  0.00    +0.000 A 
ATOM      3  C   UNL     1       3.538   1.283  -0.140  0.00  0.00    +0.000 A 
ATOM      4  C   UNL     1       4.925   1.230   0.015  0.00  0.00    +0.000 A 
ATOM      5  C   UNL     1       5.567   0.032   0.314  0.00  0.00    +0.000 A 
ATOM      6  C   UNL     1       4.897  -1.171   0.248  0.00  0.00    +0.000 A 
ATOM      7  N   UNL     1       5.623  -2.297   0.364  0.00  0.00    +0.000 NA
ATOM      8  C   UNL     1       4.970  -3.458   0.159  0.00  0.00    +0.000 A 
ATOM      9  C   UNL     1       3.619  -3.496  -0.103  0.00  0.00    +0.000 A 
ATOM     10  N   UNL     1       2.866  -2.376  -0.155  0.00  0.00    +0.000 NA
ATOM     11  C   UNL     1       3.501  -1.184   0.000  0.00  0.00    +0.000 A 
ENDROOT
BRANCH   3  12
ATOM     12  N   UNL     1       2.861   2.511  -0.405  0.00  0.00    +0.000 N 
ATOM     13  C   UNL     1       3.466   3.727  -0.274  0.00  0.00    +0.000 C 
ATOM     14  N   UNL     1       3.216   4.615   0.639  0.00  0.00    +0.000 NA
ATOM     15  C   UNL     1       4.109   5.766   0.277  0.00  0.00    +0.000 C 
ATOM     16  C   UNL     1       5.075   5.255  -0.801  0.00  0.00    +0.000 C 
ATOM     17  N   UNL     1       4.429   4.036  -1.175  0.00  0.00    +0.000 N 
ATOM     18  H   UNL     1       1.964   2.492   0.074  0.00  0.00    +0.000 HD
ATOM     19  H   UNL     1       4.530   3.570  -2.061  0.00  0.00    +0.000 HD
ENDBRANCH   3  12
TORSDOF 1
