REMARK  Name = Brincidofovir
REMARK  29 active torsions:
REMARK  status: ('A' for Active; 'I' for Inactive)
REMARK    1  A    between atoms: C_1  and  C_2
REMARK    2  A    between atoms: C_2  and  C_3
REMARK    3  A    between atoms: C_3  and  C_4
REMARK    4  A    between atoms: C_4  and  C_5
REMARK    5  A    between atoms: C_5  and  C_6
REMARK    6  A    between atoms: C_6  and  C_7
REMARK    7  A    between atoms: C_7  and  C_8
REMARK    8  A    between atoms: C_8  and  C_9
REMARK    9  A    between atoms: C_9  and  C_10
REMARK   10  A    between atoms: C_10  and  C_11
REMARK   11  A    between atoms: C_11  and  C_12
REMARK   12  A    between atoms: C_12  and  C_13
REMARK   13  A    between atoms: C_13  and  C_14
REMARK   14  A    between atoms: C_14  and  C_15
REMARK   15  A    between atoms: C_15  and  C_16
REMARK   16  A    between atoms: C_16  and  O_17
REMARK   17  A    between atoms: O_17  and  C_18
REMARK   18  A    between atoms: C_18  and  C_19
REMARK   19  A    between atoms: C_19  and  C_20
REMARK   20  A    between atoms: C_20  and  O_21
REMARK   21  A    between atoms: O_21  and  P_22
REMARK   22  A    between atoms: P_22  and  O_23
REMARK   23  A    between atoms: P_22  and  C_25
REMARK   24  A    between atoms: C_25  and  O_26
REMARK   25  A    between atoms: O_26  and  C_27
REMARK   26  A    between atoms: C_27  and  C_28
REMARK   27  A    between atoms: C_27  and  C_30
REMARK   28  A    between atoms: C_28  and  O_29
REMARK   29  A    between atoms: C_30  and  N_31
REMARK                            x       y       z     vdW  Elec       q    Type
REMARK                         _______ _______ _______ _____ _____    ______ ____
ROOT
ATOM      1  O   UNL     1      28.363 -13.384 -10.077  0.00  0.00    +0.000 OA
ENDROOT
BRANCH   1   2
ATOM      2  P   UNL     1      27.986 -12.540  -8.615  0.00  0.00    +0.000 P 
ATOM      3  O   UNL     1      29.070 -13.294  -7.846  0.00  0.00    +0.000 OA
BRANCH   2   4
ATOM      4  O   UNL     1      26.531 -13.301  -8.562  0.00  0.00    +0.000 OA
ATOM      5  H   UNL     1      26.323 -13.804  -9.367  0.00  0.00    +0.000 HD
ENDBRANCH   2   4
BRANCH   2   6
ATOM      6  C   UNL     1      27.586 -11.647  -7.068  0.00  0.00    +0.000 C 
BRANCH   6   7
ATOM      7  O   UNL     1      27.084 -12.522  -6.075  0.00  0.00    +0.000 OA
BRANCH   7   8
ATOM      8  C   UNL     1      26.576 -11.840  -4.916  0.00  0.00    +0.000 C 
BRANCH   8   9
ATOM      9  C   UNL     1      27.192 -10.443  -4.767  0.00  0.00    +0.000 C 
BRANCH   9  10
ATOM     10  N   UNL     1      28.696 -10.464  -4.762  0.00  0.00    +0.000 N 
ATOM     11  C   UNL     1      29.342  -9.246  -4.727  0.00  0.00    +0.000 A 
ATOM     12  C   UNL     1      30.642  -9.193  -4.442  0.00  0.00    +0.000 A 
ATOM     13  C   UNL     1      31.389 -10.444  -4.649  0.00  0.00    +0.000 A 
ATOM     14  N   UNL     1      32.743 -10.444  -4.686  0.00  0.00    +0.000 N 
ATOM     15  N   UNL     1      30.816 -11.583  -4.835  0.00  0.00    +0.000 NA
ATOM     16  C   UNL     1      29.466 -11.666  -4.686  0.00  0.00    +0.000 A 
ATOM     17  O   UNL     1      28.990 -12.784  -4.476  0.00  0.00    +0.000 OA
ATOM     18  H   UNL     1      33.304  -9.625  -4.530  0.00  0.00    +0.000 HD
ATOM     19  H   UNL     1      33.194 -11.322  -4.923  0.00  0.00    +0.000 HD
ENDBRANCH   9  10
ENDBRANCH   8   9
BRANCH   8  20
ATOM     20  C   UNL     1      25.050 -11.943  -4.974  0.00  0.00    +0.000 C 
BRANCH  20  21
ATOM     21  O   UNL     1      24.665 -12.765  -6.080  0.00  0.00    +0.000 OA
ATOM     22  H   UNL     1      25.484 -13.274  -6.302  0.00  0.00    +0.000 HD
ENDBRANCH  20  21
ENDBRANCH   8  20
ENDBRANCH   7   8
ENDBRANCH   6   7
ENDBRANCH   2   6
ENDBRANCH   1   2
BRANCH   1  23
ATOM     23  C   UNL     1      28.553 -14.793  -9.859  0.00  0.00    +0.000 C 
BRANCH  23  24
ATOM     24  C   UNL     1      28.851 -15.518 -11.140  0.00  0.00    +0.000 C 
BRANCH  24  25
ATOM     25  C   UNL     1      28.996 -16.990 -10.808  0.00  0.00    +0.000 C 
BRANCH  25  26
ATOM     26  O   UNL     1      29.297 -17.698 -11.999  0.00  0.00    +0.000 OA
BRANCH  26  27
ATOM     27  C   UNL     1      29.442 -19.080 -11.706  0.00  0.00    +0.000 C 
BRANCH  27  28
ATOM     28  C   UNL     1      29.772 -19.807 -12.989  0.00  0.00    +0.000 C 
BRANCH  28  29
ATOM     29  C   UNL     1      29.927 -21.290 -12.707  0.00  0.00    +0.000 C 
BRANCH  29  30
ATOM     30  C   UNL     1      30.258 -22.036 -13.984  0.00  0.00    +0.000 C 
BRANCH  30  31
ATOM     31  C   UNL     1      30.412 -23.518 -13.692  0.00  0.00    +0.000 C 
BRANCH  31  32
ATOM     32  C   UNL     1      30.743 -24.264 -14.971  0.00  0.00    +0.000 C 
BRANCH  32  33
ATOM     33  C   UNL     1      30.896 -25.745 -14.680  0.00  0.00    +0.000 C 
BRANCH  33  34
ATOM     34  C   UNL     1      31.228 -26.489 -15.959  0.00  0.00    +0.000 C 
BRANCH  34  35
ATOM     35  C   UNL     1      31.381 -27.970 -15.669  0.00  0.00    +0.000 C 
BRANCH  35  36
ATOM     36  C   UNL     1      31.712 -28.715 -16.948  0.00  0.00    +0.000 C 
BRANCH  36  37
ATOM     37  C   UNL     1      31.866 -30.196 -16.658  0.00  0.00    +0.000 C 
BRANCH  37  38
ATOM     38  C   UNL     1      32.197 -30.943 -17.937  0.00  0.00    +0.000 C 
BRANCH  38  39
ATOM     39  C   UNL     1      32.351 -32.426 -17.647  0.00  0.00    +0.000 C 
BRANCH  39  40
ATOM     40  C   UNL     1      32.683 -33.176 -18.927  0.00  0.00    +0.000 C 
BRANCH  40  42
ATOM     41  C   UNL     1      33.170 -35.409 -19.923  0.00  0.00    +0.000 C 
ATOM     42  C   UNL     1      32.839 -34.663 -18.646  0.00  0.00    +0.000 C 
ENDBRANCH  40  42
ENDBRANCH  39  40
ENDBRANCH  38  39
ENDBRANCH  37  38
ENDBRANCH  36  37
ENDBRANCH  35  36
ENDBRANCH  34  35
ENDBRANCH  33  34
ENDBRANCH  32  33
ENDBRANCH  31  32
ENDBRANCH  30  31
ENDBRANCH  29  30
ENDBRANCH  28  29
ENDBRANCH  27  28
ENDBRANCH  26  27
ENDBRANCH  25  26
ENDBRANCH  24  25
ENDBRANCH  23  24
ENDBRANCH   1  23
TORSDOF 28
