REMARK  Name = Brinzolamide
REMARK  10 active torsions:
REMARK  status: ('A' for Active; 'I' for Inactive)
REMARK    1  A    between atoms: C_1  and  C_2
REMARK    2  A    between atoms: C_2  and  N_3
REMARK    3  A    between atoms: N_3  and  C_4
REMARK    4  A    between atoms: N_6  and  C_7
REMARK    5  A    between atoms: C_7  and  C_8
REMARK    6  A    between atoms: C_8  and  C_9
REMARK    7  A    between atoms: C_9  and  O_10
REMARK    8  A    between atoms: O_10  and  C_11
REMARK    9  A    between atoms: C_18  and  S_20
REMARK   10  A    between atoms: S_20  and  N_21
REMARK                            x       y       z     vdW  Elec       q    Type
REMARK                         _______ _______ _______ _____ _____    ______ ____
ROOT
ATOM      1  C   UNL     1       4.378   1.023  -0.614  0.00  0.00    +0.000 C 
ATOM      2  C   UNL     1       4.648   2.326  -1.412  0.00  0.00    +0.000 C 
ATOM      3  N   UNL     1       5.735   2.470  -2.420  0.00  0.00    +0.000 NA
ATOM      4  S   UNL     1       6.174   1.164  -3.370  0.00  0.00    +0.000 S 
ATOM      5  O   UNL     1       5.353   1.152  -4.556  0.00  0.00    +0.000 OA
ATOM      6  O   UNL     1       7.617   1.047  -3.395  0.00  0.00    +0.000 OA
ATOM      7  C   UNL     1       5.624  -0.190  -2.436  0.00  0.00    +0.000 A 
ATOM      8  C   UNL     1       4.857  -0.224  -1.293  0.00  0.00    +0.000 A 
ATOM      9  C   UNL     1       4.612  -1.583  -0.921  0.00  0.00    +0.000 A 
ATOM     10  C   UNL     1       5.249  -2.465  -1.775  0.00  0.00    +0.000 A 
ATOM     11  S   UNL     1       6.085  -1.685  -3.028  0.00  0.00    +0.000 S 
ENDROOT
BRANCH  10  12
ATOM     12  S   UNL     1       5.337  -4.213  -1.902  0.00  0.00    +0.000 S 
ATOM     13  O   UNL     1       6.754  -4.520  -1.922  0.00  0.00    +0.000 OA
ATOM     14  O   UNL     1       4.424  -4.692  -0.906  0.00  0.00    +0.000 OA
BRANCH  12  15
ATOM     15  N   UNL     1       4.703  -4.555  -3.427  0.00  0.00    +0.000 NA
ATOM     16  H   UNL     1       5.296  -4.173  -4.168  0.00  0.00    +0.000 HD
ATOM     17  H   UNL     1       3.732  -4.251  -3.502  0.00  0.00    +0.000 HD
ENDBRANCH  12  15
ENDBRANCH  10  12
BRANCH   1  18
ATOM     18  N   UNL     1       5.019   1.075   0.723  0.00  0.00    +0.000 NA
ATOM     19  H   UNL     1       4.819   0.214   1.233  0.00  0.00    +0.000 HD
BRANCH  18  21
ATOM     20  C   UNL     1       5.331   2.234   2.855  0.00  0.00    +0.000 C 
ATOM     21  C   UNL     1       4.581   2.218   1.543  0.00  0.00    +0.000 C 
ENDBRANCH  18  21
ENDBRANCH   1  18
BRANCH   3  22
ATOM     22  C   UNL     1       6.907   3.205  -1.932  0.00  0.00    +0.000 C 
BRANCH  22  23
ATOM     23  C   UNL     1       6.515   4.526  -1.316  0.00  0.00    +0.000 C 
BRANCH  23  24
ATOM     24  C   UNL     1       7.778   5.220  -0.936  0.00  0.00    +0.000 C 
BRANCH  24  25
ATOM     25  O   UNL     1       7.390   6.416  -0.288  0.00  0.00    +0.000 OA
ATOM     26  C   UNL     1       8.549   7.131   0.085  0.00  0.00    +0.000 C 
ENDBRANCH  24  25
ENDBRANCH  23  24
ENDBRANCH  22  23
ENDBRANCH   3  22
TORSDOF 8
