REMARK  Name = Brivudine
REMARK  5 active torsions:
REMARK  status: ('A' for Active; 'I' for Inactive)
REMARK    1  A    between atoms: O5*_1  and  C5*_2
REMARK    2  A    between atoms: C5*_2  and  C4*_3
REMARK    3  A    between atoms: C1*_5  and  N_9
REMARK    4  A    between atoms: C3*_7  and  O3*_8
REMARK    5  A    between atoms: C_11  and  C_12
REMARK                            x       y       z     vdW  Elec       q    Type
REMARK                         _______ _______ _______ _____ _____    ______ ____
ROOT
ATOM      1  N   UNL     1       0.646   3.965  -1.054  0.00  0.00    +0.000 N 
ATOM      2  C   UNL     1      -0.394   3.208  -0.557  0.00  0.00    +0.000 A 
ATOM      3  C   UNL     1      -1.688   3.466  -0.791  0.00  0.00    +0.000 A 
ATOM      4  C   UNL     1      -1.980   4.724  -1.537  0.00  0.00    +0.000 A 
ATOM      5  O   UNL     1      -3.121   5.032  -1.885  0.00  0.00    +0.000 OA
ATOM      6  N   UNL     1      -0.909   5.526  -1.810  0.00  0.00    +0.000 N 
ATOM      7  C   UNL     1       0.409   5.143  -1.745  0.00  0.00    +0.000 A 
ATOM      8  O   UNL     1       1.279   5.827  -2.276  0.00  0.00    +0.000 OA
ATOM      9  H   UNL     1      -1.102   6.377  -2.315  0.00  0.00    +0.000 HD
ENDROOT
BRANCH   1  12
ATOM     10  C4* UNL     1       3.011   1.337  -0.694  0.00  0.00    +0.000 C 
ATOM     11  O4* UNL     1       2.087   2.119  -1.484  0.00  0.00    +0.000 OA
ATOM     12  C1* UNL     1       2.012   3.454  -0.932  0.00  0.00    +0.000 C 
ATOM     13  C2* UNL     1       2.502   3.347   0.505  0.00  0.00    +0.000 C 
ATOM     14  C3* UNL     1       3.529   2.248   0.419  0.00  0.00    +0.000 C 
BRANCH  14  15
ATOM     15  O3* UNL     1       4.808   2.787   0.088  0.00  0.00    +0.000 OA
ATOM     16  H3* UNL     1       4.771   3.185  -0.799  0.00  0.00    +0.000 HD
ENDBRANCH  14  15
BRANCH  10  17
ATOM     17  C5* UNL     1       2.394   0.046  -0.119  0.00  0.00    +0.000 C 
BRANCH  17  18
ATOM     18  O5* UNL     1       0.978   0.086  -0.001  0.00  0.00    +0.000 OA
ATOM     19  H5* UNL     1       0.703  -0.806   0.279  0.00  0.00    +0.000 HD
ENDBRANCH  17  18
ENDBRANCH  10  17
ENDBRANCH   1  12
BRANCH   3  20
ATOM     20  C   UNL     1      -2.771   2.572  -0.404  0.00  0.00    +0.000 C 
ATOM     21  C   UNL     1      -2.615   1.409   0.243  0.00  0.00    +0.000 C 
ATOM     22 BR   UNL     1      -3.990   0.250   0.688  0.00  0.00    +0.000 Br
ENDBRANCH   3  20
TORSDOF 5
