REMARK  Name = Brivaracetam
REMARK  7 active torsions:
REMARK  status: ('A' for Active; 'I' for Inactive)
REMARK    1  A    between atoms: C_1  and  C_2
REMARK    2  A    between atoms: C_2  and  C_3
REMARK    3  A    between atoms: C_3  and  C_4
REMARK    4  A    between atoms: N_6  and  C_7
REMARK    5  A    between atoms: C_7  and  C_8
REMARK    6  A    between atoms: C_7  and  C_10
REMARK    7  A    between atoms: C_8  and  C_9
REMARK                            x       y       z     vdW  Elec       q    Type
REMARK                         _______ _______ _______ _____ _____    ______ ____
ROOT
ATOM      1  C   UNL     1       4.602  -0.758  -1.145  0.00  0.00    +0.000 C 
ATOM      2  C   UNL     1       5.225  -1.605  -2.246  0.00  0.00    +0.000 C 
ATOM      3  N   UNL     1       5.189  -0.739  -3.416  0.00  0.00    +0.000 N 
ATOM      4  C   UNL     1       4.999   0.576  -2.978  0.00  0.00    +0.000 C 
ATOM      5  O   UNL     1       4.776   1.588  -3.600  0.00  0.00    +0.000 OA
ATOM      6  C   UNL     1       5.114   0.617  -1.490  0.00  0.00    +0.000 C 
ENDROOT
BRANCH   1   7
ATOM      7  C   UNL     1       3.055  -0.773  -1.218  0.00  0.00    +0.000 C 
BRANCH   7   9
ATOM      8  C   UNL     1       0.969  -0.099   0.003  0.00  0.00    +0.000 C 
ATOM      9  C   UNL     1       2.481  -0.101   0.024  0.00  0.00    +0.000 C 
ENDBRANCH   7   9
ENDBRANCH   1   7
BRANCH   3  10
ATOM     10  C   UNL     1       5.327  -1.248  -4.828  0.00  0.00    +0.000 C 
BRANCH  10  11
ATOM     11  C   UNL     1       5.502  -0.234  -6.039  0.00  0.00    +0.000 C 
ATOM     12  N   UNL     1       5.606   1.096  -5.798  0.00  0.00    +0.000 N 
ATOM     13  O   UNL     1       5.588  -0.613  -7.210  0.00  0.00    +0.000 OA
ATOM     14  H   UNL     1       5.415   1.475  -4.878  0.00  0.00    +0.000 HD
ATOM     15  H   UNL     1       5.499   1.777  -6.533  0.00  0.00    +0.000 HD
ENDBRANCH  10  11
BRANCH  10  16
ATOM     16  C   UNL     1       4.193  -2.234  -5.246  0.00  0.00    +0.000 C 
ATOM     17  C   UNL     1       4.061  -3.524  -4.447  0.00  0.00    +0.000 C 
ENDBRANCH  10  16
ENDBRANCH   3  10
TORSDOF 5
