REMARK  Name = Bromotheophylline
REMARK  2 active torsions:
REMARK  status: ('A' for Active; 'I' for Inactive)
REMARK    1  A    between atoms: C_1  and  N_2
REMARK    2  A    between atoms: N_11  and  C_12
REMARK                            x       y       z     vdW  Elec       q    Type
REMARK                         _______ _______ _______ _____ _____    ______ ____
ROOT
ATOM      1  C   UNL     1       1.089   0.097  -0.064  0.00  0.00    +0.000 C 
ATOM      2  N   UNL     1       2.539   0.103  -0.063  0.00  0.00    +0.000 N 
ATOM      3  C   UNL     1       3.268   1.270  -0.062  0.00  0.00    +0.000 A 
ATOM      4  C   UNL     1       4.627   1.244  -0.061  0.00  0.00    +0.000 A 
ATOM      5  N   UNL     1       5.021   2.548  -0.060  0.00  0.00    +0.000 N 
ATOM      6  C   UNL     1       3.879   3.304  -0.061  0.00  0.00    +0.000 A 
ATOM      7 BR   UNL     1       3.885   5.171  -0.059  0.00  0.00    +0.000 Br
ATOM      8  N   UNL     1       2.795   2.551  -0.062  0.00  0.00    +0.000 NA
ATOM      9  C   UNL     1       5.401   0.060  -0.060  0.00  0.00    +0.000 A 
ATOM     10  O   UNL     1       6.628   0.087  -0.063  0.00  0.00    +0.000 OA
ATOM     11  N   UNL     1       4.621  -1.095  -0.057  0.00  0.00    +0.000 N 
ATOM     12  C   UNL     1       5.309  -2.373  -0.047  0.00  0.00    +0.000 C 
ATOM     13  C   UNL     1       3.211  -1.128  -0.063  0.00  0.00    +0.000 A 
ATOM     14  O   UNL     1       2.595  -2.198  -0.067  0.00  0.00    +0.000 OA
ATOM     15  H   UNL     1       5.972   2.893  -0.059  0.00  0.00    +0.000 HD
ENDROOT
TORSDOF 0
