REMARK  Name = Bromodiphenhydramine
REMARK  8 active torsions:
REMARK  status: ('A' for Active; 'I' for Inactive)
REMARK    1  A    between atoms: C_1  and  N_2
REMARK    2  A    between atoms: N_2  and  C_3
REMARK    3  A    between atoms: N_2  and  C_4
REMARK    4  A    between atoms: C_4  and  C_5
REMARK    5  A    between atoms: C_5  and  O_6
REMARK    6  A    between atoms: O_6  and  C_7
REMARK    7  A    between atoms: C_7  and  C_8
REMARK    8  A    between atoms: C_7  and  C_14
REMARK                            x       y       z     vdW  Elec       q    Type
REMARK                         _______ _______ _______ _____ _____    ______ ____
ROOT
ATOM      1  C   UNL     1       6.336  -0.660  -2.740  0.00  0.00    +0.000 C 
ENDROOT
BRANCH   1   2
ATOM      2  C   UNL     1       6.791  -0.823  -4.188  0.00  0.00    +0.000 A 
ATOM      3  C   UNL     1       6.651  -2.038  -4.872  0.00  0.00    +0.000 A 
ATOM      4  C   UNL     1       7.347  -2.306  -6.040  0.00  0.00    +0.000 A 
ATOM      5  C   UNL     1       7.938  -1.255  -6.711  0.00  0.00    +0.000 A 
ATOM      6 BR   UNL     1       8.655  -1.565  -8.429  0.00  0.00    +0.000 Br
ATOM      7  C   UNL     1       7.908   0.030  -6.168  0.00  0.00    +0.000 A 
ATOM      8  C   UNL     1       7.369   0.239  -4.891  0.00  0.00    +0.000 A 
ENDBRANCH   1   2
BRANCH   1   9
ATOM      9  C   UNL     1       6.848  -1.737  -1.751  0.00  0.00    +0.000 A 
ATOM     10  C   UNL     1       6.718  -3.113  -1.993  0.00  0.00    +0.000 A 
ATOM     11  C   UNL     1       6.862  -4.076  -1.008  0.00  0.00    +0.000 A 
ATOM     12  C   UNL     1       7.211  -3.687   0.273  0.00  0.00    +0.000 A 
ATOM     13  C   UNL     1       7.419  -2.337   0.545  0.00  0.00    +0.000 A 
ATOM     14  C   UNL     1       7.247  -1.365  -0.451  0.00  0.00    +0.000 A 
ENDBRANCH   1   9
BRANCH   1  15
ATOM     15  O   UNL     1       4.894  -0.598  -2.736  0.00  0.00    +0.000 OA
BRANCH  15  16
ATOM     16  C   UNL     1       4.393  -0.293  -1.432  0.00  0.00    +0.000 C 
BRANCH  16  17
ATOM     17  C   UNL     1       2.869  -0.320  -1.374  0.00  0.00    +0.000 C 
BRANCH  17  19
ATOM     18  C   UNL     1       0.904  -0.068  -0.014  0.00  0.00    +0.000 C 
ATOM     19  N   UNL     1       2.367  -0.091  -0.001  0.00  0.00    +0.000 NA
ATOM     20  C   UNL     1       2.826  -1.124   0.937  0.00  0.00    +0.000 C 
ENDBRANCH  17  19
ENDBRANCH  16  17
ENDBRANCH  15  16
ENDBRANCH   1  15
TORSDOF 6
