REMARK  Name = Brompheniramine
REMARK  7 active torsions:
REMARK  status: ('A' for Active; 'I' for Inactive)
REMARK    1  A    between atoms: C_1  and  N_2
REMARK    2  A    between atoms: N_2  and  C_3
REMARK    3  A    between atoms: N_2  and  C_4
REMARK    4  A    between atoms: C_4  and  C_5
REMARK    5  A    between atoms: C_5  and  C_6
REMARK    6  A    between atoms: C_6  and  C_7
REMARK    7  A    between atoms: C_6  and  C_14
REMARK                            x       y       z     vdW  Elec       q    Type
REMARK                         _______ _______ _______ _____ _____    ______ ____
ROOT
ATOM      1  C   UNL     1       4.995  -2.162  -1.795  0.00  0.00    +0.000 C 
ENDROOT
BRANCH   1   2
ATOM      2  C   UNL     1       4.461  -1.921  -3.203  0.00  0.00    +0.000 A 
ATOM      3  C   UNL     1       4.026  -2.998  -3.985  0.00  0.00    +0.000 A 
ATOM      4  C   UNL     1       3.561  -2.774  -5.281  0.00  0.00    +0.000 A 
ATOM      5  C   UNL     1       3.526  -1.478  -5.795  0.00  0.00    +0.000 A 
ATOM      6 BR   UNL     1       2.899  -1.177  -7.550  0.00  0.00    +0.000 Br
ATOM      7  C   UNL     1       3.960  -0.399  -5.033  0.00  0.00    +0.000 A 
ATOM      8  C   UNL     1       4.436  -0.624  -3.748  0.00  0.00    +0.000 A 
ENDBRANCH   1   2
BRANCH   1   9
ATOM      9  C   UNL     1       6.520  -2.202  -1.750  0.00  0.00    +0.000 A 
ATOM     10  C   UNL     1       7.177  -2.760  -0.653  0.00  0.00    +0.000 A 
ATOM     11  C   UNL     1       8.570  -2.739  -0.629  0.00  0.00    +0.000 A 
ATOM     12  C   UNL     1       9.266  -2.180  -1.692  0.00  0.00    +0.000 A 
ATOM     13  C   UNL     1       8.543  -1.651  -2.743  0.00  0.00    +0.000 A 
ATOM     14  N   UNL     1       7.198  -1.642  -2.779  0.00  0.00    +0.000 NA
ENDBRANCH   1   9
BRANCH   1  15
ATOM     15  C   UNL     1       4.470  -1.114  -0.796  0.00  0.00    +0.000 C 
BRANCH  15  16
ATOM     16  C   UNL     1       2.936  -1.088  -0.740  0.00  0.00    +0.000 C 
BRANCH  16  18
ATOM     17  C   UNL     1       0.964  -0.026   0.112  0.00  0.00    +0.000 C 
ATOM     18  N   UNL     1       2.428  -0.044   0.163  0.00  0.00    +0.000 NA
ATOM     19  C   UNL     1       2.878  -0.248   1.538  0.00  0.00    +0.000 C 
ENDBRANCH  16  18
ENDBRANCH  15  16
ENDBRANCH   1  15
TORSDOF 5
