REMARK  Name = Bromfenac
REMARK  6 active torsions:
REMARK  status: ('A' for Active; 'I' for Inactive)
REMARK    1  A    between atoms: N_1  and  C_2
REMARK    2  A    between atoms: C_3  and  C_4
REMARK    3  A    between atoms: C_4  and  C_5
REMARK    4  A    between atoms: C_5  and  O_6
REMARK    5  A    between atoms: C_11  and  C_12
REMARK    6  A    between atoms: C_12  and  C_14
REMARK                            x       y       z     vdW  Elec       q    Type
REMARK                         _______ _______ _______ _____ _____    ______ ____
ROOT
ATOM      1  C   UNL     1       0.889   0.104   0.101  0.00  0.00    +0.000 A 
ATOM      2  C   UNL     1       0.279  -1.157  -0.049  0.00  0.00    +0.000 A 
ATOM      3  C   UNL     1      -1.131  -1.181  -0.060  0.00  0.00    +0.000 A 
ATOM      4  C   UNL     1      -1.864   0.022  -0.029  0.00  0.00    +0.000 A 
ATOM      5  C   UNL     1      -1.205   1.267  -0.057  0.00  0.00    +0.000 A 
ATOM      6  C   UNL     1       0.199   1.323  -0.059  0.00  0.00    +0.000 A 
ENDROOT
BRANCH   1   7
ATOM      7  N   UNL     1       2.236   0.050   0.418  0.00  0.00    +0.000 N 
ATOM      8  H   UNL     1       2.429  -0.679   1.106  0.00  0.00    +0.000 HD
ATOM      9  H   UNL     1       2.762   0.865   0.682  0.00  0.00    +0.000 HD
ENDBRANCH   1   7
BRANCH   6  10
ATOM     10  C   UNL     1       0.929   2.658  -0.096  0.00  0.00    +0.000 C 
ATOM     11  O   UNL     1       0.301   3.708  -0.000  0.00  0.00    +0.000 OA
BRANCH  10  12
ATOM     12  C   UNL     1       2.434   2.759  -0.209  0.00  0.00    +0.000 A 
ATOM     13  C   UNL     1       3.141   2.135  -1.258  0.00  0.00    +0.000 A 
ATOM     14  C   UNL     1       4.545   2.044  -1.226  0.00  0.00    +0.000 A 
ATOM     15  C   UNL     1       5.257   2.629  -0.181  0.00  0.00    +0.000 A 
ATOM     16 BR   UNL     1       7.149   2.601  -0.199  0.00  0.00    +0.000 Br
ATOM     17  C   UNL     1       4.576   3.236   0.874  0.00  0.00    +0.000 A 
ATOM     18  C   UNL     1       3.169   3.285   0.872  0.00  0.00    +0.000 A 
ENDBRANCH  10  12
ENDBRANCH   6  10
BRANCH   2  19
ATOM     19  C   UNL     1       1.091  -2.476  -0.069  0.00  0.00    +0.000 C 
BRANCH  19  20
ATOM     20  C   UNL     1       2.645  -2.636  -0.142  0.00  0.00    +0.000 C 
ATOM     21  O   UNL     1       3.169  -3.706   0.073  0.00  0.00    +0.000 OA
BRANCH  20  22
ATOM     22  O   UNL     1       3.464  -1.610  -0.465  0.00  0.00    +0.000 OA
ATOM     23  H   UNL     1       3.025  -0.739  -0.613  0.00  0.00    +0.000 HD
ENDBRANCH  20  22
ENDBRANCH  19  20
ENDBRANCH   2  19
TORSDOF 6
