REMARK  Name = Bromocriptine
REMARK  11 active torsions:
REMARK  status: ('A' for Active; 'I' for Inactive)
REMARK    1  A    between atoms: C_9  and  C_10
REMARK    2  A    between atoms: C_10  and  C_11
REMARK    3  A    between atoms: C_11  and  C_12
REMARK    4  A    between atoms: C_11  and  C_13
REMARK    5  A    between atoms: C_17  and  N_18
REMARK    6  A    between atoms: C_17  and  C_43
REMARK    7  A    between atoms: C_19  and  C_21
REMARK    8  A    between atoms: N_23  and  C_24
REMARK    9  A    between atoms: C_41  and  O_42
REMARK   10  A    between atoms: C_43  and  C_44
REMARK   11  A    between atoms: C_43  and  C_45
REMARK                            x       y       z     vdW  Elec       q    Type
REMARK                         _______ _______ _______ _____ _____    ______ ____
ROOT
ATOM      1  C   UNL     1       2.232   0.181  -0.157  0.00  0.00    +0.000 C 
ATOM      2  C   UNL     1       2.658  -1.332  -0.191  0.00  0.00    +0.000 C 
ATOM      3  C   UNL     1       3.258  -1.701   1.190  0.00  0.00    +0.000 C 
ATOM      4  C   UNL     1       3.043  -0.503   2.075  0.00  0.00    +0.000 C 
ATOM      5  N   UNL     1       2.671   0.573   1.173  0.00  0.00    +0.000 N 
ATOM      6  C   UNL     1       3.333   1.747   1.166  0.00  0.00    +0.000 C 
ATOM      7  O   UNL     1       4.350   1.902   1.829  0.00  0.00    +0.000 OA
ATOM      8  C   UNL     1       2.663   2.774   0.208  0.00  0.00    +0.000 C 
ATOM      9  N   UNL     1       1.594   2.145  -0.750  0.00  0.00    +0.000 N 
ATOM     10  C   UNL     1       0.718   2.742  -1.695  0.00  0.00    +0.000 C 
ATOM     11  O   UNL     1      -0.232   2.110  -2.136  0.00  0.00    +0.000 OA
ATOM     12  C   UNL     1       1.104   4.115  -2.171  0.00  0.00    +0.000 C 
ATOM     13  O   UNL     1       2.522   3.021  -2.222  0.00  0.00    +0.000 OA
ATOM     14  C   UNL     1       2.415   1.403  -1.581  0.00  0.00    +0.000 C 
ENDROOT
BRANCH  12  15
ATOM     15  N   UNL     1       0.740   5.021  -3.469  0.00  0.00    +0.000 N 
ATOM     16  C   UNL     1      -0.513   4.662  -4.138  0.00  0.00    +0.000 C 
ATOM     17  O   UNL     1      -0.436   3.420  -4.445  0.00  0.00    +0.000 OA
ATOM     18  H   UNL     1       1.003   6.001  -3.205  0.00  0.00    +0.000 HD
BRANCH  16  19
ATOM     19  C   UNL     1      -2.140   5.320  -4.602  0.00  0.00    +0.000 C 
ATOM     20  C   UNL     1      -3.238   4.504  -5.917  0.00  0.00    +0.000 C 
ATOM     21  N   UNL     1      -3.232   5.779  -6.515  0.00  0.00    +0.000 NA
ATOM     22  C   UNL     1      -2.244   5.724  -7.501  0.00  0.00    +0.000 C 
ATOM     23  C   UNL     1      -4.263   6.524  -5.867  0.00  0.00    +0.000 C 
ATOM     24  C   UNL     1      -4.736   7.542  -6.878  0.00  0.00    +0.000 C 
ATOM     25  C   UNL     1      -5.262   8.634  -6.094  0.00  0.00    +0.000 A 
ATOM     26  C   UNL     1      -6.029   9.700  -6.443  0.00  0.00    +0.000 A 
ATOM     27 BR   UNL     1      -6.736  10.011  -8.136  0.00  0.00    +0.000 Br
ATOM     28  N   UNL     1      -6.155  10.474  -5.322  0.00  0.00    +0.000 N 
ATOM     29  C   UNL     1      -5.499   9.903  -4.247  0.00  0.00    +0.000 A 
ATOM     30  C   UNL     1      -5.302  10.267  -2.910  0.00  0.00    +0.000 A 
ATOM     31  C   UNL     1      -4.544   9.414  -2.071  0.00  0.00    +0.000 A 
ATOM     32  C   UNL     1      -4.046   8.205  -2.509  0.00  0.00    +0.000 A 
ATOM     33  C   UNL     1      -4.342   7.827  -3.799  0.00  0.00    +0.000 A 
ATOM     34  C   UNL     1      -4.995   8.709  -4.697  0.00  0.00    +0.000 A 
ATOM     35  C   UNL     1      -4.026   6.524  -4.332  0.00  0.00    +0.000 C 
ATOM     36  C   UNL     1      -3.297   5.556  -3.656  0.00  0.00    +0.000 C 
ATOM     37  H   UNL     1      -6.660  11.341  -5.307  0.00  0.00    +0.000 HD
ENDBRANCH  16  19
ENDBRANCH  12  15
BRANCH  12  38
ATOM     38  C   UNL     1       0.147   5.184  -1.211  0.00  0.00    +0.000 C 
ATOM     39  C   UNL     1       0.578   6.206  -0.188  0.00  0.00    +0.000 C 
ATOM     40  C   UNL     1      -1.348   4.817  -1.084  0.00  0.00    +0.000 C 
ENDBRANCH  12  38
BRANCH  14  41
ATOM     41  O   UNL     1       1.913   0.519  -2.586  0.00  0.00    +0.000 OA
ATOM     42  H   UNL     1       2.382  -0.340  -2.506  0.00  0.00    +0.000 HD
ENDBRANCH  14  41
BRANCH   8  43
ATOM     43  C   UNL     1       1.950   3.916   0.801  0.00  0.00    +0.000 C 
BRANCH  43  44
ATOM     44  C   UNL     1       2.026   4.123   2.274  0.00  0.00    +0.000 C 
ATOM     45  C   UNL     1       3.429   4.553   2.630  0.00  0.00    +0.000 C 
ATOM     46  C   UNL     1       1.063   5.215   2.717  0.00  0.00    +0.000 C 
ENDBRANCH  43  44
ENDBRANCH   8  43
TORSDOF 6
