REMARK  Name = Bromothalonil
REMARK  5 active torsions:
REMARK  status: ('A' for Active; 'I' for Inactive)
REMARK    1  A    between atoms: C_2  and  C_3
REMARK    2  A    between atoms: C_3  and  C_5
REMARK    3  A    between atoms: C_3  and  C_9
REMARK    4  A    between atoms: C_5  and  C_6
REMARK    5  A    between atoms: C_6  and  C_7
REMARK                            x       y       z     vdW  Elec       q    Type
REMARK                         _______ _______ _______ _____ _____    ______ ____
ROOT
ATOM      1  C   UNL     1       3.541   1.233  -0.790  0.00  0.00    +0.000 C 
ATOM      2 BR   UNL     1       3.055   1.078  -2.717  0.00  0.00    +0.000 Br
ENDROOT
BRANCH   1   4
ATOM      3 BR   UNL     1       1.341  -0.751  -0.226  0.00  0.00    +0.000 Br
ATOM      4  C   UNL     1       3.163  -0.073  -0.049  0.00  0.00    +0.000 C 
ENDBRANCH   1   4
BRANCH   1   5
ATOM      5  C   UNL     1       5.061   1.233  -0.790  0.00  0.00    +0.000 C 
ATOM      6  N   UNL     1       6.322   1.233  -0.790  0.00  0.00    +0.000 NA
ENDBRANCH   1   5
BRANCH   1   7
ATOM      7  C   UNL     1       3.018   2.530  -0.224  0.00  0.00    +0.000 C 
BRANCH   7   8
ATOM      8  C   UNL     1       1.515   2.531  -0.184  0.00  0.00    +0.000 C 
BRANCH   8   9
ATOM      9  C   UNL     1       1.008   3.830   0.422  0.00  0.00    +0.000 C 
ATOM     10  N   UNL     1       0.588   4.907   0.925  0.00  0.00    +0.000 NA
ENDBRANCH   8   9
ENDBRANCH   7   8
ENDBRANCH   1   7
TORSDOF 5
