REMARK  Name = Bromazepam
REMARK  1 active torsions:
REMARK  status: ('A' for Active; 'I' for Inactive)
REMARK    1  A    between atoms: C_11  and  C_12
REMARK                            x       y       z     vdW  Elec       q    Type
REMARK                         _______ _______ _______ _____ _____    ______ ____
ROOT
ATOM      1 BR   UNL     1       0.985   0.041   0.050  0.00  0.00    +0.000 Br
ATOM      2  C   UNL     1       2.874   0.047   0.058  0.00  0.00    +0.000 A 
ATOM      3  C   UNL     1       3.554   1.255   0.168  0.00  0.00    +0.000 A 
ATOM      4  C   UNL     1       4.958   1.278   0.174  0.00  0.00    +0.000 A 
ATOM      5  C   UNL     1       5.672   0.074   0.082  0.00  0.00    +0.000 A 
ATOM      6  N   UNL     1       7.070  -0.013   0.079  0.00  0.00    +0.000 N 
ATOM      7  C   UNL     1       7.932   0.876  -0.504  0.00  0.00    +0.000 C 
ATOM      8  O   UNL     1       9.142   0.624  -0.517  0.00  0.00    +0.000 OA
ATOM      9  C   UNL     1       7.330   2.062  -1.242  0.00  0.00    +0.000 C 
ATOM     10  N   UNL     1       6.681   2.986  -0.309  0.00  0.00    +0.000 NA
ATOM     11  C   UNL     1       5.624   2.603   0.332  0.00  0.00    +0.000 C 
ATOM     12  C   UNL     1       4.971  -1.137  -0.007  0.00  0.00    +0.000 A 
ATOM     13  C   UNL     1       3.575  -1.150  -0.040  0.00  0.00    +0.000 A 
ATOM     14  H   UNL     1       7.516  -0.869   0.384  0.00  0.00    +0.000 HD
ENDROOT
BRANCH  11  15
ATOM     15  C   UNL     1       5.004   3.557   1.309  0.00  0.00    +0.000 A 
ATOM     16  C   UNL     1       4.698   4.855   0.922  0.00  0.00    +0.000 A 
ATOM     17  C   UNL     1       4.212   5.731   1.891  0.00  0.00    +0.000 A 
ATOM     18  C   UNL     1       3.997   5.266   3.184  0.00  0.00    +0.000 A 
ATOM     19  C   UNL     1       4.240   3.928   3.449  0.00  0.00    +0.000 A 
ATOM     20  N   UNL     1       4.750   3.060   2.546  0.00  0.00    +0.000 NA
ENDBRANCH  11  15
TORSDOF 1
