REMARK  Name = Bromperidol
REMARK  7 active torsions:
REMARK  status: ('A' for Active; 'I' for Inactive)
REMARK    1  A    between atoms: O_1  and  C_2
REMARK    2  A    between atoms: C_2  and  C_20
REMARK    3  A    between atoms: N_5  and  C_6
REMARK    4  A    between atoms: C_6  and  C_7
REMARK    5  A    between atoms: C_7  and  C_8
REMARK    6  A    between atoms: C_8  and  C_9
REMARK    7  A    between atoms: C_9  and  C_11
REMARK                            x       y       z     vdW  Elec       q    Type
REMARK                         _______ _______ _______ _____ _____    ______ ____
ROOT
ATOM      1  C   UNL     1      -1.090  -0.025  -0.559  0.00  0.00    +0.000 C 
ATOM      2  C   UNL     1      -0.179  -1.263  -0.612  0.00  0.00    +0.000 C 
ATOM      3  C   UNL     1       0.969  -1.211   0.371  0.00  0.00    +0.000 C 
ATOM      4  N   UNL     1       1.732   0.022   0.165  0.00  0.00    +0.000 NA
ATOM      5  C   UNL     1       0.894   1.208   0.378  0.00  0.00    +0.000 C 
ATOM      6  C   UNL     1      -0.252   1.255  -0.612  0.00  0.00    +0.000 C 
ENDROOT
BRANCH   1   7
ATOM      7  C   UNL     1      -2.099  -0.006  -1.702  0.00  0.00    +0.000 A 
ATOM      8  C   UNL     1      -3.019   1.050  -1.814  0.00  0.00    +0.000 A 
ATOM      9  C   UNL     1      -3.891   1.123  -2.900  0.00  0.00    +0.000 A 
ATOM     10  C   UNL     1      -3.858   0.136  -3.881  0.00  0.00    +0.000 A 
ATOM     11 BR   UNL     1      -5.030   0.226  -5.358  0.00  0.00    +0.000 Br
ATOM     12  C   UNL     1      -2.970  -0.926  -3.786  0.00  0.00    +0.000 A 
ATOM     13  C   UNL     1      -2.106  -0.997  -2.700  0.00  0.00    +0.000 A 
ENDBRANCH   1   7
BRANCH   1  14
ATOM     14  O   UNL     1      -1.839  -0.045   0.664  0.00  0.00    +0.000 OA
ATOM     15  H   UNL     1      -1.212  -0.058   1.406  0.00  0.00    +0.000 HD
ENDBRANCH   1  14
BRANCH   4  16
ATOM     16  C   UNL     1       2.911   0.020   1.032  0.00  0.00    +0.000 C 
BRANCH  16  17
ATOM     17  C   UNL     1       3.762   1.262   0.805  0.00  0.00    +0.000 C 
BRANCH  17  18
ATOM     18  C   UNL     1       4.983   1.273   1.701  0.00  0.00    +0.000 C 
BRANCH  18  19
ATOM     19  C   UNL     1       5.756   2.556   1.486  0.00  0.00    +0.000 C 
ATOM     20  O   UNL     1       5.393   3.456   0.727  0.00  0.00    +0.000 OA
BRANCH  19  21
ATOM     21  C   UNL     1       6.979   2.758   2.283  0.00  0.00    +0.000 A 
ATOM     22  C   UNL     1       7.896   1.718   2.464  0.00  0.00    +0.000 A 
ATOM     23  C   UNL     1       9.058   1.949   3.198  0.00  0.00    +0.000 A 
ATOM     24  C   UNL     1       9.289   3.210   3.742  0.00  0.00    +0.000 A 
ATOM     25  F   UNL     1      10.411   3.426   4.440  0.00  0.00    +0.000 F 
ATOM     26  C   UNL     1       8.380   4.248   3.568  0.00  0.00    +0.000 A 
ATOM     27  C   UNL     1       7.218   4.025   2.832  0.00  0.00    +0.000 A 
ENDBRANCH  19  21
ENDBRANCH  18  19
ENDBRANCH  17  18
ENDBRANCH  16  17
ENDBRANCH   4  16
TORSDOF 7
