REMARK  Name = Bromhexine
REMARK  5 active torsions:
REMARK  status: ('A' for Active; 'I' for Inactive)
REMARK    1  A    between atoms: C_1  and  N_2
REMARK    2  A    between atoms: N_2  and  C_3
REMARK    3  A    between atoms: N_2  and  C_13
REMARK    4  A    between atoms: C_3  and  C_4
REMARK    5  A    between atoms: C_11  and  N_12
REMARK                            x       y       z     vdW  Elec       q    Type
REMARK                         _______ _______ _______ _____ _____    ______ ____
ROOT
ATOM      1  C   UNL     1       2.515  -2.576   0.018  0.00  0.00    +0.000 A 
ATOM      2  C   UNL     1       1.791  -2.575   1.229  0.00  0.00    +0.000 A 
ATOM      3  C   UNL     1       1.364  -3.755   1.823  0.00  0.00    +0.000 A 
ATOM      4 BR   UNL     1       0.226  -3.667   3.328  0.00  0.00    +0.000 Br
ATOM      5  C   UNL     1       1.767  -4.967   1.302  0.00  0.00    +0.000 A 
ATOM      6  C   UNL     1       2.576  -4.990   0.161  0.00  0.00    +0.000 A 
ATOM      7 BR   UNL     1       3.194  -6.687  -0.438  0.00  0.00    +0.000 Br
ATOM      8  C   UNL     1       2.928  -3.806  -0.531  0.00  0.00    +0.000 A 
ENDROOT
BRANCH   8   9
ATOM      9  N   UNL     1       3.820  -3.850  -1.607  0.00  0.00    +0.000 N 
ATOM     10  H   UNL     1       4.007  -4.756  -2.019  0.00  0.00    +0.000 HD
ATOM     11  H   UNL     1       3.931  -3.051  -2.221  0.00  0.00    +0.000 HD
ENDBRANCH   8   9
BRANCH   1  12
ATOM     12  C   UNL     1       2.856  -1.268  -0.685  0.00  0.00    +0.000 C 
BRANCH  12  14
ATOM     13  C   UNL     1       0.821  -0.034  -0.187  0.00  0.00    +0.000 C 
ATOM     14  N   UNL     1       2.294  -0.042  -0.076  0.00  0.00    +0.000 NA
BRANCH  14  15
ATOM     15  C   UNL     1       2.865   1.182  -0.708  0.00  0.00    +0.000 C 
ATOM     16  C   UNL     1       2.084   2.433  -0.248  0.00  0.00    +0.000 C 
ATOM     17  C   UNL     1       2.617   3.722  -0.835  0.00  0.00    +0.000 C 
ATOM     18  C   UNL     1       4.088   3.897  -0.513  0.00  0.00    +0.000 C 
ATOM     19  C   UNL     1       4.892   2.697  -0.998  0.00  0.00    +0.000 C 
ATOM     20  C   UNL     1       4.370   1.386  -0.401  0.00  0.00    +0.000 C 
ENDBRANCH  14  15
ENDBRANCH  12  14
ENDBRANCH   1  12
TORSDOF 4
