REMARK  Name = Bronopol
REMARK  5 active torsions:
REMARK  status: ('A' for Active; 'I' for Inactive)
REMARK    1  A    between atoms: O_1  and  C_2
REMARK    2  A    between atoms: C_2  and  C_3
REMARK    3  A    between atoms: C_3  and  C_5
REMARK    4  A    between atoms: C_3  and  N_7
REMARK    5  A    between atoms: C_5  and  O_6
REMARK                            x       y       z     vdW  Elec       q    Type
REMARK                         _______ _______ _______ _____ _____    ______ ____
ROOT
ATOM      1  C   UNL     1       2.823   1.236   0.731  0.00  0.00    +0.000 C 
ATOM      2 BR   UNL     1       2.286   2.908  -0.164  0.00  0.00    +0.000 Br
ENDROOT
BRANCH   1   3
ATOM      3  N   UNL     1       4.343   1.247   0.727  0.00  0.00    +0.000 N 
ATOM      4  O   UNL     1       4.931   0.326   0.138  0.00  0.00    +0.000 OA
ATOM      5  O   UNL     1       4.918   2.157   1.340  0.00  0.00    +0.000 OA
ENDBRANCH   1   3
BRANCH   1   6
ATOM      6  C   UNL     1       2.307   0.042  -0.077  0.00  0.00    +0.000 C 
BRANCH   6   7
ATOM      7  O   UNL     1       0.878   0.017  -0.147  0.00  0.00    +0.000 OA
ATOM      8  H   UNL     1       0.613  -0.822  -0.563  0.00  0.00    +0.000 HD
ENDBRANCH   6   7
ENDBRANCH   1   6
BRANCH   1   9
ATOM      9  C   UNL     1       2.353   1.248   2.188  0.00  0.00    +0.000 C 
BRANCH   9  10
ATOM     10  O   UNL     1       0.932   1.272   2.353  0.00  0.00    +0.000 OA
ATOM     11  H   UNL     1       0.565   1.931   1.733  0.00  0.00    +0.000 HD
ENDBRANCH   9  10
ENDBRANCH   1   9
TORSDOF 5
