REMARK  Name = Bucetin
REMARK  8 active torsions:
REMARK  status: ('A' for Active; 'I' for Inactive)
REMARK    1  A    between atoms: C_1  and  C_2
REMARK    2  A    between atoms: C_2  and  O_3
REMARK    3  A    between atoms: O_3  and  C_4
REMARK    4  A    between atoms: C_7  and  N_8
REMARK    5  A    between atoms: C_9  and  C_11
REMARK    6  A    between atoms: C_11  and  C_12
REMARK    7  A    between atoms: C_12  and  C_13
REMARK    8  A    between atoms: C_12  and  O_14
REMARK                            x       y       z     vdW  Elec       q    Type
REMARK                         _______ _______ _______ _____ _____    ______ ____
ROOT
ATOM      1  C   UNL     1       4.378   1.023   1.084  0.00  0.00    +0.000 A 
ATOM      2  C   UNL     1       4.960   1.204   2.344  0.00  0.00    +0.000 A 
ATOM      3  C   UNL     1       6.325   1.543   2.478  0.00  0.00    +0.000 A 
ATOM      4  C   UNL     1       7.136   1.645   1.345  0.00  0.00    +0.000 A 
ATOM      5  C   UNL     1       6.515   1.502   0.099  0.00  0.00    +0.000 A 
ATOM      6  C   UNL     1       5.166   1.187  -0.038  0.00  0.00    +0.000 A 
ENDROOT
BRANCH   4   7
ATOM      7  N   UNL     1       8.543   1.867   1.464  0.00  0.00    +0.000 N 
ATOM      8  C   UNL     1       9.414   1.780   0.390  0.00  0.00    +0.000 C 
ATOM      9  O   UNL     1       9.069   1.467  -0.755  0.00  0.00    +0.000 OA
ATOM     10  H   UNL     1       8.926   1.949   2.400  0.00  0.00    +0.000 HD
BRANCH   8  11
ATOM     11  C   UNL     1      10.880   2.054   0.641  0.00  0.00    +0.000 C 
BRANCH  11  12
ATOM     12  C   UNL     1      11.615   2.097  -0.719  0.00  0.00    +0.000 C 
ATOM     13  C   UNL     1      11.151   3.255  -1.612  0.00  0.00    +0.000 C 
BRANCH  12  14
ATOM     14  O   UNL     1      13.022   2.216  -0.499  0.00  0.00    +0.000 OA
ATOM     15  H   UNL     1      13.197   3.104  -0.146  0.00  0.00    +0.000 HD
ENDBRANCH  12  14
ENDBRANCH  11  12
ENDBRANCH   8  11
ENDBRANCH   4   7
BRANCH   1  16
ATOM     16  O   UNL     1       3.030   0.795   1.033  0.00  0.00    +0.000 OA
BRANCH  16  18
ATOM     17  C   UNL     1       1.068  -0.044  -0.058  0.00  0.00    +0.000 C 
ATOM     18  C   UNL     1       2.586  -0.049  -0.037  0.00  0.00    +0.000 C 
ENDBRANCH  16  18
ENDBRANCH   1  16
TORSDOF 6
