REMARK  Name = Buclizine
REMARK  9 active torsions:
REMARK  status: ('A' for Active; 'I' for Inactive)
REMARK    1  A    between atoms: C_1  and  C_2
REMARK    2  A    between atoms: C_2  and  C_3
REMARK    3  A    between atoms: C_2  and  C_4
REMARK    4  A    between atoms: C_2  and  C_5
REMARK    5  A    between atoms: C_8  and  C_9
REMARK    6  A    between atoms: C_9  and  N_10
REMARK    7  A    between atoms: N_13  and  C_16
REMARK    8  A    between atoms: C_16  and  C_17
REMARK    9  A    between atoms: C_16  and  C_23
REMARK                            x       y       z     vdW  Elec       q    Type
REMARK                         _______ _______ _______ _____ _____    ______ ____
ROOT
ATOM      1  N   UNL     1       4.434   0.675   6.032  0.00  0.00    +0.000 NA
ATOM      2  C   UNL     1       5.564   1.206   5.241  0.00  0.00    +0.000 C 
ATOM      3  C   UNL     1       5.115   1.792   3.911  0.00  0.00    +0.000 C 
ATOM      4  N   UNL     1       3.921   2.791   4.053  0.00  0.00    +0.000 NA
ATOM      5  C   UNL     1       2.842   2.403   5.093  0.00  0.00    +0.000 C 
ATOM      6  C   UNL     1       3.465   1.770   6.334  0.00  0.00    +0.000 C 
ENDROOT
BRANCH   1   7
ATOM      7  C   UNL     1       3.905  -0.673   5.522  0.00  0.00    +0.000 C 
BRANCH   7  11
ATOM      8  C   UNL     1       2.810  -0.505   1.270  0.00  0.00    +0.000 A 
ATOM      9  C   UNL     1       3.007  -1.781   1.888  0.00  0.00    +0.000 A 
ATOM     10  C   UNL     1       3.258  -1.983   3.295  0.00  0.00    +0.000 A 
ATOM     11  C   UNL     1       3.332  -0.892   4.107  0.00  0.00    +0.000 A 
ATOM     12  C   UNL     1       2.934   0.183   3.399  0.00  0.00    +0.000 A 
ATOM     13  C   UNL     1       2.798   0.541   2.104  0.00  0.00    +0.000 A 
BRANCH   8  15
ATOM     14  C   UNL     1       0.871  -0.068  -0.082  0.00  0.00    +0.000 C 
ATOM     15  C   UNL     1       2.409  -0.146  -0.137  0.00  0.00    +0.000 C 
ATOM     16  C   UNL     1       2.924  -1.249  -1.035  0.00  0.00    +0.000 C 
ATOM     17  C   UNL     1       2.931   1.231  -0.674  0.00  0.00    +0.000 C 
ENDBRANCH   8  15
ENDBRANCH   7  11
ENDBRANCH   1   7
BRANCH   4  18
ATOM     18  C   UNL     1       4.524   4.078   4.409  0.00  0.00    +0.000 C 
BRANCH  18  19
ATOM     19  C   UNL     1       3.513   5.206   4.622  0.00  0.00    +0.000 A 
ATOM     20  C   UNL     1       3.553   6.366   3.853  0.00  0.00    +0.000 A 
ATOM     21  C   UNL     1       2.660   7.399   4.081  0.00  0.00    +0.000 A 
ATOM     22  C   UNL     1       1.606   7.224   4.968  0.00  0.00    +0.000 A 
ATOM     23 CL   UNL     1       0.449   8.466   5.175  0.00  0.00    +0.000 Cl
ATOM     24  C   UNL     1       1.510   6.074   5.722  0.00  0.00    +0.000 A 
ATOM     25  C   UNL     1       2.536   5.151   5.637  0.00  0.00    +0.000 A 
ENDBRANCH  18  19
BRANCH  18  26
ATOM     26  C   UNL     1       5.560   4.400   3.331  0.00  0.00    +0.000 A 
ATOM     27  C   UNL     1       6.914   4.478   3.673  0.00  0.00    +0.000 A 
ATOM     28  C   UNL     1       7.831   4.881   2.717  0.00  0.00    +0.000 A 
ATOM     29  C   UNL     1       7.412   5.133   1.408  0.00  0.00    +0.000 A 
ATOM     30  C   UNL     1       6.086   4.936   1.030  0.00  0.00    +0.000 A 
ATOM     31  C   UNL     1       5.169   4.524   1.980  0.00  0.00    +0.000 A 
ENDBRANCH  18  26
ENDBRANCH   4  18
TORSDOF 6
