REMARK  Name = Budesonide
REMARK  9 active torsions:
REMARK  status: ('A' for Active; 'I' for Inactive)
REMARK    1  A    between atoms: C_6  and  C_7
REMARK    2  A    between atoms: C_7  and  C_8
REMARK    3  A    between atoms: C_8  and  C_9
REMARK    4  A    between atoms: C_11  and  C_12
REMARK    5  A    between atoms: C_12  and  C_14
REMARK    6  A    between atoms: C_14  and  O_15
REMARK    7  A    between atoms: C_16  and  C_17
REMARK    8  A    between atoms: C_19  and  O_20
REMARK    9  A    between atoms: C_33  and  C_34
REMARK                            x       y       z     vdW  Elec       q    Type
REMARK                         _______ _______ _______ _____ _____    ______ ____
ROOT
ATOM      1  C   UNL     1       2.124  -0.473  -0.489  0.00  0.00    +0.000 C 
ATOM      2  C   UNL     1       2.540  -0.299  -1.915  0.00  0.00    +0.000 C 
ATOM      3  C   UNL     1       4.048  -0.192  -1.954  0.00  0.00    +0.000 C 
ATOM      4  O   UNL     1       4.964  -1.372  -1.678  0.00  0.00    +0.000 OA
ATOM      5  C   UNL     1       6.015  -0.883  -0.778  0.00  0.00    +0.000 C 
ATOM      6  O   UNL     1       5.784   0.464  -0.853  0.00  0.00    +0.000 OA
ATOM      7  C   UNL     1       4.209   0.544  -0.685  0.00  0.00    +0.000 C 
ATOM      8  C   UNL     1       3.210  -0.847   0.387  0.00  0.00    +0.000 C 
ATOM      9  C   UNL     1       2.158  -1.234   1.845  0.00  0.00    +0.000 C 
ATOM     10  C   UNL     1       4.288  -1.491   1.096  0.00  0.00    +0.000 C 
ATOM     11  C   UNL     1       4.932  -0.297   1.885  0.00  0.00    +0.000 C 
ATOM     12  C   UNL     1       4.511   0.936   1.197  0.00  0.00    +0.000 C 
ATOM     13  C   UNL     1       2.505   0.770   0.209  0.00  0.00    +0.000 C 
ATOM     14  C   UNL     1       1.772   2.532  -0.713  0.00  0.00    +0.000 C 
ATOM     15  C   UNL     1       2.381   4.281   0.224  0.00  0.00    +0.000 C 
ATOM     16  C   UNL     1       4.144   4.263   0.876  0.00  0.00    +0.000 C 
ATOM     17  C   UNL     1       4.991   5.233   0.515  0.00  0.00    +0.000 C 
ATOM     18  C   UNL     1       6.394   5.016   0.992  0.00  0.00    +0.000 C 
ATOM     19  O   UNL     1       7.011   5.441   1.959  0.00  0.00    +0.000 OA
ATOM     20  C   UNL     1       7.140   4.059   0.188  0.00  0.00    +0.000 C 
ATOM     21  C   UNL     1       6.559   3.052   0.926  0.00  0.00    +0.000 C 
ATOM     22  C   UNL     1       5.026   2.824   1.669  0.00  0.00    +0.000 C 
ATOM     23  C   UNL     1       4.561   2.929   3.206  0.00  0.00    +0.000 C 
ENDROOT
BRANCH   7  24
ATOM     24  C   UNL     1       3.517   2.223   0.317  0.00  0.00    +0.000 C 
ATOM     25  O   UNL     1       3.217   1.965   1.823  0.00  0.00    +0.000 OA
BRANCH  24  26
ATOM     26  C   UNL     1       1.847   2.387   1.206  0.00  0.00    +0.000 C 
BRANCH  26  27
ATOM     27  O   UNL     1       1.271   2.597   2.403  0.00  0.00    +0.000 OA
ATOM     28  H   UNL     1       1.385   1.674   2.702  0.00  0.00    +0.000 HD
ENDBRANCH  26  27
ENDBRANCH  24  26
ENDBRANCH   7  24
BRANCH  11  29
ATOM     29  O   UNL     1       4.384  -0.255   3.171  0.00  0.00    +0.000 OA
ATOM     30  H   UNL     1       3.618   0.345   3.066  0.00  0.00    +0.000 HD
ENDBRANCH  11  29
BRANCH   5  31
ATOM     31  C   UNL     1       7.326  -1.569  -0.787  0.00  0.00    +0.000 C 
BRANCH  31  32
ATOM     32  C   UNL     1       7.045  -3.020  -0.323  0.00  0.00    +0.000 C 
ATOM     33  C   UNL     1       8.226  -3.819  -0.753  0.00  0.00    +0.000 C 
ENDBRANCH  31  32
ENDBRANCH   5  31
TORSDOF 6
