REMARK  Name = Bufexamac
REMARK  8 active torsions:
REMARK  status: ('A' for Active; 'I' for Inactive)
REMARK    1  A    between atoms: C_1  and  C_2
REMARK    2  A    between atoms: C_2  and  C_3
REMARK    3  A    between atoms: C_3  and  C_4
REMARK    4  A    between atoms: C_4  and  O_5
REMARK    5  A    between atoms: O_5  and  C_6
REMARK    6  A    between atoms: C_9  and  C_10
REMARK    7  A    between atoms: C_10  and  C_11
REMARK    8  A    between atoms: N_13  and  O_14
REMARK                            x       y       z     vdW  Elec       q    Type
REMARK                         _______ _______ _______ _____ _____    ______ ____
ROOT
ATOM      1  C   UNL     1       6.249   2.423   1.688  0.00  0.00    +0.000 A 
ATOM      2  C   UNL     1       6.833   2.869   2.875  0.00  0.00    +0.000 A 
ATOM      3  C   UNL     1       8.198   3.218   2.921  0.00  0.00    +0.000 A 
ATOM      4  C   UNL     1       9.011   3.074   1.784  0.00  0.00    +0.000 A 
ATOM      5  C   UNL     1       8.375   2.670   0.606  0.00  0.00    +0.000 A 
ATOM      6  C   UNL     1       7.029   2.340   0.552  0.00  0.00    +0.000 A 
ENDROOT
BRANCH   1   7
ATOM      7  O   UNL     1       4.905   2.183   1.690  0.00  0.00    +0.000 OA
BRANCH   7   8
ATOM      8  C   UNL     1       4.484   1.124   0.822  0.00  0.00    +0.000 C 
BRANCH   8   9
ATOM      9  C   UNL     1       2.963   1.119   0.791  0.00  0.00    +0.000 C 
BRANCH   9  11
ATOM     10  C   UNL     1       0.916  -0.071  -0.024  0.00  0.00    +0.000 C 
ATOM     11  C   UNL     1       2.434  -0.063  -0.013  0.00  0.00    +0.000 C 
ENDBRANCH   9  11
ENDBRANCH   8   9
ENDBRANCH   7   8
ENDBRANCH   1   7
BRANCH   4  12
ATOM     12  C   UNL     1      10.517   3.309   1.853  0.00  0.00    +0.000 C 
BRANCH  12  13
ATOM     13  C   UNL     1      11.330   3.026   0.579  0.00  0.00    +0.000 C 
ATOM     14  O   UNL     1      10.894   2.629  -0.507  0.00  0.00    +0.000 OA
ATOM     15  N   UNL     1      12.681   3.235   0.647  0.00  0.00    +0.000 N 
ATOM     16  H   UNL     1      13.233   3.494   1.454  0.00  0.00    +0.000 HD
BRANCH  15  17
ATOM     17  O   UNL     1      13.369   2.950  -0.563  0.00  0.00    +0.000 OA
ATOM     18  H   UNL     1      12.625   2.688  -1.160  0.00  0.00    +0.000 HD
ENDBRANCH  15  17
ENDBRANCH  12  13
ENDBRANCH   4  12
TORSDOF 7
