REMARK  Name = Bumadizone
REMARK  10 active torsions:
REMARK  status: ('A' for Active; 'I' for Inactive)
REMARK    1  A    between atoms: C_1  and  C_2
REMARK    2  A    between atoms: C_2  and  C_3
REMARK    3  A    between atoms: C_3  and  C_4
REMARK    4  A    between atoms: C_4  and  C_5
REMARK    5  A    between atoms: C_5  and  C_6
REMARK    6  A    between atoms: C_5  and  C_9
REMARK    7  A    between atoms: C_6  and  O_7
REMARK    8  A    between atoms: N_11  and  N_12
REMARK    9  A    between atoms: N_11  and  C_19
REMARK   10  A    between atoms: N_12  and  C_13
REMARK                            x       y       z     vdW  Elec       q    Type
REMARK                         _______ _______ _______ _____ _____    ______ ____
ROOT
ATOM      1  C   UNL     1       6.574  -1.264   2.388  0.00  0.00    +0.000 C 
ATOM      2  O   UNL     1       7.247  -0.727   1.498  0.00  0.00    +0.000 OA
ATOM      3  N   UNL     1       7.167  -1.965   3.496  0.00  0.00    +0.000 N 
ENDROOT
BRANCH   3   4
ATOM      4  C   UNL     1       8.622  -1.883   3.629  0.00  0.00    +0.000 A 
ATOM      5  C   UNL     1       9.358  -2.994   4.066  0.00  0.00    +0.000 A 
ATOM      6  C   UNL     1      10.759  -2.929   4.194  0.00  0.00    +0.000 A 
ATOM      7  C   UNL     1      11.453  -1.774   3.835  0.00  0.00    +0.000 A 
ATOM      8  C   UNL     1      10.746  -0.671   3.375  0.00  0.00    +0.000 A 
ATOM      9  C   UNL     1       9.348  -0.726   3.279  0.00  0.00    +0.000 A 
ENDBRANCH   3   4
BRANCH   3  10
ATOM     10  N   UNL     1       6.511  -2.127   4.860  0.00  0.00    +0.000 N 
ATOM     11  H   UNL     1       7.062  -2.788   5.419  0.00  0.00    +0.000 HD
BRANCH  10  12
ATOM     12  C   UNL     1       5.129  -2.423   5.031  0.00  0.00    +0.000 A 
ATOM     13  C   UNL     1       4.390  -2.044   6.148  0.00  0.00    +0.000 A 
ATOM     14  C   UNL     1       2.981  -2.233   6.186  0.00  0.00    +0.000 A 
ATOM     15  C   UNL     1       2.283  -2.688   5.072  0.00  0.00    +0.000 A 
ATOM     16  C   UNL     1       3.025  -3.229   4.058  0.00  0.00    +0.000 A 
ATOM     17  C   UNL     1       4.424  -3.246   4.180  0.00  0.00    +0.000 A 
ENDBRANCH  10  12
ENDBRANCH   3  10
BRANCH   1  18
ATOM     18  C   UNL     1       5.095  -1.435   2.119  0.00  0.00    +0.000 C 
BRANCH  18  19
ATOM     19  C   UNL     1       4.780  -2.829   1.502  0.00  0.00    +0.000 C 
ATOM     20  O   UNL     1       3.709  -3.164   1.053  0.00  0.00    +0.000 OA
BRANCH  19  21
ATOM     21  O   UNL     1       5.766  -3.764   1.539  0.00  0.00    +0.000 OA
ATOM     22  H   UNL     1       6.510  -3.604   2.143  0.00  0.00    +0.000 HD
ENDBRANCH  19  21
ENDBRANCH  18  19
BRANCH  18  23
ATOM     23  C   UNL     1       4.529  -0.479   1.067  0.00  0.00    +0.000 C 
BRANCH  23  24
ATOM     24  C   UNL     1       2.993  -0.424   1.158  0.00  0.00    +0.000 C 
BRANCH  24  26
ATOM     25  C   UNL     1       0.923   0.122  -0.094  0.00  0.00    +0.000 C 
ATOM     26  C   UNL     1       2.436   0.181  -0.112  0.00  0.00    +0.000 C 
ENDBRANCH  24  26
ENDBRANCH  23  24
ENDBRANCH  18  23
ENDBRANCH   1  18
TORSDOF 9
