REMARK  Name = Bumetanide
REMARK  11 active torsions:
REMARK  status: ('A' for Active; 'I' for Inactive)
REMARK    1  A    between atoms: C_1  and  C_2
REMARK    2  A    between atoms: C_2  and  C_3
REMARK    3  A    between atoms: C_3  and  C_4
REMARK    4  A    between atoms: C_4  and  N_5
REMARK    5  A    between atoms: N_5  and  C_6
REMARK    6  A    between atoms: C_7  and  O_8
REMARK    7  A    between atoms: O_8  and  C_9
REMARK    8  A    between atoms: C_15  and  S_22
REMARK    9  A    between atoms: C_17  and  C_19
REMARK   10  A    between atoms: C_19  and  O_20
REMARK   11  A    between atoms: S_22  and  N_23
REMARK                            x       y       z     vdW  Elec       q    Type
REMARK                         _______ _______ _______ _____ _____    ______ ____
ROOT
ATOM      1  C   UNL     1       6.360  -2.209  -2.135  0.00  0.00    +0.000 A 
ATOM      2  C   UNL     1       6.864  -2.332  -3.452  0.00  0.00    +0.000 A 
ATOM      3  C   UNL     1       8.224  -2.692  -3.609  0.00  0.00    +0.000 A 
ATOM      4  C   UNL     1       9.107  -2.757  -2.513  0.00  0.00    +0.000 A 
ATOM      5  C   UNL     1       8.629  -2.540  -1.227  0.00  0.00    +0.000 A 
ATOM      6  C   UNL     1       7.270  -2.249  -1.063  0.00  0.00    +0.000 A 
ENDROOT
BRANCH   3   7
ATOM      7  S   UNL     1       8.872  -3.294  -5.159  0.00  0.00    +0.000 S 
ATOM      8  O   UNL     1       8.668  -2.286  -6.174  0.00  0.00    +0.000 OA
ATOM      9  O   UNL     1      10.173  -3.864  -4.894  0.00  0.00    +0.000 OA
BRANCH   7  10
ATOM     10  N   UNL     1       7.880  -4.596  -5.484  0.00  0.00    +0.000 NA
ATOM     11  H   UNL     1       6.935  -4.360  -5.770  0.00  0.00    +0.000 HD
ATOM     12  H   UNL     1       8.041  -5.429  -4.922  0.00  0.00    +0.000 HD
ENDBRANCH   7  10
ENDBRANCH   3   7
BRANCH   1  13
ATOM     13  N   UNL     1       4.998  -2.146  -1.808  0.00  0.00    +0.000 N 
ATOM     14  H   UNL     1       4.361  -2.402  -2.557  0.00  0.00    +0.000 HD
BRANCH  13  15
ATOM     15  C   UNL     1       4.521  -1.055  -0.955  0.00  0.00    +0.000 C 
BRANCH  15  16
ATOM     16  C   UNL     1       2.992  -1.032  -0.954  0.00  0.00    +0.000 C 
BRANCH  16  18
ATOM     17  C   UNL     1       0.938   0.065  -0.043  0.00  0.00    +0.000 C 
ATOM     18  C   UNL     1       2.456   0.048  -0.024  0.00  0.00    +0.000 C 
ENDBRANCH  16  18
ENDBRANCH  15  16
ENDBRANCH  13  15
ENDBRANCH   1  13
BRANCH   5  19
ATOM     19  C   UNL     1       9.432  -2.709   0.020  0.00  0.00    +0.000 C 
ATOM     20  O   UNL     1       8.933  -2.559   1.125  0.00  0.00    +0.000 OA
BRANCH  19  21
ATOM     21  O   UNL     1      10.723  -3.064  -0.124  0.00  0.00    +0.000 OA
ATOM     22  H   UNL     1      11.087  -3.194  -1.014  0.00  0.00    +0.000 HD
ENDBRANCH  19  21
ENDBRANCH   5  19
BRANCH   2  23
ATOM     23  O   UNL     1       6.121  -2.176  -4.610  0.00  0.00    +0.000 OA
BRANCH  23  24
ATOM     24  C   UNL     1       4.927  -1.483  -4.616  0.00  0.00    +0.000 A 
ATOM     25  C   UNL     1       3.855  -2.127  -5.236  0.00  0.00    +0.000 A 
ATOM     26  C   UNL     1       2.584  -1.547  -5.240  0.00  0.00    +0.000 A 
ATOM     27  C   UNL     1       2.359  -0.351  -4.562  0.00  0.00    +0.000 A 
ATOM     28  C   UNL     1       3.430   0.315  -3.966  0.00  0.00    +0.000 A 
ATOM     29  C   UNL     1       4.722  -0.229  -4.028  0.00  0.00    +0.000 A 
ENDBRANCH  23  24
ENDBRANCH   2  23
TORSDOF 10
