REMARK  Name = Bupivacaine
REMARK  8 active torsions:
REMARK  status: ('A' for Active; 'I' for Inactive)
REMARK    1  A    between atoms: C_1  and  C_2
REMARK    2  A    between atoms: C_2  and  C_3
REMARK    3  A    between atoms: C_3  and  C_4
REMARK    4  A    between atoms: C_4  and  N_5
REMARK    5  A    between atoms: C_10  and  C_11
REMARK    6  A    between atoms: N_13  and  C_14
REMARK    7  A    between atoms: C_15  and  C_16
REMARK    8  A    between atoms: C_20  and  C_21
REMARK                            x       y       z     vdW  Elec       q    Type
REMARK                         _______ _______ _______ _____ _____    ______ ____
ROOT
ATOM      1  C   UNL     1       6.521  -2.906  -1.174  0.00  0.00    +0.000 C 
ATOM      2  O   UNL     1       5.478  -2.921  -1.846  0.00  0.00    +0.000 OA
ATOM      3  N   UNL     1       7.760  -2.956  -1.792  0.00  0.00    +0.000 N 
ATOM      4  H   UNL     1       8.532  -3.363  -1.282  0.00  0.00    +0.000 HD
ENDROOT
BRANCH   3   5
ATOM      5  C   UNL     1       7.807  -2.969  -3.215  0.00  0.00    +0.000 A 
ATOM      6  C   UNL     1       7.097  -1.989  -3.956  0.00  0.00    +0.000 A 
ATOM      7  C   UNL     1       6.355  -0.830  -3.333  0.00  0.00    +0.000 C 
ATOM      8  C   UNL     1       7.075  -2.063  -5.355  0.00  0.00    +0.000 A 
ATOM      9  C   UNL     1       7.762  -3.066  -6.025  0.00  0.00    +0.000 A 
ATOM     10  C   UNL     1       8.483  -4.013  -5.301  0.00  0.00    +0.000 A 
ATOM     11  C   UNL     1       8.526  -3.977  -3.895  0.00  0.00    +0.000 A 
ATOM     12  C   UNL     1       9.267  -5.077  -3.187  0.00  0.00    +0.000 C 
ENDBRANCH   3   5
BRANCH   1  18
ATOM     13  N   UNL     1       5.094  -2.621   0.891  0.00  0.00    +0.000 NA
ATOM     14  C   UNL     1       4.201  -3.732   0.498  0.00  0.00    +0.000 C 
ATOM     15  C   UNL     1       4.708  -5.079   0.976  0.00  0.00    +0.000 C 
ATOM     16  C   UNL     1       6.153  -5.329   0.576  0.00  0.00    +0.000 C 
ATOM     17  C   UNL     1       7.034  -4.147   0.972  0.00  0.00    +0.000 C 
ATOM     18  C   UNL     1       6.487  -2.842   0.381  0.00  0.00    +0.000 C 
BRANCH  13  19
ATOM     19  C   UNL     1       4.586  -1.292   0.483  0.00  0.00    +0.000 C 
BRANCH  19  20
ATOM     20  C   UNL     1       3.061  -1.199   0.471  0.00  0.00    +0.000 C 
BRANCH  20  22
ATOM     21  C   UNL     1       1.038   0.122  -0.036  0.00  0.00    +0.000 C 
ATOM     22  C   UNL     1       2.557   0.144  -0.021  0.00  0.00    +0.000 C 
ENDBRANCH  20  22
ENDBRANCH  19  20
ENDBRANCH  13  19
ENDBRANCH   1  18
TORSDOF 5
