REMARK  Name = Bupropion
REMARK  8 active torsions:
REMARK  status: ('A' for Active; 'I' for Inactive)
REMARK    1  A    between atoms: C_1  and  C_2
REMARK    2  A    between atoms: C_2  and  N_3
REMARK    3  A    between atoms: C_2  and  C_8
REMARK    4  A    between atoms: N_3  and  C_4
REMARK    5  A    between atoms: C_4  and  C_5
REMARK    6  A    between atoms: C_4  and  C_6
REMARK    7  A    between atoms: C_4  and  C_7
REMARK    8  A    between atoms: C_8  and  C_10
REMARK                            x       y       z     vdW  Elec       q    Type
REMARK                         _______ _______ _______ _____ _____    ______ ____
ROOT
ATOM      1  C   UNL     1       3.139  -1.504  -0.456  0.00  0.00    +0.000 C 
ATOM      2  O   UNL     1       2.449  -2.415  -0.900  0.00  0.00    +0.000 OA
ENDROOT
BRANCH   1   3
ATOM      3  C   UNL     1       4.611  -1.682  -0.564  0.00  0.00    +0.000 A 
ATOM      4  C   UNL     1       5.479  -1.399   0.489  0.00  0.00    +0.000 A 
ATOM      5  C   UNL     1       6.845  -1.599   0.343  0.00  0.00    +0.000 A 
ATOM      6 CL   UNL     1       7.894  -1.161   1.634  0.00  0.00    +0.000 Cl
ATOM      7  C   UNL     1       7.353  -2.160  -0.822  0.00  0.00    +0.000 A 
ATOM      8  C   UNL     1       6.488  -2.493  -1.865  0.00  0.00    +0.000 A 
ATOM      9  C   UNL     1       5.119  -2.241  -1.744  0.00  0.00    +0.000 A 
ENDBRANCH   1   3
BRANCH   1  11
ATOM     10  C   UNL     1       1.039  -0.249  -0.198  0.00  0.00    +0.000 C 
ATOM     11  C   UNL     1       2.551  -0.144   0.007  0.00  0.00    +0.000 C 
BRANCH  11  12
ATOM     12  N   UNL     1       2.942   0.192   1.402  0.00  0.00    +0.000 NA
ATOM     13  H   UNL     1       3.954   0.271   1.414  0.00  0.00    +0.000 HD
BRANCH  12  14
ATOM     14  C   UNL     1       2.509   1.494   1.955  0.00  0.00    +0.000 C 
ATOM     15  C   UNL     1       3.059   2.630   1.080  0.00  0.00    +0.000 C 
ATOM     16  C   UNL     1       0.998   1.615   2.161  0.00  0.00    +0.000 C 
ATOM     17  C   UNL     1       3.125   1.618   3.367  0.00  0.00    +0.000 C 
ENDBRANCH  12  14
ENDBRANCH  11  12
ENDBRANCH   1  11
TORSDOF 4
