REMARK  Name = Buprenorphine
REMARK  12 active torsions:
REMARK  status: ('A' for Active; 'I' for Inactive)
REMARK    1  A    between atoms: C_1  and  O_2
REMARK    2  A    between atoms: O_2  and  C_3
REMARK    3  A    between atoms: C_8  and  C_9
REMARK    4  A    between atoms: C_9  and  C_10
REMARK    5  A    between atoms: C_9  and  O_11
REMARK    6  A    between atoms: C_9  and  C_12
REMARK    7  A    between atoms: C_12  and  C_13
REMARK    8  A    between atoms: C_12  and  C_14
REMARK    9  A    between atoms: C_12  and  C_15
REMARK   10  A    between atoms: N_26  and  C_27
REMARK   11  A    between atoms: C_27  and  C_28
REMARK   12  A    between atoms: C_31  and  O_32
REMARK                            x       y       z     vdW  Elec       q    Type
REMARK                         _______ _______ _______ _____ _____    ______ ____
ROOT
ATOM      1  C   UNL     1       1.371  -1.595   0.080  0.00  0.00    +0.000 C 
ATOM      2  C   UNL     1       1.770  -2.553  -0.968  0.00  0.00    +0.000 C 
ATOM      3  C   UNL     1       0.503  -3.348  -1.003  0.00  0.00    +0.000 C 
ATOM      4  C   UNL     1      -0.255  -3.064   0.323  0.00  0.00    +0.000 C 
ATOM      5  C   UNL     1      -0.504  -1.685   1.140  0.00  0.00    +0.000 C 
ATOM      6  C   UNL     1       0.354  -0.680   0.596  0.00  0.00    +0.000 C 
ATOM      7  C   UNL     1      -1.313  -3.817   0.505  0.00  0.00    +0.000 C 
ATOM      8  C   UNL     1      -0.615  -5.765   0.025  0.00  0.00    +0.000 C 
ATOM      9  C   UNL     1       0.529  -6.233   0.768  0.00  0.00    +0.000 A 
ATOM     10  C   UNL     1       0.829  -5.192   1.483  0.00  0.00    +0.000 A 
ATOM     11  C   UNL     1       2.091  -5.077   2.004  0.00  0.00    +0.000 A 
ATOM     12  O   UNL     1       2.365  -3.736   2.059  0.00  0.00    +0.000 OA
ATOM     13  C   UNL     1       1.062  -3.088   1.441  0.00  0.00    +0.000 C 
ATOM     14  C   UNL     1      -0.403  -4.306   1.257  0.00  0.00    +0.000 C 
ATOM     15  C   UNL     1      -2.361  -5.202   0.601  0.00  0.00    +0.000 C 
ATOM     16  C   UNL     1      -3.456  -4.212   0.300  0.00  0.00    +0.000 C 
ATOM     17  N   UNL     1      -2.491  -3.304  -0.195  0.00  0.00    +0.000 NA
ATOM     18  C   UNL     1       2.791  -6.313   2.205  0.00  0.00    +0.000 A 
ATOM     19  C   UNL     1       2.147  -7.508   1.772  0.00  0.00    +0.000 A 
ATOM     20  C   UNL     1       0.981  -7.454   1.063  0.00  0.00    +0.000 A 
ENDROOT
BRANCH   1  22
ATOM     21  C   UNL     1      -0.575  -0.430  -1.873  0.00  0.00    +0.000 C 
ATOM     22  O   UNL     1       0.752  -0.862  -1.409  0.00  0.00    +0.000 OA
ENDBRANCH   1  22
BRANCH   6  23
ATOM     23  C   UNL     1       0.966   0.339   1.458  0.00  0.00    +0.000 C 
ATOM     24  C   UNL     1       2.071  -0.379   2.218  0.00  0.00    +0.000 C 
BRANCH  23  25
ATOM     25  C   UNL     1       1.507   1.551   0.647  0.00  0.00    +0.000 C 
ATOM     26  C   UNL     1       2.101   2.483   1.693  0.00  0.00    +0.000 C 
ATOM     27  C   UNL     1       2.614   1.169  -0.359  0.00  0.00    +0.000 C 
ATOM     28  C   UNL     1       0.413   2.335  -0.096  0.00  0.00    +0.000 C 
ENDBRANCH  23  25
BRANCH  23  29
ATOM     29  O   UNL     1      -0.127   0.731   2.288  0.00  0.00    +0.000 OA
ATOM     30  H   UNL     1       0.222   1.248   3.020  0.00  0.00    +0.000 HD
ENDBRANCH  23  29
ENDBRANCH   6  23
BRANCH  18  31
ATOM     31  O   UNL     1       3.989  -6.682   2.764  0.00  0.00    +0.000 OA
ATOM     32  H   UNL     1       4.563  -5.998   3.125  0.00  0.00    +0.000 HD
ENDBRANCH  18  31
BRANCH  17  33
ATOM     33  C   UNL     1      -2.989  -2.016   0.207  0.00  0.00    +0.000 C 
BRANCH  33  34
ATOM     34  C   UNL     1      -4.058  -1.596  -0.659  0.00  0.00    +0.000 C 
ATOM     35  C   UNL     1      -3.824  -0.340  -1.469  0.00  0.00    +0.000 C 
ATOM     36  C   UNL     1      -3.816  -1.687  -2.149  0.00  0.00    +0.000 C 
ENDBRANCH  33  34
ENDBRANCH  17  33
TORSDOF 7
