REMARK  Name = Buspirone
REMARK  5 active torsions:
REMARK  status: ('A' for Active; 'I' for Inactive)
REMARK    1  A    between atoms: N_12  and  C_13
REMARK    2  A    between atoms: C_13  and  C_14
REMARK    3  A    between atoms: C_14  and  C_15
REMARK    4  A    between atoms: C_15  and  C_16
REMARK    5  A    between atoms: C_16  and  N_17
REMARK                            x       y       z     vdW  Elec       q    Type
REMARK                         _______ _______ _______ _____ _____    ______ ____
ROOT
ATOM      1  C   UNL     1       4.066  -3.338  -0.770  0.00  0.00    +0.000 C 
ENDROOT
BRANCH   1   2
ATOM      2  C   UNL     1       3.021  -2.451  -0.102  0.00  0.00    +0.000 C 
BRANCH   2  14
ATOM      3  O   UNL     1       1.060  -0.260   0.180  0.00  0.00    +0.000 OA
ATOM      4  C   UNL     1       2.274  -0.125   0.048  0.00  0.00    +0.000 C 
ATOM      5  C   UNL     1       3.020   1.106   0.503  0.00  0.00    +0.000 C 
ATOM      6  C   UNL     1       3.914   1.636  -0.627  0.00  0.00    +0.000 C 
ATOM      7  C   UNL     1       4.803   2.772  -0.096  0.00  0.00    +0.000 C 
ATOM      8  C   UNL     1       4.486   3.983  -0.957  0.00  0.00    +0.000 C 
ATOM      9  C   UNL     1       3.089   3.737  -1.500  0.00  0.00    +0.000 C 
ATOM     10  C   UNL     1       3.067   2.245  -1.763  0.00  0.00    +0.000 C 
ATOM     11  C   UNL     1       4.785   0.500  -1.159  0.00  0.00    +0.000 C 
ATOM     12  C   UNL     1       3.906  -0.652  -1.548  0.00  0.00    +0.000 C 
ATOM     13  O   UNL     1       3.943  -1.166  -2.662  0.00  0.00    +0.000 OA
ATOM     14  N   UNL     1       3.142  -1.058  -0.474  0.00  0.00    +0.000 N 
ENDBRANCH   2  14
ENDBRANCH   1   2
BRANCH   1  15
ATOM     15  C   UNL     1       4.075  -4.739  -0.194  0.00  0.00    +0.000 C 
BRANCH  15  16
ATOM     16  C   UNL     1       5.089  -5.603  -0.950  0.00  0.00    +0.000 C 
BRANCH  16  17
ATOM     17  N   UNL     1       5.082  -7.002  -0.488  0.00  0.00    +0.000 NA
ATOM     18  C   UNL     1       3.752  -7.640  -0.692  0.00  0.00    +0.000 C 
ATOM     19  C   UNL     1       3.330  -7.741  -2.177  0.00  0.00    +0.000 C 
ATOM     20  N   UNL     1       4.360  -8.454  -2.911  0.00  0.00    +0.000 N 
ATOM     21  C   UNL     1       5.732  -8.004  -2.757  0.00  0.00    +0.000 C 
ATOM     22  C   UNL     1       6.081  -7.803  -1.260  0.00  0.00    +0.000 C 
ATOM     23  C   UNL     1       3.998  -9.587  -3.576  0.00  0.00    +0.000 A 
ATOM     24  N   UNL     1       2.978  -9.475  -4.445  0.00  0.00    +0.000 NA
ATOM     25  C   UNL     1       2.576 -10.584  -5.086  0.00  0.00    +0.000 A 
ATOM     26  C   UNL     1       3.105 -11.824  -4.851  0.00  0.00    +0.000 A 
ATOM     27  C   UNL     1       4.119 -11.852  -3.926  0.00  0.00    +0.000 A 
ATOM     28  N   UNL     1       4.605 -10.754  -3.304  0.00  0.00    +0.000 NA
ENDBRANCH  16  17
ENDBRANCH  15  16
ENDBRANCH   1  15
TORSDOF 5
