REMARK  Name = Busulfan
REMARK  9 active torsions:
REMARK  status: ('A' for Active; 'I' for Inactive)
REMARK    1  A    between atoms: C_1  and  S_2
REMARK    2  A    between atoms: S_2  and  O_5
REMARK    3  A    between atoms: O_5  and  C_6
REMARK    4  A    between atoms: C_6  and  C_7
REMARK    5  A    between atoms: C_7  and  C_8
REMARK    6  A    between atoms: C_8  and  C_9
REMARK    7  A    between atoms: C_9  and  O_10
REMARK    8  A    between atoms: O_10  and  S_11
REMARK    9  A    between atoms: S_11  and  C_12
REMARK                            x       y       z     vdW  Elec       q    Type
REMARK                         _______ _______ _______ _____ _____    ______ ____
ROOT
ATOM      1  C   UNL     1       5.283  -2.429   1.621  0.00  0.00    +0.000 C 
ENDROOT
BRANCH   1   2
ATOM      2  C   UNL     1       4.792  -1.228   0.820  0.00  0.00    +0.000 C 
BRANCH   2   3
ATOM      3  O   UNL     1       3.365  -1.118   0.748  0.00  0.00    +0.000 OA
BRANCH   3   5
ATOM      4  C   UNL     1       1.087   0.029  -0.017  0.00  0.00    +0.000 C 
ATOM      5  S   UNL     1       2.860   0.184  -0.120  0.00  0.00    +0.000 S 
ATOM      6  O   UNL     1       3.250  -0.026  -1.499  0.00  0.00    +0.000 OA
ATOM      7  O   UNL     1       3.250   1.376   0.604  0.00  0.00    +0.000 OA
ENDBRANCH   3   5
ENDBRANCH   2   3
ENDBRANCH   1   2
BRANCH   1   8
ATOM      8  C   UNL     1       6.824  -2.473   1.655  0.00  0.00    +0.000 C 
BRANCH   8   9
ATOM      9  C   UNL     1       7.297  -3.674   2.470  0.00  0.00    +0.000 C 
BRANCH   9  10
ATOM     10  O   UNL     1       8.709  -3.706   2.626  0.00  0.00    +0.000 OA
BRANCH  10  11
ATOM     11  S   UNL     1       9.372  -5.045   3.303  0.00  0.00    +0.000 S 
ATOM     12  C   UNL     1       8.759  -4.863   4.971  0.00  0.00    +0.000 C 
ATOM     13  O   UNL     1       8.763  -6.220   2.722  0.00  0.00    +0.000 OA
ATOM     14  O   UNL     1      10.813  -4.877   3.339  0.00  0.00    +0.000 OA
ENDBRANCH  10  11
ENDBRANCH   9  10
ENDBRANCH   8   9
ENDBRANCH   1   8
TORSDOF 7
