REMARK  Name = Butacaine
REMARK  15 active torsions:
REMARK  status: ('A' for Active; 'I' for Inactive)
REMARK    1  A    between atoms: C_1  and  C_2
REMARK    2  A    between atoms: C_2  and  C_3
REMARK    3  A    between atoms: C_3  and  C_4
REMARK    4  A    between atoms: C_4  and  N_5
REMARK    5  A    between atoms: N_5  and  C_6
REMARK    6  A    between atoms: N_5  and  C_10
REMARK    7  A    between atoms: C_6  and  C_7
REMARK    8  A    between atoms: C_7  and  C_8
REMARK    9  A    between atoms: C_8  and  C_9
REMARK   10  A    between atoms: C_10  and  C_11
REMARK   11  A    between atoms: C_11  and  C_12
REMARK   12  A    between atoms: C_12  and  O_13
REMARK   13  A    between atoms: O_13  and  C_14
REMARK   14  A    between atoms: C_14  and  C_16
REMARK   15  A    between atoms: C_19  and  N_20
REMARK                            x       y       z     vdW  Elec       q    Type
REMARK                         _______ _______ _______ _____ _____    ______ ____
ROOT
ATOM      1  C   UNL     1       8.616   1.961  -3.833  0.00  0.00    +0.000 C 
ENDROOT
BRANCH   1   2
ATOM      2  C   UNL     1       7.090   1.953  -3.825  0.00  0.00    +0.000 C 
BRANCH   2   3
ATOM      3  C   UNL     1       6.507   1.297  -2.560  0.00  0.00    +0.000 C 
BRANCH   3   4
ATOM      4  N   UNL     1       5.018   1.305  -2.517  0.00  0.00    +0.000 NA
BRANCH   4   5
ATOM      5  C   UNL     1       4.576   0.562  -1.299  0.00  0.00    +0.000 C 
BRANCH   5   6
ATOM      6  C   UNL     1       3.070   0.342  -1.201  0.00  0.00    +0.000 C 
BRANCH   6   8
ATOM      7  C   UNL     1       0.998  -0.188   0.000  0.00  0.00    +0.000 C 
ATOM      8  C   UNL     1       2.525  -0.313   0.042  0.00  0.00    +0.000 C 
ENDBRANCH   6   8
ENDBRANCH   5   6
ENDBRANCH   4   5
BRANCH   4   9
ATOM      9  C   UNL     1       4.529   2.707  -2.575  0.00  0.00    +0.000 C 
BRANCH   9  10
ATOM     10  C   UNL     1       3.028   2.871  -2.720  0.00  0.00    +0.000 C 
BRANCH  10  11
ATOM     11  C   UNL     1       2.507   4.283  -2.750  0.00  0.00    +0.000 C 
ATOM     12  C   UNL     1       0.983   4.196  -2.665  0.00  0.00    +0.000 C 
ENDBRANCH  10  11
ENDBRANCH   9  10
ENDBRANCH   4   9
ENDBRANCH   3   4
ENDBRANCH   2   3
ENDBRANCH   1   2
BRANCH   1  13
ATOM     13  O   UNL     1       9.076   2.651  -5.016  0.00  0.00    +0.000 OA
BRANCH  13  14
ATOM     14  C   UNL     1      10.433   2.692  -5.150  0.00  0.00    +0.000 C 
ATOM     15  O   UNL     1      11.241   2.210  -4.385  0.00  0.00    +0.000 OA
BRANCH  14  16
ATOM     16  C   UNL     1      10.809   3.363  -6.426  0.00  0.00    +0.000 A 
ATOM     17  C   UNL     1      10.234   4.578  -6.804  0.00  0.00    +0.000 A 
ATOM     18  C   UNL     1      10.599   5.180  -8.017  0.00  0.00    +0.000 A 
ATOM     19  C   UNL     1      11.546   4.592  -8.860  0.00  0.00    +0.000 A 
ATOM     20  C   UNL     1      12.142   3.394  -8.459  0.00  0.00    +0.000 A 
ATOM     21  C   UNL     1      11.787   2.785  -7.245  0.00  0.00    +0.000 A 
BRANCH  19  22
ATOM     22  N   UNL     1      11.870   5.175 -10.071  0.00  0.00    +0.000 N 
ATOM     23  H   UNL     1      11.452   6.052 -10.351  0.00  0.00    +0.000 HD
ATOM     24  H   UNL     1      12.561   4.760 -10.681  0.00  0.00    +0.000 HD
ENDBRANCH  19  22
ENDBRANCH  14  16
ENDBRANCH  13  14
ENDBRANCH   1  13
TORSDOF 13
