REMARK  Name = Butamben
REMARK  7 active torsions:
REMARK  status: ('A' for Active; 'I' for Inactive)
REMARK    1  A    between atoms: C_1  and  C_2
REMARK    2  A    between atoms: C_2  and  C_3
REMARK    3  A    between atoms: C_3  and  C_4
REMARK    4  A    between atoms: C_4  and  O_5
REMARK    5  A    between atoms: O_5  and  C_6
REMARK    6  A    between atoms: C_6  and  C_8
REMARK    7  A    between atoms: C_11  and  N_12
REMARK                            x       y       z     vdW  Elec       q    Type
REMARK                         _______ _______ _______ _____ _____    ______ ____
ROOT
ATOM      1  C   UNL     1       6.803  -4.318  -1.140  0.00  0.00    +0.000 A 
ATOM      2  C   UNL     1       6.274  -5.063  -2.197  0.00  0.00    +0.000 A 
ATOM      3  C   UNL     1       6.771  -6.352  -2.464  0.00  0.00    +0.000 A 
ATOM      4  C   UNL     1       7.800  -6.907  -1.696  0.00  0.00    +0.000 A 
ATOM      5  C   UNL     1       8.327  -6.152  -0.647  0.00  0.00    +0.000 A 
ATOM      6  C   UNL     1       7.843  -4.865  -0.376  0.00  0.00    +0.000 A 
ENDROOT
BRANCH   4   7
ATOM      7  N   UNL     1       8.255  -8.191  -1.936  0.00  0.00    +0.000 N 
ATOM      8  H   UNL     1       7.911  -8.725  -2.722  0.00  0.00    +0.000 HD
ATOM      9  H   UNL     1       9.023  -8.575  -1.402  0.00  0.00    +0.000 HD
ENDBRANCH   4   7
BRANCH   1  10
ATOM     10  C   UNL     1       6.362  -2.930  -0.834  0.00  0.00    +0.000 C 
ATOM     11  O   UNL     1       7.158  -2.045  -0.549  0.00  0.00    +0.000 OA
BRANCH  10  12
ATOM     12  O   UNL     1       5.006  -2.805  -0.837  0.00  0.00    +0.000 OA
BRANCH  12  13
ATOM     13  C   UNL     1       4.542  -1.489  -0.457  0.00  0.00    +0.000 C 
BRANCH  13  14
ATOM     14  C   UNL     1       3.012  -1.454  -0.439  0.00  0.00    +0.000 C 
BRANCH  14  16
ATOM     15  C   UNL     1       0.950  -0.047  -0.070  0.00  0.00    +0.000 C 
ATOM     16  C   UNL     1       2.472  -0.067  -0.076  0.00  0.00    +0.000 C 
ENDBRANCH  14  16
ENDBRANCH  13  14
ENDBRANCH  12  13
ENDBRANCH  10  12
ENDBRANCH   1  10
TORSDOF 6
