REMARK  Name = Butabarbital
REMARK  6 active torsions:
REMARK  status: ('A' for Active; 'I' for Inactive)
REMARK    1  A    between atoms: C_1  and  C_2
REMARK    2  A    between atoms: C_2  and  C_3
REMARK    3  A    between atoms: C_3  and  C_4
REMARK    4  A    between atoms: C_3  and  C_5
REMARK    5  A    between atoms: C_5  and  C_6
REMARK    6  A    between atoms: C_6  and  C_7
REMARK                            x       y       z     vdW  Elec       q    Type
REMARK                         _______ _______ _______ _____ _____    ______ ____
ROOT
ATOM      1  C   UNL     1       4.634   1.503   0.044  0.00  0.00    +0.000 C 
ATOM      2  C   UNL     1       5.170   2.171   1.304  0.00  0.00    +0.000 C 
ATOM      3  O   UNL     1       5.105   1.648   2.418  0.00  0.00    +0.000 OA
ATOM      4  N   UNL     1       5.709   3.413   1.181  0.00  0.00    +0.000 N 
ATOM      5  C   UNL     1       6.048   4.030   0.020  0.00  0.00    +0.000 C 
ATOM      6  O   UNL     1       6.685   5.071   0.012  0.00  0.00    +0.000 OA
ATOM      7  N   UNL     1       5.669   3.415  -1.131  0.00  0.00    +0.000 N 
ATOM      8  C   UNL     1       5.052   2.206  -1.243  0.00  0.00    +0.000 C 
ATOM      9  O   UNL     1       4.850   1.727  -2.360  0.00  0.00    +0.000 OA
ATOM     10  H   UNL     1       6.041   3.841   2.034  0.00  0.00    +0.000 HD
ATOM     11  H   UNL     1       5.957   3.857  -1.993  0.00  0.00    +0.000 HD
ENDROOT
BRANCH   1  12
ATOM     12  C   UNL     1       3.051   1.490   0.065  0.00  0.00    +0.000 C 
ATOM     13  C   UNL     1       2.464   2.317   1.224  0.00  0.00    +0.000 C 
BRANCH  12  15
ATOM     14  C   UNL     1       0.952   0.017   0.053  0.00  0.00    +0.000 C 
ATOM     15  C   UNL     1       2.467   0.060   0.082  0.00  0.00    +0.000 C 
ENDBRANCH  12  15
ENDBRANCH   1  12
BRANCH   1  16
ATOM     16  C   UNL     1       5.270   0.086   0.006  0.00  0.00    +0.000 C 
ATOM     17  C   UNL     1       6.792   0.121   0.002  0.00  0.00    +0.000 C 
ENDBRANCH   1  16
TORSDOF 3
