REMARK  Name = Butalbital
REMARK  6 active torsions:
REMARK  status: ('A' for Active; 'I' for Inactive)
REMARK    1  A    between atoms: C_1  and  C_2
REMARK    2  A    between atoms: C_2  and  C_3
REMARK    3  A    between atoms: C_2  and  C_4
REMARK    4  A    between atoms: C_4  and  C_5
REMARK    5  A    between atoms: C_5  and  C_6
REMARK    6  A    between atoms: C_6  and  C_7
REMARK                            x       y       z     vdW  Elec       q    Type
REMARK                         _______ _______ _______ _____ _____    ______ ____
ROOT
ATOM      1  C   UNL     1       4.603   1.377  -0.245  0.00  0.00    +0.000 C 
ATOM      2  C   UNL     1       4.999   2.070   1.037  0.00  0.00    +0.000 C 
ATOM      3  O   UNL     1       4.768   1.597   2.149  0.00  0.00    +0.000 OA
ATOM      4  N   UNL     1       5.657   3.258   0.920  0.00  0.00    +0.000 N 
ATOM      5  C   UNL     1       6.011   3.875  -0.235  0.00  0.00    +0.000 C 
ATOM      6  O   UNL     1       6.655   4.924  -0.231  0.00  0.00    +0.000 OA
ATOM      7  N   UNL     1       5.640   3.283  -1.394  0.00  0.00    +0.000 N 
ATOM      8  C   UNL     1       5.002   2.089  -1.520  0.00  0.00    +0.000 C 
ATOM      9  O   UNL     1       4.788   1.624  -2.639  0.00  0.00    +0.000 OA
ATOM     10  H   UNL     1       5.950   3.694   1.783  0.00  0.00    +0.000 HD
ATOM     11  H   UNL     1       5.927   3.725  -2.256  0.00  0.00    +0.000 HD
ENDROOT
BRANCH   1  12
ATOM     12  C   UNL     1       3.044   1.262  -0.265  0.00  0.00    +0.000 C 
BRANCH  12  14
ATOM     13  C   UNL     1       0.921  -0.042   0.102  0.00  0.00    +0.000 C 
ATOM     14  C   UNL     1       2.445  -0.129   0.047  0.00  0.00    +0.000 C 
ATOM     15  C   UNL     1       2.766  -1.210  -0.994  0.00  0.00    +0.000 C 
ENDBRANCH  12  14
ENDBRANCH   1  12
BRANCH   1  16
ATOM     16  C   UNL     1       5.354   0.038  -0.267  0.00  0.00    +0.000 C 
BRANCH  16  17
ATOM     17  C   UNL     1       6.846   0.041  -0.188  0.00  0.00    +0.000 C 
ATOM     18  C   UNL     1       7.508  -1.122  -0.217  0.00  0.00    +0.000 C 
ENDBRANCH  16  17
ENDBRANCH   1  16
TORSDOF 4
