REMARK  Name = Butaperazine
REMARK  9 active torsions:
REMARK  status: ('A' for Active; 'I' for Inactive)
REMARK    1  A    between atoms: C_1  and  C_2
REMARK    2  A    between atoms: C_2  and  C_3
REMARK    3  A    between atoms: C_3  and  C_4
REMARK    4  A    between atoms: C_4  and  C_6
REMARK    5  A    between atoms: N_17  and  C_18
REMARK    6  A    between atoms: C_18  and  C_19
REMARK    7  A    between atoms: C_19  and  C_20
REMARK    8  A    between atoms: C_20  and  N_21
REMARK    9  A    between atoms: N_24  and  C_25
REMARK                            x       y       z     vdW  Elec       q    Type
REMARK                         _______ _______ _______ _____ _____    ______ ____
ROOT
ATOM      1  C   UNL     1       5.321  -2.260  -1.586  0.00  0.00    +0.000 A 
ATOM      2  C   UNL     1       4.887  -2.682  -2.846  0.00  0.00    +0.000 A 
ATOM      3  C   UNL     1       5.631  -3.622  -3.574  0.00  0.00    +0.000 A 
ATOM      4  C   UNL     1       6.807  -4.152  -2.997  0.00  0.00    +0.000 A 
ATOM      5  S   UNL     1       7.826  -5.319  -3.891  0.00  0.00    +0.000 S 
ATOM      6  C   UNL     1       7.531  -4.722  -5.549  0.00  0.00    +0.000 A 
ATOM      7  C   UNL     1       8.544  -4.854  -6.507  0.00  0.00    +0.000 A 
ATOM      8  C   UNL     1       8.354  -4.390  -7.810  0.00  0.00    +0.000 A 
ATOM      9  C   UNL     1       7.168  -3.763  -8.154  0.00  0.00    +0.000 A 
ATOM     10  C   UNL     1       6.198  -3.567  -7.181  0.00  0.00    +0.000 A 
ATOM     11  C   UNL     1       6.319  -4.096  -5.886  0.00  0.00    +0.000 A 
ATOM     12  N   UNL     1       5.307  -3.872  -4.931  0.00  0.00    +0.000 N 
ATOM     13  C   UNL     1       7.222  -3.745  -1.725  0.00  0.00    +0.000 A 
ATOM     14  C   UNL     1       6.484  -2.794  -1.024  0.00  0.00    +0.000 A 
ENDROOT
BRANCH   1  15
ATOM     15  C   UNL     1       4.619  -1.175  -0.864  0.00  0.00    +0.000 C 
ATOM     16  O   UNL     1       5.294  -0.344  -0.250  0.00  0.00    +0.000 OA
BRANCH  15  17
ATOM     17  C   UNL     1       3.105  -1.167  -0.880  0.00  0.00    +0.000 C 
BRANCH  17  19
ATOM     18  C   UNL     1       1.036   0.021  -0.084  0.00  0.00    +0.000 C 
ATOM     19  C   UNL     1       2.553   0.015  -0.087  0.00  0.00    +0.000 C 
ENDBRANCH  17  19
ENDBRANCH  15  17
ENDBRANCH   1  15
BRANCH  12  20
ATOM     20  C   UNL     1       3.914  -4.322  -5.186  0.00  0.00    +0.000 C 
BRANCH  20  21
ATOM     21  C   UNL     1       3.648  -4.815  -6.605  0.00  0.00    +0.000 C 
BRANCH  21  22
ATOM     22  C   UNL     1       2.212  -5.238  -6.833  0.00  0.00    +0.000 C 
BRANCH  22  23
ATOM     23  N   UNL     1       2.174  -6.618  -7.283  0.00  0.00    +0.000 NA
ATOM     24  C   UNL     1       0.796  -6.996  -7.626  0.00  0.00    +0.000 C 
ATOM     25  C   UNL     1       0.735  -8.451  -8.129  0.00  0.00    +0.000 C 
ATOM     26  N   UNL     1       1.337  -9.447  -7.211  0.00  0.00    +0.000 NA
ATOM     27  C   UNL     1       0.487  -9.638  -6.037  0.00  0.00    +0.000 C 
ATOM     28  C   UNL     1       2.677  -8.991  -6.788  0.00  0.00    +0.000 C 
ATOM     29  C   UNL     1       2.698  -7.547  -6.263  0.00  0.00    +0.000 C 
ENDBRANCH  22  23
ENDBRANCH  21  22
ENDBRANCH  20  21
ENDBRANCH  12  20
TORSDOF 7
