REMARK  Name = Butenafine
REMARK  9 active torsions:
REMARK  status: ('A' for Active; 'I' for Inactive)
REMARK    1  A    between atoms: C_1  and  N_2
REMARK    2  A    between atoms: N_2  and  C_3
REMARK    3  A    between atoms: N_2  and  C_14
REMARK    4  A    between atoms: C_3  and  C_4
REMARK    5  A    between atoms: C_7  and  C_10
REMARK    6  A    between atoms: C_10  and  C_11
REMARK    7  A    between atoms: C_10  and  C_12
REMARK    8  A    between atoms: C_10  and  C_13
REMARK    9  A    between atoms: C_14  and  C_15
REMARK                            x       y       z     vdW  Elec       q    Type
REMARK                         _______ _______ _______ _____ _____    ______ ____
ROOT
ATOM      1  C   UNL     1       0.827  -0.046   0.252  0.00  0.00    +0.000 C 
ATOM      2  N   UNL     1       2.285   0.008   0.089  0.00  0.00    +0.000 NA
ENDROOT
BRANCH   2   3
ATOM      3  C   UNL     1       2.770   1.390  -0.100  0.00  0.00    +0.000 C 
BRANCH   3   4
ATOM      4  C   UNL     1       2.398   1.945  -1.448  0.00  0.00    +0.000 A 
ATOM      5  C   UNL     1       2.595   3.296  -1.716  0.00  0.00    +0.000 A 
ATOM      6  C   UNL     1       2.125   3.831  -2.911  0.00  0.00    +0.000 A 
ATOM      7  C   UNL     1       1.492   3.017  -3.872  0.00  0.00    +0.000 A 
ATOM      8  C   UNL     1       1.328   1.662  -3.593  0.00  0.00    +0.000 A 
ATOM      9  C   UNL     1       1.834   1.127  -2.431  0.00  0.00    +0.000 A 
BRANCH   7  10
ATOM     10  C   UNL     1       1.090   3.580  -5.231  0.00  0.00    +0.000 C 
ATOM     11  C   UNL     1       0.070   4.714  -5.047  0.00  0.00    +0.000 C 
ATOM     12  C   UNL     1       2.367   4.107  -5.914  0.00  0.00    +0.000 C 
ATOM     13  C   UNL     1       0.469   2.507  -6.155  0.00  0.00    +0.000 C 
ENDBRANCH   7  10
ENDBRANCH   3   4
ENDBRANCH   2   3
BRANCH   2  14
ATOM     14  C   UNL     1       2.949  -0.641   1.210  0.00  0.00    +0.000 C 
BRANCH  14  15
ATOM     15  C   UNL     1       4.470  -0.696   1.110  0.00  0.00    +0.000 A 
ATOM     16  C   UNL     1       5.108  -0.629   2.376  0.00  0.00    +0.000 A 
ATOM     17  C   UNL     1       6.478  -0.451   2.473  0.00  0.00    +0.000 A 
ATOM     18  C   UNL     1       7.210  -0.320   1.310  0.00  0.00    +0.000 A 
ATOM     19  C   UNL     1       6.615  -0.369   0.047  0.00  0.00    +0.000 A 
ATOM     20  C   UNL     1       7.384  -0.022  -1.055  0.00  0.00    +0.000 A 
ATOM     21  C   UNL     1       6.783   0.246  -2.266  0.00  0.00    +0.000 A 
ATOM     22  C   UNL     1       5.745  -0.598  -2.568  0.00  0.00    +0.000 A 
ATOM     23  C   UNL     1       4.856  -0.855  -1.518  0.00  0.00    +0.000 A 
ATOM     24  C   UNL     1       5.237  -0.666  -0.127  0.00  0.00    +0.000 A 
ENDBRANCH  14  15
ENDBRANCH   2  14
TORSDOF 5
