REMARK  Name = Butorphanol
REMARK  4 active torsions:
REMARK  status: ('A' for Active; 'I' for Inactive)
REMARK    1  A    between atoms: C_7  and  O_8
REMARK    2  A    between atoms: C_16  and  O_17
REMARK    3  A    between atoms: N_20  and  C_21
REMARK    4  A    between atoms: C_21  and  C_22
REMARK                            x       y       z     vdW  Elec       q    Type
REMARK                         _______ _______ _______ _____ _____    ______ ____
ROOT
ATOM      1  C   UNL     1       2.555  -0.094   0.020  0.00  0.00    +0.000 C 
ATOM      2  C   UNL     1       2.539  -1.426   0.746  0.00  0.00    +0.000 C 
ATOM      3  C   UNL     1       3.918  -1.820   0.677  0.00  0.00    +0.000 A 
ATOM      4  C   UNL     1       4.639  -0.947   0.024  0.00  0.00    +0.000 A 
ATOM      5  C   UNL     1       6.007  -1.458  -1.070  0.00  0.00    +0.000 A 
ATOM      6  C   UNL     1       6.685  -2.556  -0.931  0.00  0.00    +0.000 A 
ATOM      7  C   UNL     1       5.994  -3.208   0.083  0.00  0.00    +0.000 A 
ATOM      8  C   UNL     1       4.679  -2.911   0.822  0.00  0.00    +0.000 A 
ATOM      9  C   UNL     1       3.815   0.917  -0.138  0.00  0.00    +0.000 C 
ATOM     10  C   UNL     1       2.577   1.839   0.872  0.00  0.00    +0.000 C 
ATOM     11  C   UNL     1       2.768   1.073   2.563  0.00  0.00    +0.000 C 
ATOM     12  C   UNL     1       1.428   0.688   2.946  0.00  0.00    +0.000 C 
ATOM     13  C   UNL     1       2.841   0.493   3.187  0.00  0.00    +0.000 C 
ATOM     14  C   UNL     1       3.804   0.999   1.209  0.00  0.00    +0.000 C 
ATOM     15  C   UNL     1       3.713   1.875  -1.527  0.00  0.00    +0.000 C 
ATOM     16  C   UNL     1       2.857   0.962  -2.362  0.00  0.00    +0.000 C 
ATOM     17  N   UNL     1       2.809  -0.261  -1.613  0.00  0.00    +0.000 NA
ENDROOT
BRANCH   6  18
ATOM     18  O   UNL     1       8.021  -2.541  -1.220  0.00  0.00    +0.000 OA
ATOM     19  H   UNL     1       8.322  -1.677  -1.600  0.00  0.00    +0.000 HD
ENDBRANCH   6  18
BRANCH  14  20
ATOM     20  O   UNL     1       4.739   2.468   0.970  0.00  0.00    +0.000 OA
ATOM     21  H   UNL     1       5.653   2.729   1.315  0.00  0.00    +0.000 HD
ENDBRANCH  14  20
BRANCH  17  22
ATOM     22  C   UNL     1       4.323  -0.511  -1.837  0.00  0.00    +0.000 C 
BRANCH  22  23
ATOM     23  C   UNL     1       5.720   0.510  -0.622  0.00  0.00    +0.000 C 
ATOM     24  C   UNL     1       5.729   0.266   1.401  0.00  0.00    +0.000 C 
ATOM     25  C   UNL     1       7.099   0.525   1.585  0.00  0.00    +0.000 C 
ATOM     26  C   UNL     1       7.242  -0.146   0.280  0.00  0.00    +0.000 C 
ENDBRANCH  22  23
ENDBRANCH  17  22
TORSDOF 4
