REMARK  Name = Butoconazole
REMARK  7 active torsions:
REMARK  status: ('A' for Active; 'I' for Inactive)
REMARK    1  A    between atoms: C_5  and  C_6
REMARK    2  A    between atoms: C_6  and  C_7
REMARK    3  A    between atoms: C_7  and  C_8
REMARK    4  A    between atoms: C_8  and  C_9
REMARK    5  A    between atoms: C_8  and  S_15
REMARK    6  A    between atoms: C_9  and  N_10
REMARK    7  A    between atoms: S_15  and  C_16
REMARK                            x       y       z     vdW  Elec       q    Type
REMARK                         _______ _______ _______ _____ _____    ______ ____
ROOT
ATOM      1  C   UNL     1       5.955   1.367   0.016  0.00  0.00    +0.000 C 
ENDROOT
BRANCH   1   2
ATOM      2  C   UNL     1       4.439   1.511   0.185  0.00  0.00    +0.000 C 
BRANCH   2   3
ATOM      3  C   UNL     1       3.773   0.190   0.576  0.00  0.00    +0.000 C 
BRANCH   3   8
ATOM      4 CL   UNL     1      -2.168  -0.092  -0.060  0.00  0.00    +0.000 Cl
ATOM      5  C   UNL     1      -0.452  -0.025  -0.046  0.00  0.00    +0.000 A 
ATOM      6  C   UNL     1       0.297  -1.200  -0.020  0.00  0.00    +0.000 A 
ATOM      7  C   UNL     1       1.685  -1.131   0.106  0.00  0.00    +0.000 A 
ATOM      8  C   UNL     1       2.314   0.117   0.231  0.00  0.00    +0.000 A 
ATOM      9  C   UNL     1       1.553   1.282   0.096  0.00  0.00    +0.000 A 
ATOM     10  C   UNL     1       0.175   1.215  -0.030  0.00  0.00    +0.000 A 
ENDBRANCH   3   8
ENDBRANCH   2   3
ENDBRANCH   1   2
BRANCH   1  11
ATOM     11  C   UNL     1       6.359   0.694  -1.338  0.00  0.00    +0.000 C 
BRANCH  11  12
ATOM     12  N   UNL     1       6.043  -0.720  -1.495  0.00  0.00    +0.000 N 
ATOM     13  C   UNL     1       6.846  -1.799  -1.237  0.00  0.00    +0.000 A 
ATOM     14  C   UNL     1       6.010  -2.887  -1.251  0.00  0.00    +0.000 A 
ATOM     15  N   UNL     1       4.754  -2.518  -1.660  0.00  0.00    +0.000 NA
ATOM     16  C   UNL     1       4.845  -1.240  -1.919  0.00  0.00    +0.000 A 
ENDBRANCH  11  12
ENDBRANCH   1  11
BRANCH   1  17
ATOM     17  S   UNL     1       6.579   3.104   0.122  0.00  0.00    +0.000 S 
BRANCH  17  18
ATOM     18  C   UNL     1       8.375   3.056   0.232  0.00  0.00    +0.000 A 
ATOM     19  C   UNL     1       9.193   1.914   0.353  0.00  0.00    +0.000 A 
ATOM     20 CL   UNL     1       8.700   0.336   0.852  0.00  0.00    +0.000 Cl
ATOM     21  C   UNL     1      10.581   1.996   0.217  0.00  0.00    +0.000 A 
ATOM     22  C   UNL     1      11.216   3.222   0.148  0.00  0.00    +0.000 A 
ATOM     23  C   UNL     1      10.454   4.379   0.166  0.00  0.00    +0.000 A 
ATOM     24  C   UNL     1       9.054   4.305   0.170  0.00  0.00    +0.000 A 
ATOM     25 CL   UNL     1       8.240   5.845   0.140  0.00  0.00    +0.000 Cl
ENDBRANCH  17  18
ENDBRANCH   1  17
TORSDOF 7
