REMARK  Name = Butobarbital
REMARK  6 active torsions:
REMARK  status: ('A' for Active; 'I' for Inactive)
REMARK    1  A    between atoms: C_1  and  C_2
REMARK    2  A    between atoms: C_2  and  C_3
REMARK    3  A    between atoms: C_3  and  C_4
REMARK    4  A    between atoms: C_4  and  C_5
REMARK    5  A    between atoms: C_5  and  C_6
REMARK    6  A    between atoms: C_6  and  C_7
REMARK                            x       y       z     vdW  Elec       q    Type
REMARK                         _______ _______ _______ _____ _____    ______ ____
ROOT
ATOM      1  C   UNL     1       5.138   2.348  -1.799  0.00  0.00    +0.000 C 
ATOM      2  C   UNL     1       5.816   3.318  -0.844  0.00  0.00    +0.000 C 
ATOM      3  O   UNL     1       6.781   3.004  -0.146  0.00  0.00    +0.000 OA
ATOM      4  N   UNL     1       5.304   4.577  -0.756  0.00  0.00    +0.000 N 
ATOM      5  C   UNL     1       4.308   5.104  -1.514  0.00  0.00    +0.000 C 
ATOM      6  O   UNL     1       3.991   6.282  -1.429  0.00  0.00    +0.000 OA
ATOM      7  N   UNL     1       3.696   4.266  -2.388  0.00  0.00    +0.000 N 
ATOM      8  C   UNL     1       4.048   2.982  -2.658  0.00  0.00    +0.000 C 
ATOM      9  O   UNL     1       3.501   2.391  -3.591  0.00  0.00    +0.000 OA
ATOM     10  H   UNL     1       5.767   5.208  -0.118  0.00  0.00    +0.000 HD
ATOM     11  H   UNL     1       2.997   4.672  -2.993  0.00  0.00    +0.000 HD
ENDROOT
BRANCH   1  12
ATOM     12  C   UNL     1       6.185   1.803  -2.798  0.00  0.00    +0.000 C 
ATOM     13  C   UNL     1       6.721   2.903  -3.711  0.00  0.00    +0.000 C 
ENDBRANCH   1  12
BRANCH   1  14
ATOM     14  C   UNL     1       4.596   1.185  -0.922  0.00  0.00    +0.000 C 
BRANCH  14  15
ATOM     15  C   UNL     1       3.076   1.148  -0.848  0.00  0.00    +0.000 C 
BRANCH  15  17
ATOM     16  C   UNL     1       1.059   0.022   0.023  0.00  0.00    +0.000 C 
ATOM     17  C   UNL     1       2.576   0.021   0.033  0.00  0.00    +0.000 C 
ENDBRANCH  15  17
ENDBRANCH  14  15
ENDBRANCH   1  14
TORSDOF 4
