REMARK  Name = Butylscopolamine
REMARK  11 active torsions:
REMARK  status: ('A' for Active; 'I' for Inactive)
REMARK    1  A    between atoms: C_1  and  C_2
REMARK    2  A    between atoms: C_2  and  C_3
REMARK    3  A    between atoms: C_3  and  C_4
REMARK    4  A    between atoms: C_4  and  N_5
REMARK    5  A    between atoms: N_5  and  C_6
REMARK    6  A    between atoms: C_9  and  O_15
REMARK    7  A    between atoms: O_15  and  C_16
REMARK    8  A    between atoms: C_16  and  C_18
REMARK    9  A    between atoms: C_18  and  C_19
REMARK   10  A    between atoms: C_18  and  C_21
REMARK   11  A    between atoms: C_19  and  O_20
REMARK                            x       y       z     vdW  Elec       q    Type
REMARK                         _______ _______ _______ _____ _____    ______ ____
ROOT
ATOM      1  N   UNL     1       9.026   2.662   0.642  0.00  0.00    +0.000 N 
ATOM      2  C   UNL     1       9.628   3.106   2.004  0.00  0.00    +0.000 C 
ATOM      3  C   UNL     1       9.344   1.307  -0.024  0.00  0.00    +0.000 C 
ATOM      4  C   UNL     1       8.420   1.203  -1.286  0.00  0.00    +0.000 C 
ATOM      5  C   UNL     1       6.925   1.163  -0.977  0.00  0.00    +0.000 C 
ATOM      6  C   UNL     1       6.563   2.214   0.054  0.00  0.00    +0.000 C 
ATOM      7  C   UNL     1       7.602   2.270   1.144  0.00  0.00    +0.000 C 
ATOM      8  C   UNL     1       7.885   0.868   1.813  0.00  0.00    +0.000 C 
ATOM      9  O   UNL     1       7.780  -0.322   1.069  0.00  0.00    +0.000 OA
ATOM     10  C   UNL     1       9.069   0.280   1.006  0.00  0.00    +0.000 C 
ENDROOT
BRANCH   1  11
ATOM     11  C   UNL     1       9.633   3.570  -0.393  0.00  0.00    +0.000 C 
BRANCH  11  12
ATOM     12  C   UNL     1       9.654   5.017  -0.098  0.00  0.00    +0.000 C 
BRANCH  12  14
ATOM     13  C   UNL     1      10.444   7.132  -0.959  0.00  0.00    +0.000 C 
ATOM     14  C   UNL     1      10.418   5.660  -1.244  0.00  0.00    +0.000 C 
ENDBRANCH  12  14
ENDBRANCH  11  12
ENDBRANCH   1  11
BRANCH   5  15
ATOM     15  O   UNL     1       6.063   1.360  -2.107  0.00  0.00    +0.000 OA
BRANCH  15  16
ATOM     16  C   UNL     1       5.972   0.578  -3.218  0.00  0.00    +0.000 C 
ATOM     17  O   UNL     1       5.236   0.908  -4.122  0.00  0.00    +0.000 OA
BRANCH  16  18
ATOM     18  C   UNL     1       6.849  -0.656  -3.315  0.00  0.00    +0.000 C 
BRANCH  18  19
ATOM     19  C   UNL     1       6.239  -1.927  -2.780  0.00  0.00    +0.000 A 
ATOM     20  C   UNL     1       5.817  -2.058  -1.444  0.00  0.00    +0.000 A 
ATOM     21  C   UNL     1       5.433  -3.282  -0.917  0.00  0.00    +0.000 A 
ATOM     22  C   UNL     1       5.330  -4.374  -1.759  0.00  0.00    +0.000 A 
ATOM     23  C   UNL     1       5.711  -4.263  -3.089  0.00  0.00    +0.000 A 
ATOM     24  C   UNL     1       6.203  -3.065  -3.577  0.00  0.00    +0.000 A 
ENDBRANCH  18  19
BRANCH  18  25
ATOM     25  C   UNL     1       7.536  -0.667  -4.704  0.00  0.00    +0.000 C 
BRANCH  25  26
ATOM     26  O   UNL     1       6.741  -1.170  -5.766  0.00  0.00    +0.000 OA
ATOM     27  H   UNL     1       5.836  -0.815  -5.671  0.00  0.00    +0.000 HD
ENDBRANCH  25  26
ENDBRANCH  18  25
ENDBRANCH  16  18
ENDBRANCH  15  16
ENDBRANCH   5  15
TORSDOF 9
