REMARK  Name = Butylene glycol
REMARK  5 active torsions:
REMARK  status: ('A' for Active; 'I' for Inactive)
REMARK    1  A    between atoms: C_1  and  C_2
REMARK    2  A    between atoms: C_2  and  O_3
REMARK    3  A    between atoms: C_2  and  C_4
REMARK    4  A    between atoms: C_4  and  C_5
REMARK    5  A    between atoms: C_5  and  O_6
REMARK                            x       y       z     vdW  Elec       q    Type
REMARK                         _______ _______ _______ _____ _____    ______ ____
ROOT
ATOM      1  C   UNL     1       0.915  -0.074  -0.005  0.00  0.00    +0.000 C 
ATOM      2  C   UNL     1       2.437  -0.074  -0.019  0.00  0.00    +0.000 C 
ENDROOT
BRANCH   2   3
ATOM      3  O   UNL     1       2.899  -1.420  -0.109  0.00  0.00    +0.000 OA
ATOM      4  H   UNL     1       2.554  -1.806  -0.931  0.00  0.00    +0.000 HD
ENDBRANCH   2   3
BRANCH   2   5
ATOM      5  C   UNL     1       2.981   0.741  -1.190  0.00  0.00    +0.000 C 
BRANCH   5   6
ATOM      6  C   UNL     1       4.504   0.758  -1.209  0.00  0.00    +0.000 C 
BRANCH   6   7
ATOM      7  O   UNL     1       4.954   1.547  -2.304  0.00  0.00    +0.000 OA
ATOM      8  H   UNL     1       4.652   1.113  -3.119  0.00  0.00    +0.000 HD
ENDBRANCH   6   7
ENDBRANCH   5   6
ENDBRANCH   2   5
TORSDOF 4
