REMARK  Name = Butylparaben
REMARK  7 active torsions:
REMARK  status: ('A' for Active; 'I' for Inactive)
REMARK    1  A    between atoms: C_1  and  C_2
REMARK    2  A    between atoms: C_2  and  C_3
REMARK    3  A    between atoms: C_3  and  C_4
REMARK    4  A    between atoms: C_4  and  O_5
REMARK    5  A    between atoms: O_5  and  C_6
REMARK    6  A    between atoms: C_6  and  C_8
REMARK    7  A    between atoms: C_11  and  O_12
REMARK                            x       y       z     vdW  Elec       q    Type
REMARK                         _______ _______ _______ _____ _____    ______ ____
ROOT
ATOM      1  C   UNL     1       6.843  -2.900  -3.405  0.00  0.00    +0.000 A 
ATOM      2  C   UNL     1       6.232  -2.886  -4.666  0.00  0.00    +0.000 A 
ATOM      3  C   UNL     1       6.783  -3.621  -5.730  0.00  0.00    +0.000 A 
ATOM      4  C   UNL     1       7.934  -4.379  -5.524  0.00  0.00    +0.000 A 
ATOM      5  C   UNL     1       8.527  -4.431  -4.269  0.00  0.00    +0.000 A 
ATOM      6  C   UNL     1       7.989  -3.688  -3.211  0.00  0.00    +0.000 A 
ENDROOT
BRANCH   1   7
ATOM      7  C   UNL     1       6.392  -1.995  -2.309  0.00  0.00    +0.000 C 
ATOM      8  O   UNL     1       7.188  -1.437  -1.562  0.00  0.00    +0.000 OA
BRANCH   7   9
ATOM      9  O   UNL     1       5.036  -1.878  -2.248  0.00  0.00    +0.000 OA
BRANCH   9  10
ATOM     10  C   UNL     1       4.571  -0.983  -1.211  0.00  0.00    +0.000 C 
BRANCH  10  11
ATOM     11  C   UNL     1       3.040  -0.960  -1.181  0.00  0.00    +0.000 C 
BRANCH  11  13
ATOM     12  C   UNL     1       0.975   0.009  -0.097  0.00  0.00    +0.000 C 
ATOM     13  C   UNL     1       2.497  -0.005  -0.112  0.00  0.00    +0.000 C 
ENDBRANCH  11  13
ENDBRANCH  10  11
ENDBRANCH   9  10
ENDBRANCH   7   9
ENDBRANCH   1   7
BRANCH   4  14
ATOM     14  O   UNL     1       8.532  -5.082  -6.528  0.00  0.00    +0.000 OA
ATOM     15  H   UNL     1       8.057  -4.936  -7.362  0.00  0.00    +0.000 HD
ENDBRANCH   4  14
TORSDOF 6
