REMARK  Name = Cabergoline
REMARK  11 active torsions:
REMARK  status: ('A' for Active; 'I' for Inactive)
REMARK    1  A    between atoms: C_16  and  C_22
REMARK    2  A    between atoms: N_18  and  C_19
REMARK    3  A    between atoms: C_19  and  C_20
REMARK    4  A    between atoms: N_24  and  C_25
REMARK    5  A    between atoms: C_25  and  C_26
REMARK    6  A    between atoms: C_26  and  C_27
REMARK    7  A    between atoms: C_27  and  N_28
REMARK    8  A    between atoms: N_28  and  C_29
REMARK    9  A    between atoms: N_28  and  C_30
REMARK   10  A    between atoms: N_33  and  C_34
REMARK   11  A    between atoms: C_34  and  C_35
REMARK                            x       y       z     vdW  Elec       q    Type
REMARK                         _______ _______ _______ _____ _____    ______ ____
ROOT
ATOM      1  C   UNL     1       2.655  -0.321  -0.116  0.00  0.00    +0.000 C 
ATOM      2  C   UNL     1       2.918  -1.681  -0.814  0.00  0.00    +0.000 C 
ATOM      3  C   UNL     1       2.262  -1.580  -2.192  0.00  0.00    +0.000 A 
ATOM      4  C   UNL     1       1.803  -2.525  -3.059  0.00  0.00    +0.000 A 
ATOM      5  N   UNL     1       1.365  -1.860  -4.183  0.00  0.00    +0.000 N 
ATOM      6  C   UNL     1       1.381  -0.493  -3.989  0.00  0.00    +0.000 A 
ATOM      7  C   UNL     1       1.092   0.605  -4.800  0.00  0.00    +0.000 A 
ATOM      8  C   UNL     1       1.248   1.865  -4.190  0.00  0.00    +0.000 A 
ATOM      9  C   UNL     1       1.463   1.993  -2.782  0.00  0.00    +0.000 A 
ATOM     10  C   UNL     1       1.514   0.839  -1.934  0.00  0.00    +0.000 A 
ATOM     11  C   UNL     1       1.713  -0.346  -2.661  0.00  0.00    +0.000 A 
ATOM     12  C   UNL     1       1.531   0.642  -0.333  0.00  0.00    +0.000 C 
ATOM     13  C   UNL     1       0.405  -0.611   0.617  0.00  0.00    +0.000 C 
ATOM     14  C   UNL     1       0.693  -0.918   2.160  0.00  0.00    +0.000 C 
ATOM     15  C   UNL     1       2.225  -1.122   2.216  0.00  0.00    +0.000 C 
ATOM     16  N   UNL     1       2.840  -0.136   1.337  0.00  0.00    +0.000 NA
ATOM     17  H   UNL     1       1.043  -2.318  -5.019  0.00  0.00    +0.000 HD
ENDROOT
BRANCH  14  18
ATOM     18  C   UNL     1       0.036  -2.188   3.019  0.00  0.00    +0.000 C 
ATOM     19  O   UNL     1       0.866  -2.977   3.487  0.00  0.00    +0.000 OA
ATOM     20  N   UNL     1      -1.356  -2.358   3.344  0.00  0.00    +0.000 N 
ATOM     21  C   UNL     1      -1.745  -3.512   4.136  0.00  0.00    +0.000 C 
ATOM     22  O   UNL     1      -0.999  -4.315   4.642  0.00  0.00    +0.000 OA
ATOM     23  N   UNL     1      -3.131  -3.679   4.338  0.00  0.00    +0.000 N 
ATOM     24  H   UNL     1      -3.818  -3.077   3.930  0.00  0.00    +0.000 HD
BRANCH  23  25
ATOM     25  C   UNL     1      -3.637  -4.802   5.142  0.00  0.00    +0.000 C 
ATOM     26  C   UNL     1      -5.159  -4.834   5.244  0.00  0.00    +0.000 C 
ENDBRANCH  23  25
BRANCH  20  27
ATOM     27  C   UNL     1      -2.442  -1.453   2.895  0.00  0.00    +0.000 C 
BRANCH  27  28
ATOM     28  C   UNL     1      -1.975  -0.218   2.191  0.00  0.00    +0.000 C 
BRANCH  28  29
ATOM     29  C   UNL     1      -2.872   0.653   1.340  0.00  0.00    +0.000 C 
BRANCH  29  30
ATOM     30  N   UNL     1      -2.164   1.706   0.565  0.00  0.00    +0.000 NA
ATOM     31  C   UNL     1      -1.434   1.262  -0.610  0.00  0.00    +0.000 C 
ATOM     32  C   UNL     1      -3.099   2.655   0.009  0.00  0.00    +0.000 C 
ENDBRANCH  29  30
ENDBRANCH  28  29
ENDBRANCH  27  28
ENDBRANCH  20  27
ENDBRANCH  14  18
BRANCH  16  33
ATOM     33  C   UNL     1       4.243   0.071   1.443  0.00  0.00    +0.000 C 
BRANCH  33  34
ATOM     34  C   UNL     1       4.746   0.305   2.806  0.00  0.00    +0.000 C 
ATOM     35  C   UNL     1       6.066   0.278   2.990  0.00  0.00    +0.000 C 
ENDBRANCH  33  34
ENDBRANCH  16  33
TORSDOF 8
