REMARK  Name = Cabozantinib
REMARK  10 active torsions:
REMARK  status: ('A' for Active; 'I' for Inactive)
REMARK    1  A    between atoms: C_1  and  O_2
REMARK    2  A    between atoms: O_2  and  C_3
REMARK    3  A    between atoms: C_8  and  O_9
REMARK    4  A    between atoms: O_9  and  C_10
REMARK    5  A    between atoms: C_11  and  O_12
REMARK    6  A    between atoms: O_12  and  C_13
REMARK    7  A    between atoms: C_16  and  N_17
REMARK    8  A    between atoms: C_18  and  C_20
REMARK    9  A    between atoms: C_20  and  C_23
REMARK   10  A    between atoms: N_25  and  C_26
REMARK                            x       y       z     vdW  Elec       q    Type
REMARK                         _______ _______ _______ _____ _____    ______ ____
ROOT
ATOM      1  C   UNL     1       4.107  -4.388   4.461  0.00  0.00    +0.000 A 
ATOM      2  C   UNL     1       3.026  -4.694   5.300  0.00  0.00    +0.000 A 
ATOM      3  C   UNL     1       1.998  -5.543   4.839  0.00  0.00    +0.000 A 
ATOM      4  C   UNL     1       2.017  -6.019   3.513  0.00  0.00    +0.000 A 
ATOM      5  C   UNL     1       3.069  -5.650   2.689  0.00  0.00    +0.000 A 
ATOM      6  C   UNL     1       4.149  -4.920   3.173  0.00  0.00    +0.000 A 
ENDROOT
BRANCH   4   7
ATOM      7  N   UNL     1       0.961  -6.812   3.009  0.00  0.00    +0.000 N 
ATOM      8  C   UNL     1       0.688  -7.043   1.655  0.00  0.00    +0.000 C 
ATOM      9  O   UNL     1       1.428  -6.839   0.681  0.00  0.00    +0.000 OA
ATOM     10  H   UNL     1       0.146  -6.822   3.619  0.00  0.00    +0.000 HD
BRANCH   8  11
ATOM     11  C   UNL     1      -0.747  -7.477   1.359  0.00  0.00    +0.000 C 
ATOM     12  C   UNL     1      -1.059  -7.907  -0.093  0.00  0.00    +0.000 C 
ATOM     13  C   UNL     1      -0.937  -8.943   0.979  0.00  0.00    +0.000 C 
BRANCH  11  14
ATOM     14  C   UNL     1      -1.673  -6.555   2.109  0.00  0.00    +0.000 C 
ATOM     15  O   UNL     1      -1.116  -5.601   2.641  0.00  0.00    +0.000 OA
ATOM     16  N   UNL     1      -3.005  -6.774   2.383  0.00  0.00    +0.000 N 
ATOM     17  H   UNL     1      -3.482  -7.606   2.064  0.00  0.00    +0.000 HD
BRANCH  16  18
ATOM     18  C   UNL     1      -3.684  -5.873   3.271  0.00  0.00    +0.000 A 
ATOM     19  C   UNL     1      -4.752  -6.343   4.028  0.00  0.00    +0.000 A 
ATOM     20  C   UNL     1      -5.516  -5.444   4.785  0.00  0.00    +0.000 A 
ATOM     21  C   UNL     1      -5.159  -4.100   4.865  0.00  0.00    +0.000 A 
ATOM     22  F   UNL     1      -5.892  -3.256   5.600  0.00  0.00    +0.000 F 
ATOM     23  C   UNL     1      -4.050  -3.624   4.197  0.00  0.00    +0.000 A 
ATOM     24  C   UNL     1      -3.325  -4.509   3.404  0.00  0.00    +0.000 A 
ENDBRANCH  16  18
ENDBRANCH  11  14
ENDBRANCH   8  11
ENDBRANCH   4   7
BRANCH   1  25
ATOM     25  O   UNL     1       5.050  -3.485   4.897  0.00  0.00    +0.000 OA
BRANCH  25  32
ATOM     26  C   UNL     1       2.990  -0.543   1.036  0.00  0.00    +0.000 A 
ATOM     27  C   UNL     1       4.180   0.042   1.549  0.00  0.00    +0.000 A 
ATOM     28  C   UNL     1       4.970  -0.519   2.575  0.00  0.00    +0.000 A 
ATOM     29  C   UNL     1       4.522  -1.702   3.174  0.00  0.00    +0.000 A 
ATOM     30  C   UNL     1       3.287  -2.184   2.721  0.00  0.00    +0.000 A 
ATOM     31  C   UNL     1       2.581  -1.731   1.615  0.00  0.00    +0.000 A 
ATOM     32  C   UNL     1       5.325  -2.321   4.178  0.00  0.00    +0.000 A 
ATOM     33  C   UNL     1       6.510  -1.699   4.566  0.00  0.00    +0.000 A 
ATOM     34  C   UNL     1       6.845  -0.505   3.956  0.00  0.00    +0.000 A 
ATOM     35  N   UNL     1       6.112   0.080   2.978  0.00  0.00    +0.000 NA
BRANCH  26  37
ATOM     36  C   UNL     1       1.089   0.417  -0.112  0.00  0.00    +0.000 C 
ATOM     37  O   UNL     1       2.478   0.096  -0.065  0.00  0.00    +0.000 OA
ENDBRANCH  26  37
BRANCH  31  38
ATOM     38  O   UNL     1       1.645  -2.682   1.319  0.00  0.00    +0.000 OA
ATOM     39  C   UNL     1       0.683  -2.349   0.373  0.00  0.00    +0.000 C 
ENDBRANCH  31  38
ENDBRANCH  25  32
ENDBRANCH   1  25
TORSDOF 8
