REMARK  Name = Caffeine
REMARK  3 active torsions:
REMARK  status: ('A' for Active; 'I' for Inactive)
REMARK    1  A    between atoms: C_1  and  N_2
REMARK    2  A    between atoms: N_9  and  C_10
REMARK    3  A    between atoms: N_13  and  C_14
REMARK                            x       y       z     vdW  Elec       q    Type
REMARK                         _______ _______ _______ _____ _____    ______ ____
ROOT
ATOM      1  C   UNL     1      -3.242  -1.139   0.033  0.00  0.00    +0.000 C 
ATOM      2  N   UNL     1      -2.265  -0.080  -0.003  0.00  0.00    +0.000 N 
ATOM      3  C   UNL     1      -2.523   1.266  -0.010  0.00  0.00    +0.000 A 
ATOM      4  N   UNL     1      -1.410   1.975  -0.006  0.00  0.00    +0.000 NA
ATOM      5  C   UNL     1      -0.414   1.046  -0.002  0.00  0.00    +0.000 A 
ATOM      6  C   UNL     1      -0.907  -0.224  -0.006  0.00  0.00    +0.000 A 
ATOM      7  C   UNL     1      -0.083  -1.381  -0.002  0.00  0.00    +0.000 A 
ATOM      8  O   UNL     1      -0.539  -2.520  -0.005  0.00  0.00    +0.000 OA
ATOM      9  N   UNL     1       1.279  -1.073   0.006  0.00  0.00    +0.000 N 
ATOM     10  C   UNL     1       2.224  -2.172   0.022  0.00  0.00    +0.000 C 
ATOM     11  C   UNL     1       1.831   0.224  -0.001  0.00  0.00    +0.000 A 
ATOM     12  O   UNL     1       3.054   0.392  -0.014  0.00  0.00    +0.000 OA
ATOM     13  N   UNL     1       0.938   1.297   0.007  0.00  0.00    +0.000 N 
ATOM     14  C   UNL     1       1.436   2.661   0.014  0.00  0.00    +0.000 C 
ENDROOT
TORSDOF 0
